@<TRIPOS>MOLECULE
ZINC40955326
   39    41     0     0     0
SMALL
USER_CHARGES

@<TRIPOS>ATOM
      1 C1         -0.0164    1.3593    0.0095 C.2       1 <0>         0.0399
      2 C2          1.1868    2.0698    0.0018 C.2       1 <0>        -0.3047
      3 C3          2.3785    1.4054   -0.0131 C.2       1 <0>         0.4577
      4 N1          2.4113    0.0392   -0.0208 N.pl3     1 <0>        -0.6441
      5 H1          3.2635   -0.4239   -0.0311 H         1 <0>         0.4073
      6 C4          1.2386   -0.6816   -0.0134 C.2       1 <0>         0.5408
      7 N2          1.2715   -1.9997   -0.0204 N.2       1 <0>        -1.0108
      8 S1          2.7258   -2.7916   -0.0380 S.o2      1 <0>         2.6119
      9 O1          3.3342   -2.4958   -1.2876 O.2       1 <0>        -0.9928
     10 O2          3.3575   -2.5083    1.2030 O.2       1 <0>        -0.9928
     11 C5          2.3783   -4.5190   -0.0434 C.ar      1 <0>        -0.6273
     12 C6          2.2480   -5.1994    1.1540 C.ar      1 <0>        -0.0147
     13 C7          1.9758   -6.5523    1.1558 C.ar      1 <0>        -0.1277
     14 C8          1.8318   -7.2332   -0.0520 C.ar      1 <0>         0.0019
     15 C9          1.9638   -6.5422   -1.2555 C.ar      1 <0>        -0.1277
     16 C10         2.2312   -5.1884   -1.2451 C.ar      1 <0>        -0.0148
     17 C11         1.5399   -8.6869   -0.0566 C.ar      1 <0>        -0.0279
     18 C12         1.4033   -9.3741    1.1498 C.ar      1 <0>        -0.1044
     19 C13         1.1322  -10.7237    1.1470 C.ar      1 <0>        -0.0671
     20 C14         0.9935  -11.4054   -0.0652 C.ar      1 <0>        -0.0207
     21 C15         1.1302  -10.7156   -1.2730 C.ar      1 <0>        -0.0671
     22 C16         1.3964   -9.3651   -1.2673 C.ar      1 <0>        -0.1044
     23 C17         0.7120  -12.8095   -0.0696 C.1       1 <0>         0.2487
     24 N3          0.4888  -13.9233   -0.0731 N.1       1 <0>        -0.4079
     25 C18         0.0021   -0.0041    0.0020 C.2       1 <0>        -0.2232
     26 N4          3.5572    2.1170   -0.0210 N.pl3     1 <0>        -0.8485
     27 H2         -0.9579    1.8882    0.0258 H         1 <0>         0.1486
     28 H3          1.1734    3.1497    0.0074 H         1 <0>         0.1508
     29 H4          2.3597   -4.6708    2.0891 H         1 <0>         0.1436
     30 H5          1.8750   -7.0826    2.0913 H         1 <0>         0.1395
     31 H6          1.8536   -7.0647   -2.1943 H         1 <0>         0.1395
     32 H7          2.3296   -4.6512   -2.1768 H         1 <0>         0.1436
     33 H8          1.5105   -8.8470    2.0863 H         1 <0>         0.1400
     34 H9          1.0272  -11.2556    2.0810 H         1 <0>         0.1386
     35 H10         1.0236  -11.2413   -2.2104 H         1 <0>         0.1386
     36 H11         1.4980   -8.8310   -2.2004 H         1 <0>         0.1400
     37 H12        -0.9233   -0.5608    0.0082 H         1 <0>         0.1622
     38 H13         3.5384    3.0868   -0.0159 H         1 <0>         0.4276
     39 H14         4.4065    1.6485   -0.0316 H         1 <0>         0.4078
@<TRIPOS>BOND
     1    1   25 2
     2    1    2 1
     3    1   27 1
     4    2    3 2
     5    2   28 1
     6    3    4 1
     7    3   26 1
     8    4    5 1
     9    4    6 1
    10    6    7 2
    11    6   25 1
    12    7    8 1
    13    8    9 2
    14    8   10 2
    15    8   11 1
    16   11   16 ar
    17   11   12 ar
    18   12   13 ar
    19   12   29 1
    20   13   14 ar
    21   13   30 1
    22   14   15 ar
    23   14   17 1
    24   15   16 ar
    25   15   31 1
    26   16   32 1
    27   17   22 ar
    28   17   18 ar
    29   18   19 ar
    30   18   33 1
    31   19   20 ar
    32   19   34 1
    33   20   21 ar
    34   20   23 1
    35   21   22 ar
    36   21   35 1
    37   22   36 1
    38   23   24 3
    39   25   37 1
    40   26   38 1
    41   26   39 1
