@<TRIPOS>MOLECULE
ZINC00602601
   58    62     0     0     0
SMALL
USER_CHARGES

@<TRIPOS>ATOM
      1 C1          1.1874   -4.2223   -1.1276 C.ar      1 <0>        -0.1191
      2 C2          0.5186   -3.3701   -0.2690 C.ar      1 <0>        -0.1140
      3 C3          1.1321   -2.2129    0.1731 C.ar      1 <0>        -0.1135
      4 C4          2.4146   -1.9082   -0.2431 C.ar      1 <0>        -0.0743
      5 C5          3.0837   -2.7608   -1.1010 C.ar      1 <0>        -0.1170
      6 C6          2.4697   -3.9173   -1.5442 C.ar      1 <0>        -0.1188
      7 C7          3.0830   -0.6461    0.2380 C.3       1 <0>        -0.1477
      8 C8          3.7263   -0.8983    1.6031 C.3       1 <0>         0.1433
      9 H1          2.9808   -1.3210    2.2766 H         1 <0>         0.0888
     10 C9          4.8669   -1.8865    1.4406 C.3       1 <0>         0.1246
     11 N1          5.4855   -2.1540    2.7484 N.pl3     1 <0>        -0.6545
     12 C10         6.4960   -1.3081    3.1828 C.ar      1 <0>         0.2045
     13 C11         7.8052   -1.7661    3.2985 C.ar      1 <0>        -0.1546
     14 C12         8.8064   -0.9011    3.6779 C.ar      1 <0>        -0.0494
     15 C13         8.5133    0.4398    3.9447 C.ar      1 <0>        -0.0220
     16 C14         7.1930    0.8944    3.8484 C.ar      1 <0>        -0.0311
     17 C15         6.1989    0.0182    3.4948 C.ar      1 <0>        -0.1243
     18 C16         4.7448    0.4511    3.5091 C.3       1 <0>         0.1683
     19 N2          4.2030    0.3747    2.1521 N.pl3     1 <0>        -0.9846
     20 S1          4.1256    1.7445    1.2248 S.o2      1 <0>         2.7203
     21 O1          4.9240    2.7223    1.8772 O.2       1 <0>        -0.9407
     22 O2          4.3611    1.3404   -0.1171 O.2       1 <0>        -0.9407
     23 C17         2.4634    2.3254    1.2914 C.2       1 <0>        -0.7806
     24 C18         1.8656    3.0959    2.2328 C.2       1 <0>         0.0046
     25 C19         0.5344    3.4335    2.0762 C.2       1 <0>        -0.1947
     26 C20        -0.1339    2.9842    0.9859 C.2       1 <0>        -0.1252
     27 S2          1.1319    2.0585    0.1326 S.3       1 <0>         0.1699
     28 C21         9.5597    1.3444    4.3155 C.1       1 <0>         0.2379
     29 N3         10.3898    2.0619    4.6097 N.1       1 <0>        -0.3907
     30 C22         5.0457   -3.2838    3.5708 C.3       1 <0>         0.1974
     31 C23         5.8606   -4.5036    3.2258 C.2       1 <0>         0.0389
     32 C24         5.5285   -5.4688    2.3473 C.2       1 <0>         0.0131
     33 N4          6.5187   -6.3733    2.3306 N.pl3     1 <0>        -0.4727
     34 C25         7.4519   -6.0053    3.1653 C.cat     1 <0>         0.3052
     35 N5          7.0834   -4.8404    3.7406 N.pl3     1 <0>        -0.5093
     36 H2          7.5897   -4.3373    4.3975 H         1 <0>         0.4637
     37 H3          0.7098   -5.1287   -1.4694 H         1 <0>         0.1225
     38 H4         -0.4834   -3.6082    0.0562 H         1 <0>         0.1237
     39 H5          0.6093   -1.5467    0.8434 H         1 <0>         0.1215
     40 H6          4.0856   -2.5226   -1.4265 H         1 <0>         0.1237
     41 H7          2.9924   -4.5833   -2.2148 H         1 <0>         0.1223
     42 H8          3.8506   -0.3467   -0.4756 H         1 <0>         0.1419
     43 H9          2.3406    0.1470    0.3272 H         1 <0>         0.0787
     44 H10         4.4829   -2.8177    1.0242 H         1 <0>         0.0952
     45 H11         5.6139   -1.4696    0.7650 H         1 <0>         0.0852
     46 H12         8.0355   -2.8006    3.0910 H         1 <0>         0.1156
     47 H13         9.8212   -1.2592    3.7700 H         1 <0>         0.1382
     48 H14         6.9584    1.9289    4.0513 H         1 <0>         0.1489
     49 H15         4.1760   -0.2070    4.1660 H         1 <0>         0.0997
     50 H16         4.6743    1.4766    3.8719 H         1 <0>         0.1034
     51 H17         2.4209    3.4405    3.0926 H         1 <0>         0.1467
     52 H18         0.0341    4.0459    2.8118 H         1 <0>         0.1486
     53 H19        -1.1637    3.1473    0.7043 H         1 <0>         0.1990
     54 H20         5.1830   -3.0413    4.6246 H         1 <0>         0.1052
     55 H21         3.9918   -3.4846    3.3785 H         1 <0>         0.1238
     56 H22         4.6234   -5.5077    1.7593 H         1 <0>         0.2226
     57 H23         8.3688   -6.5414    3.3607 H         1 <0>         0.2652
     58 H24         6.5380   -7.1747    1.7845 H         1 <0>         0.4670
@<TRIPOS>BOND
     1    1    6 ar
     2    1    2 ar
     3    1   37 1
     4    2    3 ar
     5    2   38 1
     6    3    4 ar
     7    3   39 1
     8    4    5 ar
     9    4    7 1
    10    5    6 ar
    11    5   40 1
    12    6   41 1
    13    7    8 1
    14    7   42 1
    15    7   43 1
    16    8    9 1
    17    8   19 1
    18    8   10 1
    19   10   11 1
    20   10   44 1
    21   10   45 1
    22   11   12 1
    23   11   30 1
    24   12   17 ar
    25   12   13 ar
    26   13   14 ar
    27   13   46 1
    28   14   15 ar
    29   14   47 1
    30   15   16 ar
    31   15   28 1
    32   16   17 ar
    33   16   48 1
    34   17   18 1
    35   18   19 1
    36   18   49 1
    37   18   50 1
    38   19   20 1
    39   20   21 2
    40   20   22 2
    41   20   23 1
    42   23   27 1
    43   23   24 2
    44   24   25 1
    45   24   51 1
    46   25   26 2
    47   25   52 1
    48   26   27 1
    49   26   53 1
    50   28   29 3
    51   30   31 1
    52   30   54 1
    53   30   55 1
    54   31   35 1
    55   31   32 2
    56   32   33 1
    57   32   56 1
    58   33   34 2
    59   33   58 1
    60   34   35 1
    61   34   57 1
    62   35   36 1
@<TRIPOS>MOLECULE
ZINC00602601
   58    62     0     0     0
SMALL
USER_CHARGES

@<TRIPOS>ATOM
      1 C1          1.1874   -4.2223   -1.1276 C.ar      1 <0>        -0.1190
      2 C2          0.5186   -3.3701   -0.2690 C.ar      1 <0>        -0.1140
      3 C3          1.1321   -2.2129    0.1731 C.ar      1 <0>        -0.1135
      4 C4          2.4146   -1.9082   -0.2431 C.ar      1 <0>        -0.0743
      5 C5          3.0837   -2.7608   -1.1010 C.ar      1 <0>        -0.1170
      6 C6          2.4697   -3.9173   -1.5442 C.ar      1 <0>        -0.1188
      7 C7          3.0830   -0.6461    0.2380 C.3       1 <0>        -0.1477
      8 C8          3.7263   -0.8983    1.6031 C.3       1 <0>         0.1433
      9 H1          2.9808   -1.3210    2.2766 H         1 <0>         0.0888
     10 C9          4.8669   -1.8865    1.4406 C.3       1 <0>         0.1248
     11 N1          5.4855   -2.1540    2.7484 N.pl3     1 <0>        -0.6551
     12 C10         6.4960   -1.3081    3.1828 C.ar      1 <0>         0.2050
     13 C11         7.8052   -1.7661    3.2985 C.ar      1 <0>        -0.1559
     14 C12         8.8064   -0.9011    3.6779 C.ar      1 <0>        -0.0489
     15 C13         8.5133    0.4398    3.9447 C.ar      1 <0>        -0.0220
     16 C14         7.1930    0.8944    3.8484 C.ar      1 <0>        -0.0306
     17 C15         6.1989    0.0182    3.4948 C.ar      1 <0>        -0.1243
     18 C16         4.7448    0.4511    3.5091 C.3       1 <0>         0.1683
     19 N2          4.2030    0.3747    2.1521 N.pl3     1 <0>        -0.9846
     20 S1          4.1256    1.7445    1.2248 S.o2      1 <0>         2.7203
     21 O1          4.9240    2.7223    1.8772 O.2       1 <0>        -0.9407
     22 O2          4.3611    1.3404   -0.1171 O.2       1 <0>        -0.9406
     23 C17         2.4634    2.3254    1.2914 C.2       1 <0>        -0.7807
     24 C18         1.8656    3.0959    2.2328 C.2       1 <0>         0.0047
     25 C19         0.5344    3.4335    2.0762 C.2       1 <0>        -0.1947
     26 C20        -0.1339    2.9842    0.9859 C.2       1 <0>        -0.1251
     27 S2          1.1319    2.0585    0.1326 S.3       1 <0>         0.1700
     28 C21         9.5597    1.3444    4.3155 C.1       1 <0>         0.2377
     29 N3         10.3898    2.0619    4.6097 N.1       1 <0>        -0.3905
     30 C22         5.0457   -3.2838    3.5708 C.3       1 <0>         0.1974
     31 C23         5.8606   -4.5036    3.2258 C.2       1 <0>         0.0086
     32 C24         5.5164   -5.4620    2.3446 C.2       1 <0>         0.0446
     33 N4          6.5345   -6.3769    2.3367 N.pl3     1 <0>        -0.5087
     34 H2          6.5785   -7.1844    1.8010 H         1 <0>         0.4675
     35 C25         7.4661   -5.9454    3.2140 C.cat     1 <0>         0.3057
     36 N5          7.0586   -4.8220    3.7382 N.pl3     1 <0>        -0.4735
     37 H3          0.7098   -5.1287   -1.4694 H         1 <0>         0.1225
     38 H4         -0.4834   -3.6082    0.0562 H         1 <0>         0.1237
     39 H5          0.6093   -1.5467    0.8434 H         1 <0>         0.1215
     40 H6          4.0856   -2.5226   -1.4265 H         1 <0>         0.1237
     41 H7          2.9924   -4.5833   -2.2148 H         1 <0>         0.1224
     42 H8          3.8506   -0.3467   -0.4756 H         1 <0>         0.1419
     43 H9          2.3406    0.1470    0.3272 H         1 <0>         0.0786
     44 H10         4.4829   -2.8177    1.0242 H         1 <0>         0.0951
     45 H11         5.6139   -1.4696    0.7650 H         1 <0>         0.0851
     46 H12         8.0355   -2.8006    3.0910 H         1 <0>         0.1144
     47 H13         9.8212   -1.2592    3.7700 H         1 <0>         0.1384
     48 H14         6.9584    1.9289    4.0513 H         1 <0>         0.1490
     49 H15         4.1760   -0.2070    4.1660 H         1 <0>         0.0997
     50 H16         4.6743    1.4766    3.8719 H         1 <0>         0.1034
     51 H17         2.4209    3.4405    3.0926 H         1 <0>         0.1466
     52 H18         0.0341    4.0459    2.8118 H         1 <0>         0.1486
     53 H19        -1.1637    3.1473    0.7043 H         1 <0>         0.1991
     54 H20         5.1830   -3.0413    4.6246 H         1 <0>         0.1043
     55 H21         3.9918   -3.4846    3.3785 H         1 <0>         0.1227
     56 H22         4.6109   -5.5014    1.7573 H         1 <0>         0.2248
     57 H23         8.3962   -6.4452    3.4410 H         1 <0>         0.2653
     58 H24         7.5445   -4.3004    4.3960 H         1 <0>         0.4631
@<TRIPOS>BOND
     1    1    6 ar
     2    1    2 ar
     3    1   37 1
     4    2    3 ar
     5    2   38 1
     6    3    4 ar
     7    3   39 1
     8    4    5 ar
     9    4    7 1
    10    5    6 ar
    11    5   40 1
    12    6   41 1
    13    7    8 1
    14    7   42 1
    15    7   43 1
    16    8    9 1
    17    8   19 1
    18    8   10 1
    19   10   11 1
    20   10   44 1
    21   10   45 1
    22   11   12 1
    23   11   30 1
    24   12   17 ar
    25   12   13 ar
    26   13   14 ar
    27   13   46 1
    28   14   15 ar
    29   14   47 1
    30   15   16 ar
    31   15   28 1
    32   16   17 ar
    33   16   48 1
    34   17   18 1
    35   18   19 1
    36   18   49 1
    37   18   50 1
    38   19   20 1
    39   20   21 2
    40   20   22 2
    41   20   23 1
    42   23   27 1
    43   23   24 2
    44   24   25 1
    45   24   51 1
    46   25   26 2
    47   25   52 1
    48   26   27 1
    49   26   53 1
    50   28   29 3
    51   30   31 1
    52   30   54 1
    53   30   55 1
    54   31   36 1
    55   31   32 2
    56   32   33 1
    57   32   56 1
    58   33   34 1
    59   33   35 1
    60   35   36 2
    61   35   57 1
    62   36   58 1
@<TRIPOS>MOLECULE
ZINC00602601
   57    61     0     0     0
SMALL
USER_CHARGES

@<TRIPOS>ATOM
      1 C1          1.1874   -4.2223   -1.1276 C.ar      1 <0>        -0.1194
      2 C2          0.5186   -3.3701   -0.2690 C.ar      1 <0>        -0.1176
      3 C3          1.1321   -2.2129    0.1731 C.ar      1 <0>        -0.1154
      4 C4          2.4146   -1.9082   -0.2431 C.ar      1 <0>        -0.0724
      5 C5          3.0837   -2.7608   -1.1010 C.ar      1 <0>        -0.1077
      6 C6          2.4697   -3.9173   -1.5442 C.ar      1 <0>        -0.1122
      7 C7          3.0830   -0.6461    0.2380 C.3       1 <0>        -0.1420
      8 C8          3.7263   -0.8983    1.6031 C.3       1 <0>         0.1424
      9 H1          2.9808   -1.3210    2.2766 H         1 <0>         0.0863
     10 C9          4.8669   -1.8865    1.4406 C.3       1 <0>         0.1326
     11 N1          5.4855   -2.1540    2.7484 N.pl3     1 <0>        -0.6535
     12 C10         6.4960   -1.3081    3.1828 C.ar      1 <0>         0.2293
     13 C11         7.8052   -1.7661    3.2985 C.ar      1 <0>        -0.1432
     14 C12         8.8064   -0.9011    3.6779 C.ar      1 <0>        -0.0506
     15 C13         8.5133    0.4398    3.9447 C.ar      1 <0>        -0.0469
     16 C14         7.1930    0.8944    3.8484 C.ar      1 <0>        -0.0366
     17 C15         6.1989    0.0182    3.4948 C.ar      1 <0>        -0.1395
     18 C16         4.7448    0.4511    3.5091 C.3       1 <0>         0.1731
     19 N2          4.2030    0.3747    2.1521 N.pl3     1 <0>        -0.9811
     20 S1          4.1256    1.7445    1.2248 S.o2      1 <0>         2.7182
     21 O1          4.9240    2.7223    1.8772 O.2       1 <0>        -0.9447
     22 O2          4.3611    1.3404   -0.1171 O.2       1 <0>        -0.9422
     23 C17         2.4634    2.3254    1.2914 C.2       1 <0>        -0.7711
     24 C18         1.8656    3.0959    2.2328 C.2       1 <0>        -0.0023
     25 C19         0.5344    3.4335    2.0762 C.2       1 <0>        -0.1928
     26 C20        -0.1339    2.9842    0.9859 C.2       1 <0>        -0.1353
     27 S2          1.1319    2.0585    0.1326 S.3       1 <0>         0.1728
     28 C21         9.5597    1.3444    4.3155 C.1       1 <0>         0.2543
     29 N3         10.3898    2.0619    4.6097 N.1       1 <0>        -0.4177
     30 C22         5.0457   -3.2838    3.5708 C.3       1 <0>         0.2247
     31 C23         5.8606   -4.5036    3.2258 C.2       1 <0>        -0.0171
     32 C24         6.9636   -4.9272    3.8720 C.2       1 <0>        -0.0466
     33 N4          7.3838   -6.0637    3.2351 N.pl3     1 <0>        -0.5704
     34 H2          8.1560   -6.6022    3.4685 H         1 <0>         0.4203
     35 C25         6.5224   -6.2950    2.2211 C.2       1 <0>         0.1848
     36 N5          5.6113   -5.3608    2.2248 N.2       1 <0>        -0.4786
     37 H3          0.7098   -5.1287   -1.4694 H         1 <0>         0.1195
     38 H4         -0.4834   -3.6082    0.0562 H         1 <0>         0.1196
     39 H5          0.6093   -1.5467    0.8434 H         1 <0>         0.1180
     40 H6          4.0856   -2.5226   -1.4265 H         1 <0>         0.1232
     41 H7          2.9924   -4.5833   -2.2148 H         1 <0>         0.1214
     42 H8          3.8506   -0.3467   -0.4756 H         1 <0>         0.1389
     43 H9          2.3406    0.1470    0.3272 H         1 <0>         0.0719
     44 H10         4.4829   -2.8177    1.0242 H         1 <0>         0.1005
     45 H11         5.6139   -1.4696    0.7650 H         1 <0>         0.0717
     46 H12         8.0355   -2.8006    3.0910 H         1 <0>         0.1336
     47 H13         9.8212   -1.2592    3.7700 H         1 <0>         0.1313
     48 H14         6.9584    1.9289    4.0513 H         1 <0>         0.1407
     49 H15         4.1760   -0.2070    4.1660 H         1 <0>         0.0977
     50 H16         4.6743    1.4766    3.8719 H         1 <0>         0.0973
     51 H17         2.4209    3.4405    3.0926 H         1 <0>         0.1461
     52 H18         0.0341    4.0459    2.8118 H         1 <0>         0.1455
     53 H19        -1.1637    3.1473    0.7043 H         1 <0>         0.1963
     54 H20         5.1830   -3.0413    4.6246 H         1 <0>         0.0813
     55 H21         3.9918   -3.4846    3.3785 H         1 <0>         0.0855
     56 H22         7.4276   -4.4600    4.7280 H         1 <0>         0.1732
     57 H23         6.5763   -7.1191    1.5251 H         1 <0>         0.2050
@<TRIPOS>BOND
     1    1    6 ar
     2    1    2 ar
     3    1   37 1
     4    2    3 ar
     5    2   38 1
     6    3    4 ar
     7    3   39 1
     8    4    5 ar
     9    4    7 1
    10    5    6 ar
    11    5   40 1
    12    6   41 1
    13    7    8 1
    14    7   42 1
    15    7   43 1
    16    8    9 1
    17    8   19 1
    18    8   10 1
    19   10   11 1
    20   10   44 1
    21   10   45 1
    22   11   12 1
    23   11   30 1
    24   12   17 ar
    25   12   13 ar
    26   13   14 ar
    27   13   46 1
    28   14   15 ar
    29   14   47 1
    30   15   16 ar
    31   15   28 1
    32   16   17 ar
    33   16   48 1
    34   17   18 1
    35   18   19 1
    36   18   49 1
    37   18   50 1
    38   19   20 1
    39   20   21 2
    40   20   22 2
    41   20   23 1
    42   23   27 1
    43   23   24 2
    44   24   25 1
    45   24   51 1
    46   25   26 2
    47   25   52 1
    48   26   27 1
    49   26   53 1
    50   28   29 3
    51   30   31 1
    52   30   54 1
    53   30   55 1
    54   31   36 1
    55   31   32 2
    56   32   33 1
    57   32   56 1
    58   33   34 1
    59   33   35 1
    60   35   36 2
    61   35   57 1
@<TRIPOS>MOLECULE
ZINC00602601
   57    61     0     0     0
SMALL
USER_CHARGES

@<TRIPOS>ATOM
      1 C1          1.1874   -4.2223   -1.1276 C.ar      1 <0>        -0.1192
      2 C2          0.5186   -3.3701   -0.2690 C.ar      1 <0>        -0.1169
      3 C3          1.1321   -2.2129    0.1731 C.ar      1 <0>        -0.1155
      4 C4          2.4146   -1.9082   -0.2431 C.ar      1 <0>        -0.0738
      5 C5          3.0837   -2.7608   -1.1010 C.ar      1 <0>        -0.1114
      6 C6          2.4697   -3.9173   -1.5442 C.ar      1 <0>        -0.1142
      7 C7          3.0830   -0.6461    0.2380 C.3       1 <0>        -0.1431
      8 C8          3.7263   -0.8983    1.6031 C.3       1 <0>         0.1424
      9 H1          2.9808   -1.3210    2.2766 H         1 <0>         0.0874
     10 C9          4.8669   -1.8865    1.4406 C.3       1 <0>         0.1301
     11 N1          5.4855   -2.1540    2.7484 N.pl3     1 <0>        -0.6567
     12 C10         6.4960   -1.3081    3.1828 C.ar      1 <0>         0.2250
     13 C11         7.8052   -1.7661    3.2985 C.ar      1 <0>        -0.1509
     14 C12         8.8064   -0.9011    3.6779 C.ar      1 <0>        -0.0484
     15 C13         8.5133    0.4398    3.9447 C.ar      1 <0>        -0.0422
     16 C14         7.1930    0.8944    3.8484 C.ar      1 <0>        -0.0348
     17 C15         6.1989    0.0182    3.4948 C.ar      1 <0>        -0.1370
     18 C16         4.7448    0.4511    3.5091 C.3       1 <0>         0.1727
     19 N2          4.2030    0.3747    2.1521 N.pl3     1 <0>        -0.9816
     20 S1          4.1256    1.7445    1.2248 S.o2      1 <0>         2.7187
     21 O1          4.9240    2.7223    1.8772 O.2       1 <0>        -0.9440
     22 O2          4.3611    1.3404   -0.1171 O.2       1 <0>        -0.9414
     23 C17         2.4634    2.3254    1.2914 C.2       1 <0>        -0.7728
     24 C18         1.8656    3.0959    2.2328 C.2       1 <0>        -0.0012
     25 C19         0.5344    3.4335    2.0762 C.2       1 <0>        -0.1932
     26 C20        -0.1339    2.9842    0.9859 C.2       1 <0>        -0.1337
     27 S2          1.1319    2.0585    0.1326 S.3       1 <0>         0.1730
     28 C21         9.5597    1.3444    4.3155 C.1       1 <0>         0.2516
     29 N3         10.3898    2.0619    4.6097 N.1       1 <0>        -0.4121
     30 C22         5.0457   -3.2838    3.5708 C.3       1 <0>         0.2156
     31 C23         5.8606   -4.5036    3.2258 C.2       1 <0>        -0.0477
     32 C24         5.5285   -5.4688    2.3473 C.2       1 <0>        -0.0076
     33 N4          6.5187   -6.3733    2.3306 N.2       1 <0>        -0.4930
     34 C25         7.4519   -6.0053    3.1653 C.2       1 <0>         0.1884
     35 N5          7.0834   -4.8404    3.7406 N.pl3     1 <0>        -0.5652
     36 H2          7.5897   -4.3373    4.3975 H         1 <0>         0.4173
     37 H3          0.7098   -5.1287   -1.4694 H         1 <0>         0.1210
     38 H4         -0.4834   -3.6082    0.0562 H         1 <0>         0.1208
     39 H5          0.6093   -1.5467    0.8434 H         1 <0>         0.1188
     40 H6          4.0856   -2.5226   -1.4265 H         1 <0>         0.1244
     41 H7          2.9924   -4.5833   -2.2148 H         1 <0>         0.1232
     42 H8          3.8506   -0.3467   -0.4756 H         1 <0>         0.1400
     43 H9          2.3406    0.1470    0.3272 H         1 <0>         0.0733
     44 H10         4.4829   -2.8177    1.0242 H         1 <0>         0.0964
     45 H11         5.6139   -1.4696    0.7650 H         1 <0>         0.0766
     46 H12         8.0355   -2.8006    3.0910 H         1 <0>         0.1291
     47 H13         9.8212   -1.2592    3.7700 H         1 <0>         0.1341
     48 H14         6.9584    1.9289    4.0513 H         1 <0>         0.1428
     49 H15         4.1760   -0.2070    4.1660 H         1 <0>         0.0978
     50 H16         4.6743    1.4766    3.8719 H         1 <0>         0.0986
     51 H17         2.4209    3.4405    3.0926 H         1 <0>         0.1461
     52 H18         0.0341    4.0459    2.8118 H         1 <0>         0.1460
     53 H19        -1.1637    3.1473    0.7043 H         1 <0>         0.1968
     54 H20         5.1830   -3.0413    4.6246 H         1 <0>         0.0778
     55 H21         3.9918   -3.4846    3.3785 H         1 <0>         0.1001
     56 H22         4.6234   -5.5077    1.7593 H         1 <0>         0.1658
     57 H23         8.3688   -6.5414    3.3607 H         1 <0>         0.2062
@<TRIPOS>BOND
     1    1    6 ar
     2    1    2 ar
     3    1   37 1
     4    2    3 ar
     5    2   38 1
     6    3    4 ar
     7    3   39 1
     8    4    5 ar
     9    4    7 1
    10    5    6 ar
    11    5   40 1
    12    6   41 1
    13    7    8 1
    14    7   42 1
    15    7   43 1
    16    8    9 1
    17    8   19 1
    18    8   10 1
    19   10   11 1
    20   10   44 1
    21   10   45 1
    22   11   12 1
    23   11   30 1
    24   12   17 ar
    25   12   13 ar
    26   13   14 ar
    27   13   46 1
    28   14   15 ar
    29   14   47 1
    30   15   16 ar
    31   15   28 1
    32   16   17 ar
    33   16   48 1
    34   17   18 1
    35   18   19 1
    36   18   49 1
    37   18   50 1
    38   19   20 1
    39   20   21 2
    40   20   22 2
    41   20   23 1
    42   23   27 1
    43   23   24 2
    44   24   25 1
    45   24   51 1
    46   25   26 2
    47   25   52 1
    48   26   27 1
    49   26   53 1
    50   28   29 3
    51   30   31 1
    52   30   54 1
    53   30   55 1
    54   31   35 1
    55   31   32 2
    56   32   33 1
    57   32   56 1
    58   33   34 2
    59   34   35 1
    60   34   57 1
    61   35   36 1
@<TRIPOS>MOLECULE
ZINC03925649
   58    62     0     0     0
SMALL
USER_CHARGES

@<TRIPOS>ATOM
      1 C1          5.7027    2.8089   -1.4773 C.ar      1 <0>        -0.1167
      2 C2          6.2056    1.5415   -1.7042 C.ar      1 <0>        -0.1111
      3 C3          5.5333    0.4344   -1.2213 C.ar      1 <0>        -0.1157
      4 C4          4.3583    0.5948   -0.5110 C.ar      1 <0>        -0.0791
      5 C5          3.8559    1.8623   -0.2832 C.ar      1 <0>        -0.1224
      6 C6          4.5275    2.9693   -0.7674 C.ar      1 <0>        -0.1161
      7 C7          3.6248   -0.6121    0.0147 C.3       1 <0>        -0.1515
      8 C8          4.1986   -1.0039    1.3779 C.3       1 <0>         0.1442
      9 H1          4.2046   -0.1287    2.0276 H         1 <0>         0.0762
     10 C9          5.6222   -1.4976    1.1951 C.3       1 <0>         0.1185
     11 N1          6.1954   -1.8618    2.5003 N.pl3     1 <0>        -0.6522
     12 C10         5.9831   -3.1482    2.9753 C.ar      1 <0>         0.1941
     13 C11         7.0401   -4.0463    3.0909 C.ar      1 <0>        -0.1309
     14 C12         6.8054   -5.3357    3.5115 C.ar      1 <0>        -0.0471
     15 C13         5.5058   -5.7487    3.8206 C.ar      1 <0>        -0.0218
     16 C14         4.4466   -4.8387    3.7242 C.ar      1 <0>        -0.0377
     17 C15         4.6952   -3.5492    3.3290 C.ar      1 <0>        -0.1409
     18 C16         3.5901   -2.5097    3.3409 C.3       1 <0>         0.1779
     19 N2          3.3515   -2.0403    1.9757 N.pl3     1 <0>        -0.9849
     20 S1          2.1072   -2.6871    1.0950 S.o2      1 <0>         2.7168
     21 O1          2.5223   -2.6749   -0.2640 O.2       1 <0>        -0.9339
     22 O2          1.7149   -3.8794    1.7611 O.2       1 <0>        -0.9385
     23 C17         0.7484   -1.5720    1.2164 C.2       1 <0>        -0.7763
     24 C18         0.4283   -0.5260    0.4160 C.2       1 <0>        -0.0060
     25 C19        -0.6991    0.2194    0.7057 C.2       1 <0>        -0.1936
     26 C20        -1.4514   -0.1176    1.7817 C.2       1 <0>        -0.1219
     27 S2         -0.5686   -1.5315    2.4212 S.3       1 <0>         0.1664
     28 C21         5.2593   -7.0975    4.2336 C.1       1 <0>         0.2378
     29 N3          5.0637   -8.1675    4.5613 N.1       1 <0>        -0.3915
     30 C22         6.9705   -0.8918    3.2778 C.3       1 <0>         0.1973
     31 C23         6.0466   -0.1246    4.1882 C.2       1 <0>         0.0404
     32 C24         5.4748    1.0675    3.9322 C.2       1 <0>         0.0084
     33 N4          4.7267    1.4052    4.9930 N.pl3     1 <0>        -0.4727
     34 C25         4.8132    0.4678    5.8967 C.cat     1 <0>         0.3026
     35 N5          5.6225   -0.5083    5.4318 N.pl3     1 <0>        -0.5055
     36 H2          5.8605   -1.3273    5.8938 H         1 <0>         0.4652
     37 H3          6.2304    3.6741   -1.8507 H         1 <0>         0.1243
     38 H4          7.1236    1.4162   -2.2592 H         1 <0>         0.1264
     39 H5          5.9259   -0.5559   -1.3992 H         1 <0>         0.1268
     40 H6          2.9377    1.9876    0.2714 H         1 <0>         0.1172
     41 H7          4.1347    3.9596   -0.5898 H         1 <0>         0.1225
     42 H8          2.5659   -0.3763    0.1203 H         1 <0>         0.0813
     43 H9          3.7445   -1.4419   -0.6819 H         1 <0>         0.1451
     44 H10         5.6218   -2.3711    0.5431 H         1 <0>         0.0898
     45 H11         6.2237   -0.7093    0.7426 H         1 <0>         0.1025
     46 H12         8.0447   -3.7314    2.8501 H         1 <0>         0.1408
     47 H13         7.6273   -6.0303    3.6026 H         1 <0>         0.1412
     48 H14         3.4397   -5.1502    3.9596 H         1 <0>         0.1452
     49 H15         2.6773   -2.9540    3.7377 H         1 <0>         0.1007
     50 H16         3.8881   -1.6694    3.9680 H         1 <0>         0.0728
     51 H17         1.0452   -0.2784   -0.4352 H         1 <0>         0.1521
     52 H18        -0.9763    1.0581    0.0842 H         1 <0>         0.1494
     53 H19        -2.3531    0.3462    2.1534 H         1 <0>         0.2000
     54 H20         7.7155   -1.4173    3.8753 H         1 <0>         0.1066
     55 H21         7.4704   -0.1996    2.6004 H         1 <0>         0.1238
     56 H22         5.5971    1.6495    3.0307 H         1 <0>         0.2220
     57 H23         4.3166    0.4702    6.8557 H         1 <0>         0.2653
     58 H24         4.2042    2.2183    5.0756 H         1 <0>         0.4665
@<TRIPOS>BOND
     1    1    6 ar
     2    1    2 ar
     3    1   37 1
     4    2    3 ar
     5    2   38 1
     6    3    4 ar
     7    3   39 1
     8    4    5 ar
     9    4    7 1
    10    5    6 ar
    11    5   40 1
    12    6   41 1
    13    7    8 1
    14    7   42 1
    15    7   43 1
    16    8    9 1
    17    8   19 1
    18    8   10 1
    19   10   11 1
    20   10   44 1
    21   10   45 1
    22   11   12 1
    23   11   30 1
    24   12   17 ar
    25   12   13 ar
    26   13   14 ar
    27   13   46 1
    28   14   15 ar
    29   14   47 1
    30   15   16 ar
    31   15   28 1
    32   16   17 ar
    33   16   48 1
    34   17   18 1
    35   18   19 1
    36   18   49 1
    37   18   50 1
    38   19   20 1
    39   20   21 2
    40   20   22 2
    41   20   23 1
    42   23   27 1
    43   23   24 2
    44   24   25 1
    45   24   51 1
    46   25   26 2
    47   25   52 1
    48   26   27 1
    49   26   53 1
    50   28   29 3
    51   30   31 1
    52   30   54 1
    53   30   55 1
    54   31   35 1
    55   31   32 2
    56   32   33 1
    57   32   56 1
    58   33   34 2
    59   33   58 1
    60   34   35 1
    61   34   57 1
    62   35   36 1
@<TRIPOS>MOLECULE
ZINC03925649
   58    62     0     0     0
SMALL
USER_CHARGES

@<TRIPOS>ATOM
      1 C1          5.7027    2.8089   -1.4773 C.ar      1 <0>        -0.1167
      2 C2          6.2056    1.5415   -1.7042 C.ar      1 <0>        -0.1112
      3 C3          5.5333    0.4344   -1.2213 C.ar      1 <0>        -0.1156
      4 C4          4.3583    0.5948   -0.5110 C.ar      1 <0>        -0.0792
      5 C5          3.8559    1.8623   -0.2832 C.ar      1 <0>        -0.1224
      6 C6          4.5275    2.9693   -0.7674 C.ar      1 <0>        -0.1160
      7 C7          3.6248   -0.6121    0.0147 C.3       1 <0>        -0.1516
      8 C8          4.1986   -1.0039    1.3779 C.3       1 <0>         0.1443
      9 H1          4.2046   -0.1287    2.0276 H         1 <0>         0.0760
     10 C9          5.6222   -1.4976    1.1951 C.3       1 <0>         0.1186
     11 N1          6.1954   -1.8618    2.5003 N.pl3     1 <0>        -0.6528
     12 C10         5.9831   -3.1482    2.9753 C.ar      1 <0>         0.1938
     13 C11         7.0401   -4.0463    3.0909 C.ar      1 <0>        -0.1310
     14 C12         6.8054   -5.3357    3.5115 C.ar      1 <0>        -0.0470
     15 C13         5.5058   -5.7487    3.8206 C.ar      1 <0>        -0.0218
     16 C14         4.4466   -4.8387    3.7242 C.ar      1 <0>        -0.0375
     17 C15         4.6952   -3.5492    3.3290 C.ar      1 <0>        -0.1417
     18 C16         3.5901   -2.5097    3.3409 C.3       1 <0>         0.1782
     19 N2          3.3515   -2.0403    1.9757 N.pl3     1 <0>        -0.9848
     20 S1          2.1072   -2.6871    1.0950 S.o2      1 <0>         2.7169
     21 O1          2.5223   -2.6749   -0.2640 O.2       1 <0>        -0.9338
     22 O2          1.7149   -3.8794    1.7611 O.2       1 <0>        -0.9385
     23 C17         0.7484   -1.5720    1.2164 C.2       1 <0>        -0.7764
     24 C18         0.4283   -0.5260    0.4160 C.2       1 <0>        -0.0059
     25 C19        -0.6991    0.2194    0.7057 C.2       1 <0>        -0.1936
     26 C20        -1.4514   -0.1176    1.7817 C.2       1 <0>        -0.1218
     27 S2         -0.5686   -1.5315    2.4212 S.3       1 <0>         0.1664
     28 C21         5.2593   -7.0975    4.2336 C.1       1 <0>         0.2376
     29 N3          5.0637   -8.1675    4.5613 N.1       1 <0>        -0.3914
     30 C22         6.9705   -0.8918    3.2778 C.3       1 <0>         0.1973
     31 C23         6.0466   -0.1246    4.1882 C.2       1 <0>         0.0100
     32 C24         5.4812    1.0677    3.9196 C.2       1 <0>         0.0401
     33 N4          4.7209    1.3998    5.0083 N.pl3     1 <0>        -0.5087
     34 H2          4.1899    2.2044    5.1158 H         1 <0>         0.4670
     35 C25         4.8483    0.3981    5.9050 C.cat     1 <0>         0.3035
     36 N5          5.6386   -0.5124    5.4057 N.pl3     1 <0>        -0.4701
     37 H3          6.2304    3.6741   -1.8507 H         1 <0>         0.1243
     38 H4          7.1236    1.4162   -2.2592 H         1 <0>         0.1264
     39 H5          5.9259   -0.5559   -1.3992 H         1 <0>         0.1268
     40 H6          2.9377    1.9876    0.2714 H         1 <0>         0.1173
     41 H7          4.1347    3.9596   -0.5898 H         1 <0>         0.1225
     42 H8          2.5659   -0.3763    0.1203 H         1 <0>         0.0812
     43 H9          3.7445   -1.4419   -0.6819 H         1 <0>         0.1451
     44 H10         5.6218   -2.3711    0.5431 H         1 <0>         0.0896
     45 H11         6.2237   -0.7093    0.7426 H         1 <0>         0.1024
     46 H12         8.0447   -3.7314    2.8501 H         1 <0>         0.1408
     47 H13         7.6273   -6.0303    3.6026 H         1 <0>         0.1412
     48 H14         3.4397   -5.1502    3.9596 H         1 <0>         0.1453
     49 H15         2.6773   -2.9540    3.7377 H         1 <0>         0.1009
     50 H16         3.8881   -1.6694    3.9680 H         1 <0>         0.0719
     51 H17         1.0452   -0.2784   -0.4352 H         1 <0>         0.1521
     52 H18        -0.9763    1.0581    0.0842 H         1 <0>         0.1494
     53 H19        -2.3531    0.3462    2.1534 H         1 <0>         0.2000
     54 H20         7.7155   -1.4173    3.8753 H         1 <0>         0.1057
     55 H21         7.4704   -0.1996    2.6004 H         1 <0>         0.1226
     56 H22         5.6042    1.6502    3.0185 H         1 <0>         0.2241
     57 H23         4.3718    0.3557    6.8733 H         1 <0>         0.2654
     58 H24         5.8924   -1.3385    5.8462 H         1 <0>         0.4647
@<TRIPOS>BOND
     1    1    6 ar
     2    1    2 ar
     3    1   37 1
     4    2    3 ar
     5    2   38 1
     6    3    4 ar
     7    3   39 1
     8    4    5 ar
     9    4    7 1
    10    5    6 ar
    11    5   40 1
    12    6   41 1
    13    7    8 1
    14    7   42 1
    15    7   43 1
    16    8    9 1
    17    8   19 1
    18    8   10 1
    19   10   11 1
    20   10   44 1
    21   10   45 1
    22   11   12 1
    23   11   30 1
    24   12   17 ar
    25   12   13 ar
    26   13   14 ar
    27   13   46 1
    28   14   15 ar
    29   14   47 1
    30   15   16 ar
    31   15   28 1
    32   16   17 ar
    33   16   48 1
    34   17   18 1
    35   18   19 1
    36   18   49 1
    37   18   50 1
    38   19   20 1
    39   20   21 2
    40   20   22 2
    41   20   23 1
    42   23   27 1
    43   23   24 2
    44   24   25 1
    45   24   51 1
    46   25   26 2
    47   25   52 1
    48   26   27 1
    49   26   53 1
    50   28   29 3
    51   30   31 1
    52   30   54 1
    53   30   55 1
    54   31   36 1
    55   31   32 2
    56   32   33 1
    57   32   56 1
    58   33   34 1
    59   33   35 1
    60   35   36 2
    61   35   57 1
    62   36   58 1
@<TRIPOS>MOLECULE
ZINC03925649
   57    61     0     0     0
SMALL
USER_CHARGES

@<TRIPOS>ATOM
      1 C1          5.7027    2.8089   -1.4773 C.ar      1 <0>        -0.1216
      2 C2          6.2056    1.5415   -1.7043 C.ar      1 <0>        -0.1161
      3 C3          5.5333    0.4344   -1.2213 C.ar      1 <0>        -0.1151
      4 C4          4.3583    0.5948   -0.5110 C.ar      1 <0>        -0.0688
      5 C5          3.8559    1.8623   -0.2832 C.ar      1 <0>        -0.1102
      6 C6          4.5275    2.9693   -0.7674 C.ar      1 <0>        -0.1148
      7 C7          3.6248   -0.6122    0.0147 C.3       1 <0>        -0.1469
      8 C8          4.1986   -1.0039    1.3779 C.3       1 <0>         0.1354
      9 H1          4.2046   -0.1287    2.0276 H         1 <0>         0.1055
     10 C9          5.6222   -1.4976    1.1951 C.3       1 <0>         0.1324
     11 N1          6.1954   -1.8618    2.5003 N.pl3     1 <0>        -0.6541
     12 C10         5.9831   -3.1482    2.9753 C.ar      1 <0>         0.2283
     13 C11         7.0401   -4.0463    3.0909 C.ar      1 <0>        -0.1417
     14 C12         6.8054   -5.3357    3.5115 C.ar      1 <0>        -0.0490
     15 C13         5.5057   -5.7487    3.8206 C.ar      1 <0>        -0.0471
     16 C14         4.4466   -4.8387    3.7242 C.ar      1 <0>        -0.0377
     17 C15         4.6952   -3.5492    3.3290 C.ar      1 <0>        -0.1376
     18 C16         3.5901   -2.5096    3.3409 C.3       1 <0>         0.1756
     19 N2          3.3515   -2.0403    1.9757 N.pl3     1 <0>        -0.9778
     20 S1          2.1072   -2.6871    1.0950 S.o2      1 <0>         2.7151
     21 O1          2.5223   -2.6749   -0.2640 O.2       1 <0>        -0.9412
     22 O2          1.7149   -3.8794    1.7611 O.2       1 <0>        -0.9469
     23 C17         0.7484   -1.5720    1.2164 C.2       1 <0>        -0.7642
     24 C18         0.4283   -0.5260    0.4160 C.2       1 <0>        -0.0110
     25 C19        -0.6991    0.2194    0.7057 C.2       1 <0>        -0.1900
     26 C20        -1.4514   -0.1176    1.7817 C.2       1 <0>        -0.1317
     27 S2         -0.5686   -1.5315    2.4212 S.3       1 <0>         0.1633
     28 C21         5.2593   -7.0975    4.2336 C.1       1 <0>         0.2543
     29 N3          5.0637   -8.1675    4.5613 N.1       1 <0>        -0.4179
     30 C22         6.9705   -0.8918    3.2778 C.3       1 <0>         0.2237
     31 C23         6.0466   -0.1246    4.1882 C.2       1 <0>        -0.0182
     32 C24         5.7888   -0.4116    5.4785 C.2       1 <0>        -0.0415
     33 N4          4.9030    0.5317    5.9247 N.pl3     1 <0>        -0.5698
     34 C25         4.6500    1.3628    4.8909 C.2       1 <0>         0.1819
     35 N5          5.3413    0.9671    3.8571 N.2       1 <0>        -0.4752
     36 H2          6.2304    3.6741   -1.8508 H         1 <0>         0.1191
     37 H3          7.1236    1.4161   -2.2592 H         1 <0>         0.1212
     38 H4          5.9258   -0.5559   -1.3993 H         1 <0>         0.1234
     39 H5          2.9377    1.9876    0.2714 H         1 <0>         0.1163
     40 H6          4.1347    3.9596   -0.5898 H         1 <0>         0.1190
     41 H7          2.5659   -0.3763    0.1203 H         1 <0>         0.0747
     42 H8          3.7445   -1.4419   -0.6819 H         1 <0>         0.1376
     43 H9          5.6218   -2.3711    0.5431 H         1 <0>         0.0721
     44 H10         6.2237   -0.7093    0.7426 H         1 <0>         0.0949
     45 H11         8.0447   -3.7314    2.8501 H         1 <0>         0.1364
     46 H12         7.6273   -6.0304    3.6027 H         1 <0>         0.1338
     47 H13         3.4396   -5.1502    3.9596 H         1 <0>         0.1386
     48 H14         2.6772   -2.9540    3.7377 H         1 <0>         0.0903
     49 H15         3.8881   -1.6694    3.9680 H         1 <0>         0.0951
     50 H16         1.0452   -0.2784   -0.4352 H         1 <0>         0.1521
     51 H17        -0.9763    1.0581    0.0842 H         1 <0>         0.1465
     52 H18        -2.3531    0.3462    2.1534 H         1 <0>         0.1968
     53 H19         7.7155   -1.4173    3.8753 H         1 <0>         0.0824
     54 H20         7.4704   -0.1996    2.6004 H         1 <0>         0.0850
     55 H21         6.2015   -1.2292    6.0510 H         1 <0>         0.1724
     56 H22         3.9885    2.2161    4.9165 H         1 <0>         0.2026
     57 H23         4.5271    0.5918    6.8169 H         1 <0>         0.4201
@<TRIPOS>BOND
     1    1    6 ar
     2    1    2 ar
     3    1   36 1
     4    2    3 ar
     5    2   37 1
     6    3    4 ar
     7    3   38 1
     8    4    5 ar
     9    4    7 1
    10    5    6 ar
    11    5   39 1
    12    6   40 1
    13    7    8 1
    14    7   41 1
    15    7   42 1
    16    8    9 1
    17    8   19 1
    18    8   10 1
    19   10   11 1
    20   10   43 1
    21   10   44 1
    22   11   12 1
    23   11   30 1
    24   12   17 ar
    25   12   13 ar
    26   13   14 ar
    27   13   45 1
    28   14   15 ar
    29   14   46 1
    30   15   16 ar
    31   15   28 1
    32   16   17 ar
    33   16   47 1
    34   17   18 1
    35   18   19 1
    36   18   48 1
    37   18   49 1
    38   19   20 1
    39   20   21 2
    40   20   22 2
    41   20   23 1
    42   23   27 1
    43   23   24 2
    44   24   25 1
    45   24   50 1
    46   25   26 2
    47   25   51 1
    48   26   27 1
    49   26   52 1
    50   28   29 3
    51   30   31 1
    52   30   53 1
    53   30   54 1
    54   31   35 1
    55   31   32 2
    56   32   33 1
    57   32   55 1
    58   33   34 1
    59   33   57 1
    60   34   35 2
    61   34   56 1
@<TRIPOS>MOLECULE
ZINC03925649
   57    61     0     0     0
SMALL
USER_CHARGES

@<TRIPOS>ATOM
      1 C1          5.7027    2.8089   -1.4773 C.ar      1 <0>        -0.1206
      2 C2          6.2056    1.5415   -1.7042 C.ar      1 <0>        -0.1157
      3 C3          5.5333    0.4344   -1.2213 C.ar      1 <0>        -0.1160
      4 C4          4.3583    0.5948   -0.5110 C.ar      1 <0>        -0.0734
      5 C5          3.8559    1.8623   -0.2832 C.ar      1 <0>        -0.1146
      6 C6          4.5275    2.9693   -0.7674 C.ar      1 <0>        -0.1146
      7 C7          3.6248   -0.6121    0.0147 C.3       1 <0>        -0.1482
      8 C8          4.1986   -1.0039    1.3779 C.3       1 <0>         0.1385
      9 H1          4.2046   -0.1287    2.0276 H         1 <0>         0.0923
     10 C9          5.6222   -1.4976    1.1951 C.3       1 <0>         0.1279
     11 N1          6.1954   -1.8618    2.5003 N.pl3     1 <0>        -0.6562
     12 C10         5.9831   -3.1482    2.9753 C.ar      1 <0>         0.2192
     13 C11         7.0401   -4.0463    3.0909 C.ar      1 <0>        -0.1403
     14 C12         6.8054   -5.3357    3.5115 C.ar      1 <0>        -0.0492
     15 C13         5.5058   -5.7487    3.8206 C.ar      1 <0>        -0.0422
     16 C14         4.4466   -4.8387    3.7242 C.ar      1 <0>        -0.0375
     17 C15         4.6952   -3.5492    3.3290 C.ar      1 <0>        -0.1382
     18 C16         3.5901   -2.5097    3.3409 C.3       1 <0>         0.1729
     19 N2          3.3515   -2.0403    1.9757 N.pl3     1 <0>        -0.9779
     20 S1          2.1072   -2.6871    1.0950 S.o2      1 <0>         2.7171
     21 O1          2.5223   -2.6749   -0.2640 O.2       1 <0>        -0.9410
     22 O2          1.7149   -3.8794    1.7611 O.2       1 <0>        -0.9458
     23 C17         0.7484   -1.5720    1.2164 C.2       1 <0>        -0.7683
     24 C18         0.4283   -0.5260    0.4160 C.2       1 <0>        -0.0097
     25 C19        -0.6991    0.2194    0.7057 C.2       1 <0>        -0.1912
     26 C20        -1.4514   -0.1176    1.7817 C.2       1 <0>        -0.1286
     27 S2         -0.5686   -1.5315    2.4212 S.3       1 <0>         0.1671
     28 C21         5.2593   -7.0975    4.2336 C.1       1 <0>         0.2517
     29 N3          5.0637   -8.1675    4.5613 N.1       1 <0>        -0.4128
     30 C22         6.9705   -0.8918    3.2778 C.3       1 <0>         0.2141
     31 C23         6.0466   -0.1246    4.1882 C.2       1 <0>        -0.0457
     32 C24         5.4748    1.0675    3.9322 C.2       1 <0>        -0.0096
     33 N4          4.7267    1.4052    4.9930 N.2       1 <0>        -0.4912
     34 C25         4.8132    0.4678    5.8967 C.2       1 <0>         0.1868
     35 N5          5.6225   -0.5083    5.4318 N.pl3     1 <0>        -0.5622
     36 H2          5.8605   -1.3273    5.8938 H         1 <0>         0.4183
     37 H3          6.2304    3.6741   -1.8507 H         1 <0>         0.1208
     38 H4          7.1236    1.4162   -2.2592 H         1 <0>         0.1225
     39 H5          5.9259   -0.5559   -1.3992 H         1 <0>         0.1246
     40 H6          2.9377    1.9876    0.2714 H         1 <0>         0.1188
     41 H7          4.1347    3.9596   -0.5898 H         1 <0>         0.1213
     42 H8          2.5659   -0.3763    0.1203 H         1 <0>         0.0775
     43 H9          3.7445   -1.4419   -0.6819 H         1 <0>         0.1402
     44 H10         5.6218   -2.3711    0.5431 H         1 <0>         0.0777
     45 H11         6.2237   -0.7093    0.7426 H         1 <0>         0.0967
     46 H12         8.0447   -3.7314    2.8501 H         1 <0>         0.1366
     47 H13         7.6273   -6.0303    3.6026 H         1 <0>         0.1352
     48 H14         3.4397   -5.1502    3.9596 H         1 <0>         0.1407
     49 H15         2.6773   -2.9540    3.7377 H         1 <0>         0.0934
     50 H16         3.8881   -1.6694    3.9680 H         1 <0>         0.0950
     51 H17         1.0452   -0.2784   -0.4352 H         1 <0>         0.1515
     52 H18        -0.9763    1.0581    0.0842 H         1 <0>         0.1469
     53 H19        -2.3531    0.3462    2.1534 H         1 <0>         0.1976
     54 H20         7.7155   -1.4173    3.8753 H         1 <0>         0.0793
     55 H21         7.4704   -0.1996    2.6004 H         1 <0>         0.0995
     56 H22         5.5971    1.6495    3.0307 H         1 <0>         0.1641
     57 H23         4.3166    0.4702    6.8557 H         1 <0>         0.2049
@<TRIPOS>BOND
     1    1    6 ar
     2    1    2 ar
     3    1   37 1
     4    2    3 ar
     5    2   38 1
     6    3    4 ar
     7    3   39 1
     8    4    5 ar
     9    4    7 1
    10    5    6 ar
    11    5   40 1
    12    6   41 1
    13    7    8 1
    14    7   42 1
    15    7   43 1
    16    8    9 1
    17    8   19 1
    18    8   10 1
    19   10   11 1
    20   10   44 1
    21   10   45 1
    22   11   12 1
    23   11   30 1
    24   12   17 ar
    25   12   13 ar
    26   13   14 ar
    27   13   46 1
    28   14   15 ar
    29   14   47 1
    30   15   16 ar
    31   15   28 1
    32   16   17 ar
    33   16   48 1
    34   17   18 1
    35   18   19 1
    36   18   49 1
    37   18   50 1
    38   19   20 1
    39   20   21 2
    40   20   22 2
    41   20   23 1
    42   23   27 1
    43   23   24 2
    44   24   25 1
    45   24   51 1
    46   25   26 2
    47   25   52 1
    48   26   27 1
    49   26   53 1
    50   28   29 3
    51   30   31 1
    52   30   54 1
    53   30   55 1
    54   31   35 1
    55   31   32 2
    56   32   33 1
    57   32   56 1
    58   33   34 2
    59   34   35 1
    60   34   57 1
    61   35   36 1
@<TRIPOS>MOLECULE
ZINC24809155
   56    60     0     0     0
SMALL
USER_CHARGES
6-[(R)-amino-(4-chlorophenyl)-(3-methylimidazol-4-yl)methyl]-4-(3-chlorophenyl)-1-methyl-quinolin-2-one
@<TRIPOS>ATOM
      1 C1          4.0958    4.0587    5.4913 C.3       1 <0>         0.0622
      2 N1          3.9399    5.4291    5.9851 N.pl3     1 <0>        -0.4500
      3 C2          4.8140    6.1056    6.7610 C.2       1 <0>         0.1876
      4 N2          4.3316    7.2953    6.9954 N.2       1 <0>        -0.4896
      5 C3          3.1469    7.4215    6.3792 C.2       1 <0>        -0.0049
      6 C4          2.8811    6.2631    5.7461 C.2       1 <0>        -0.0086
      7 C5          1.6564    5.9478    4.9264 C.3       1 <0>         0.2804
      8 C6          0.6824    7.0941    5.0172 C.ar      1 <0>        -0.0692
      9 C7          0.9485    8.2806    4.3595 C.ar      1 <0>        -0.0934
     10 C8          0.0528    9.3303    4.4378 C.ar      1 <0>        -0.1113
     11 C9         -1.1048    9.1974    5.1838 C.ar      1 <0>        -0.0278
     12 C10        -1.3678    8.0117    5.8464 C.ar      1 <0>        -0.1120
     13 C11        -0.4741    6.9607    5.7628 C.ar      1 <0>        -0.0777
     14 Cl1        -2.2271   10.5178    5.2879 Cl        1 <0>        -0.0683
     15 C12         2.0546    5.7396    3.4880 C.ar      1 <0>        -0.1439
     16 C13         3.0894    6.4884    2.9450 C.ar      1 <0>        -0.0472
     17 C14         3.4695    6.3133    1.6319 C.ar      1 <0>        -0.1558
     18 C15         2.8099    5.3778    0.8412 C.ar      1 <0>         0.1945
     19 C16         1.7627    4.6216    1.3961 C.ar      1 <0>        -0.1121
     20 C17         1.3939    4.8146    2.7289 C.ar      1 <0>        -0.0523
     21 C18         1.0731    3.6339    0.5505 C.2       1 <0>         0.0499
     22 C19         1.4866    3.4887   -0.7471 C.2       1 <0>        -0.1941
     23 C20         2.5376    4.2797   -1.2449 C.2       1 <0>         0.5342
     24 O1          2.8876    4.1391   -2.4044 O.2       1 <0>        -0.5306
     25 N3          3.1702    5.1824   -0.4762 N.am      1 <0>        -0.5207
     26 C21         4.2624    5.9739   -1.0478 C.3       1 <0>         0.0529
     27 C22        -0.0345    2.8143    1.0903 C.ar      1 <0>        -0.0525
     28 C23         0.1082    1.4304    1.2027 C.ar      1 <0>        -0.0918
     29 C24        -0.9275    0.6715    1.7070 C.ar      1 <0>        -0.1016
     30 C25        -2.1084    1.2784    2.0963 C.ar      1 <0>        -0.0987
     31 C26        -2.2549    2.6512    1.9925 C.ar      1 <0>        -0.0325
     32 C27        -1.2254    3.4218    1.4892 C.ar      1 <0>        -0.0917
     33 Cl2        -3.7381    3.4044    2.4892 Cl        1 <0>        -0.0577
     34 N4          1.0240    4.7259    5.4412 N.3       1 <0>        -0.8117
     35 H1          5.0501    3.6459    5.8504 H         1 <0>         0.0971
     36 H2          4.0886    4.0623    4.3913 H         1 <0>         0.0794
     37 H3          3.2658    3.4390    5.8614 H         1 <0>         0.0842
     38 H4          5.7563    5.7252    7.1267 H         1 <0>         0.2057
     39 H5          2.5155    8.2977    6.3911 H         1 <0>         0.1665
     40 H6          1.8542    8.3857    3.7808 H         1 <0>         0.1301
     41 H7          0.2586   10.2557    3.9203 H         1 <0>         0.1347
     42 H8         -2.2711    7.9076    6.4292 H         1 <0>         0.1350
     43 H9         -0.6791    6.0352    6.2803 H         1 <0>         0.1462
     44 H10         3.6020    7.2152    3.5577 H         1 <0>         0.1345
     45 H11         4.2759    6.9006    1.2180 H         1 <0>         0.1395
     46 H12         0.5897    4.2356    3.1583 H         1 <0>         0.1337
     47 H13         1.0020    2.7689   -1.3901 H         1 <0>         0.1587
     48 H14         4.4111    5.6878   -2.0995 H         1 <0>         0.1068
     49 H15         5.1868    5.7853   -0.4823 H         1 <0>         0.0780
     50 H16         4.0093    7.0429   -0.9908 H         1 <0>         0.0788
     51 H17         1.0279    0.9547    0.8957 H         1 <0>         0.1342
     52 H18        -0.8180   -0.3994    1.7939 H         1 <0>         0.1394
     53 H19        -2.9177    0.6791    2.4866 H         1 <0>         0.1384
     54 H20        -1.3416    4.4923    1.4050 H         1 <0>         0.1372
     55 H21         0.1301    4.4957    4.8429 H         1 <0>         0.3476
     56 H22         1.7350    3.8892    5.3749 H         1 <0>         0.3401
@<TRIPOS>BOND
     1    1    2 1
     2    1   35 1
     3    1   36 1
     4    1   37 1
     5    2    6 1
     6    2    3 1
     7    3    4 2
     8    3   38 1
     9    4    5 1
    10    5    6 2
    11    5   39 1
    12    6    7 1
    13    7    8 1
    14    7   15 1
    15    7   34 1
    16    8   13 ar
    17    8    9 ar
    18    9   10 ar
    19    9   40 1
    20   10   11 ar
    21   10   41 1
    22   11   12 ar
    23   11   14 1
    24   12   13 ar
    25   12   42 1
    26   13   43 1
    27   15   20 ar
    28   15   16 ar
    29   16   17 ar
    30   16   44 1
    31   17   18 ar
    32   17   45 1
    33   18   25 1
    34   18   19 ar
    35   19   20 ar
    36   19   21 1
    37   20   46 1
    38   21   22 2
    39   21   27 1
    40   22   23 1
    41   22   47 1
    42   23   24 2
    43   23   25 am
    44   25   26 1
    45   26   48 1
    46   26   49 1
    47   26   50 1
    48   27   32 ar
    49   27   28 ar
    50   28   29 ar
    51   28   51 1
    52   29   30 ar
    53   29   52 1
    54   30   31 ar
    55   30   53 1
    56   31   32 ar
    57   31   33 1
    58   32   54 1
    59   34   55 1
    60   34   56 1
@<TRIPOS>MOLECULE
ZINC24809155
   57    61     0     0     0
SMALL
USER_CHARGES
6-[(R)-amino-(4-chlorophenyl)-(3-methylimidazol-4-yl)methyl]-4-(3-chlorophenyl)-1-methyl-quinolin-2-one
@<TRIPOS>ATOM
      1 C1          4.0958    4.0587    5.4913 C.3       1 <0>         0.0431
      2 N1          3.9399    5.4291    5.9851 N.pl3     1 <0>        -0.4008
      3 C2          4.8140    6.1056    6.7610 C.cat     1 <0>         0.2791
      4 N2          4.3316    7.2953    6.9954 N.pl3     1 <0>        -0.4888
      5 C3          3.1469    7.4215    6.3792 C.2       1 <0>         0.0261
      6 C4          2.8811    6.2631    5.7461 C.2       1 <0>         0.0710
      7 C5          1.6564    5.9478    4.9264 C.3       1 <0>         0.2787
      8 C6          0.6824    7.0941    5.0172 C.ar      1 <0>        -0.0982
      9 C7          0.9485    8.2806    4.3595 C.ar      1 <0>        -0.0994
     10 C8          0.0528    9.3303    4.4378 C.ar      1 <0>        -0.1092
     11 C9         -1.1048    9.1974    5.1838 C.ar      1 <0>        -0.0198
     12 C10        -1.3678    8.0117    5.8464 C.ar      1 <0>        -0.1079
     13 C11        -0.4741    6.9607    5.7628 C.ar      1 <0>        -0.0717
     14 Cl1        -2.2271   10.5178    5.2879 Cl        1 <0>        -0.0511
     15 C12         2.0546    5.7396    3.4880 C.ar      1 <0>        -0.1672
     16 C13         3.0894    6.4884    2.9450 C.ar      1 <0>        -0.0635
     17 C14         3.4695    6.3133    1.6319 C.ar      1 <0>        -0.1494
     18 C15         2.8099    5.3778    0.8412 C.ar      1 <0>         0.2044
     19 C16         1.7627    4.6216    1.3961 C.ar      1 <0>        -0.1037
     20 C17         1.3939    4.8146    2.7289 C.ar      1 <0>        -0.0413
     21 C18         1.0731    3.6339    0.5505 C.2       1 <0>         0.0420
     22 C19         1.4866    3.4887   -0.7471 C.2       1 <0>        -0.1803
     23 C20         2.5376    4.2797   -1.2449 C.2       1 <0>         0.5323
     24 O1          2.8876    4.1391   -2.4044 O.2       1 <0>        -0.5147
     25 N3          3.1702    5.1824   -0.4762 N.am      1 <0>        -0.5221
     26 C21         4.2624    5.9739   -1.0478 C.3       1 <0>         0.0504
     27 C22        -0.0345    2.8143    1.0903 C.ar      1 <0>        -0.0580
     28 C23         0.1082    1.4304    1.2027 C.ar      1 <0>        -0.0913
     29 C24        -0.9275    0.6715    1.7070 C.ar      1 <0>        -0.0996
     30 C25        -2.1084    1.2784    2.0963 C.ar      1 <0>        -0.0954
     31 C26        -2.2549    2.6512    1.9925 C.ar      1 <0>        -0.0334
     32 C27        -1.2254    3.4218    1.4892 C.ar      1 <0>        -0.0940
     33 Cl2        -3.7381    3.4044    2.4892 Cl        1 <0>        -0.0542
     34 N4          1.0240    4.7259    5.4412 N.3       1 <0>        -0.8135
     35 H1          5.0501    3.6459    5.8504 H         1 <0>         0.1240
     36 H2          4.0886    4.0623    4.3913 H         1 <0>         0.1124
     37 H3          3.2658    3.4390    5.8614 H         1 <0>         0.1159
     38 H4          5.7563    5.7252    7.1267 H         1 <0>         0.2604
     39 H5          2.5155    8.2977    6.3911 H         1 <0>         0.2175
     40 H6          1.8542    8.3857    3.7808 H         1 <0>         0.1316
     41 H7          0.2586   10.2557    3.9203 H         1 <0>         0.1399
     42 H8         -2.2711    7.9076    6.4292 H         1 <0>         0.1414
     43 H9         -0.6791    6.0352    6.2803 H         1 <0>         0.1498
     44 H10         3.6020    7.2152    3.5577 H         1 <0>         0.1253
     45 H11         4.2759    6.9006    1.2180 H         1 <0>         0.1429
     46 H12         0.5897    4.2356    3.1583 H         1 <0>         0.1371
     47 H13         1.0020    2.7689   -1.3901 H         1 <0>         0.1633
     48 H14         4.4111    5.6878   -2.0995 H         1 <0>         0.1106
     49 H15         5.1868    5.7853   -0.4823 H         1 <0>         0.0792
     50 H16         4.0093    7.0429   -0.9908 H         1 <0>         0.0806
     51 H17         1.0279    0.9547    0.8957 H         1 <0>         0.1349
     52 H18        -0.8180   -0.3994    1.7939 H         1 <0>         0.1415
     53 H19        -2.9177    0.6791    2.4866 H         1 <0>         0.1406
     54 H20        -1.3416    4.4923    1.4050 H         1 <0>         0.1363
     55 H21         0.1301    4.4957    4.8429 H         1 <0>         0.3696
     56 H22         1.7350    3.8892    5.3749 H         1 <0>         0.3422
     57 H23         4.8965    8.0051    7.6175 H         1 <0>         0.5045
@<TRIPOS>BOND
     1    1    2 1
     2    1   35 1
     3    1   36 1
     4    1   37 1
     5    2    6 1
     6    2    3 1
     7    3    4 2
     8    3   38 1
     9    4    5 1
    10    4   57 1
    11    5    6 2
    12    5   39 1
    13    6    7 1
    14    7    8 1
    15    7   15 1
    16    7   34 1
    17    8   13 ar
    18    8    9 ar
    19    9   10 ar
    20    9   40 1
    21   10   11 ar
    22   10   41 1
    23   11   12 ar
    24   11   14 1
    25   12   13 ar
    26   12   42 1
    27   13   43 1
    28   15   20 ar
    29   15   16 ar
    30   16   17 ar
    31   16   44 1
    32   17   18 ar
    33   17   45 1
    34   18   25 1
    35   18   19 ar
    36   19   20 ar
    37   19   21 1
    38   20   46 1
    39   21   22 2
    40   21   27 1
    41   22   23 1
    42   22   47 1
    43   23   24 2
    44   23   25 am
    45   25   26 1
    46   26   48 1
    47   26   49 1
    48   26   50 1
    49   27   32 ar
    50   27   28 ar
    51   28   29 ar
    52   28   51 1
    53   29   30 ar
    54   29   52 1
    55   30   31 ar
    56   30   53 1
    57   31   32 ar
    58   31   33 1
    59   32   54 1
    60   34   55 1
    61   34   56 1
