@<TRIPOS>MOLECULE
ZINC00538564
   43    44     0     0     0
SMALL
USER_CHARGES

@<TRIPOS>ATOM
      1 C1         -0.0322    1.5192    0.0160 C.3       1 <0>        -0.1779
      2 C2          0.0002   -0.0104    0.0036 C.3       1 <0>         0.1420
      3 C3          0.7455   -0.5148    1.2410 C.3       1 <0>        -0.6421
      4 S1         -0.0184    0.1804    2.7322 S.o2      1 <0>         2.5137
      5 O1          0.1999    1.5835    2.7852 O.2       1 <0>        -0.9239
      6 O2         -1.3216   -0.3572    2.9106 O.2       1 <0>        -0.9142
      7 C4          0.9243   -0.4722    4.0702 C.ar      1 <0>        -0.6815
      8 C5          0.5593   -1.6720    4.6517 C.ar      1 <0>         0.0062
      9 C6          1.2981   -2.1851    5.7009 C.ar      1 <0>        -0.1741
     10 C7          2.4044   -1.4968    6.1695 C.ar      1 <0>         0.1596
     11 C8          2.7690   -0.2952    5.5863 C.ar      1 <0>        -0.1736
     12 C9          2.0317    0.2133    4.5338 C.ar      1 <0>         0.0076
     13 F1          3.1271   -1.9972    7.1954 F         1 <0>        -0.1262
     14 C10         0.7078   -0.4878   -1.2383 C.2       1 <0>         0.5031
     15 O3          1.8909   -0.7516   -1.1987 O.2       1 <0>        -0.4976
     16 N1          0.0259   -0.6217   -2.3931 N.am      1 <0>        -0.6619
     17 C11         0.6990   -0.9709   -3.5645 C.ar      1 <0>         0.1712
     18 C12         1.7763   -1.8495   -3.5101 C.ar      1 <0>        -0.0928
     19 C13         2.4429   -2.1963   -4.6638 C.ar      1 <0>        -0.0476
     20 C14         2.0360   -1.6643   -5.8909 C.ar      1 <0>         0.0129
     21 C15         0.9534   -0.7820   -5.9416 C.ar      1 <0>        -0.1193
     22 C16         0.2878   -0.4441   -4.7842 C.ar      1 <0>        -0.0947
     23 C17         0.5109   -0.2059   -7.2620 C.3       1 <0>         0.5059
     24 F2         -0.5824    0.6427   -7.0576 F         1 <0>        -0.1694
     25 F3          1.5637    0.5187   -7.8309 F         1 <0>        -0.1688
     26 F4          0.1405   -1.2443   -8.1232 F         1 <0>        -0.1690
     27 C18         2.7271   -2.0223   -7.0929 C.1       1 <0>         0.2298
     28 N2          3.2753   -2.3063   -8.0464 N.1       1 <0>        -0.3736
     29 O4         -1.3366   -0.5153    0.0141 O.3       1 <0>        -0.5355
     30 H1          0.9874    1.9043    0.0081 H         1 <0>         0.0978
     31 H2         -0.5632    1.8785   -0.8655 H         1 <0>         0.0902
     32 H3         -0.5440    1.8645    0.9143 H         1 <0>         0.0988
     33 H4          0.6922   -1.6028    1.2789 H         1 <0>         0.1462
     34 H5          1.7889   -0.2038    1.1885 H         1 <0>         0.1617
     35 H6         -0.3039   -2.2085    4.2862 H         1 <0>         0.1539
     36 H7          1.0126   -3.1223    6.1552 H         1 <0>         0.1495
     37 H8          3.6315    0.2427    5.9513 H         1 <0>         0.1498
     38 H9          2.3185    1.1484    4.0758 H         1 <0>         0.1549
     39 H10        -0.9329   -0.4753   -2.4099 H         1 <0>         0.4261
     40 H11         2.0903   -2.2598   -2.5617 H         1 <0>         0.1599
     41 H12         3.2793   -2.8781   -4.6208 H         1 <0>         0.1529
     42 H13        -0.5516    0.2343   -4.8232 H         1 <0>         0.1566
     43 H14        -1.3925   -1.4807    0.0071 H         1 <0>         0.3933
@<TRIPOS>BOND
     1    1    2 1
     2    1   30 1
     3    1   31 1
     4    1   32 1
     5    2    3 1
     6    2   14 1
     7    2   29 1
     8    3    4 1
     9    3   33 1
    10    3   34 1
    11    4    5 2
    12    4    6 2
    13    4    7 1
    14    7   12 ar
    15    7    8 ar
    16    8    9 ar
    17    8   35 1
    18    9   10 ar
    19    9   36 1
    20   10   11 ar
    21   10   13 1
    22   11   12 ar
    23   11   37 1
    24   12   38 1
    25   14   15 2
    26   14   16 am
    27   16   17 1
    28   16   39 1
    29   17   22 ar
    30   17   18 ar
    31   18   19 ar
    32   18   40 1
    33   19   20 ar
    34   19   41 1
    35   20   21 ar
    36   20   27 1
    37   21   22 ar
    38   21   23 1
    39   22   42 1
    40   23   24 1
    41   23   25 1
    42   23   26 1
    43   27   28 3
    44   29   43 1
@<TRIPOS>MOLECULE
ZINC00897408
   43    44     0     0     0
SMALL
USER_CHARGES

@<TRIPOS>ATOM
      1 C1         -0.0295    1.5317    0.0187 C.3       1 <0>        -0.1782
      2 C2         -0.0000    0.0020    0.0023 C.3       1 <0>         0.1414
      3 C3          0.7447   -0.5070    1.2381 C.3       1 <0>        -0.6415
      4 S1          2.3930    0.2476    1.3042 S.o2      1 <0>         2.5138
      5 O1          3.1950   -0.2340    0.2346 O.2       1 <0>        -0.9142
      6 O2          2.2833    1.6417    1.5566 O.2       1 <0>        -0.9241
      7 C4          3.1366   -0.4153    2.7576 C.ar      1 <0>        -0.6816
      8 C5          2.9811    0.2315    3.9695 C.ar      1 <0>         0.0075
      9 C6          3.5634   -0.2877    5.1102 C.ar      1 <0>        -0.1737
     10 C7          4.3028   -1.4562    5.0389 C.ar      1 <0>         0.1596
     11 C8          4.4578   -2.1031    3.8246 C.ar      1 <0>        -0.1740
     12 C9          3.8702   -1.5848    2.6862 C.ar      1 <0>         0.0064
     13 F1          4.8729   -1.9645    6.1533 F         1 <0>        -0.1262
     14 C10        -1.4108   -0.5278    0.0124 C.2       1 <0>         0.5030
     15 O3         -1.9347   -0.8376    1.0614 O.2       1 <0>        -0.4978
     16 N1         -2.0902   -0.6573   -1.1443 N.am      1 <0>        -0.6615
     17 C11        -3.3595   -1.2371   -1.1468 C.ar      1 <0>         0.1705
     18 C12        -4.2221   -1.0235   -0.0763 C.ar      1 <0>        -0.0923
     19 C13        -5.4751   -1.5939   -0.0753 C.ar      1 <0>        -0.0476
     20 C14        -5.8803   -2.3886   -1.1517 C.ar      1 <0>         0.0129
     21 C15        -5.0111   -2.6010   -2.2252 C.ar      1 <0>        -0.1198
     22 C16        -3.7613   -2.0225   -2.2220 C.ar      1 <0>        -0.0951
     23 C17        -5.4433   -3.4568   -3.3879 C.3       1 <0>         0.5058
     24 F2         -4.4107   -3.5200   -4.3297 F         1 <0>        -0.1695
     25 F3         -5.7393   -4.7463   -2.9331 F         1 <0>        -0.1691
     26 F4         -6.5812   -2.8986   -3.9803 F         1 <0>        -0.1688
     27 C18        -7.1826   -2.9840   -1.1540 C.1       1 <0>         0.2297
     28 N2         -8.2158   -3.4563   -1.1558 N.1       1 <0>        -0.3735
     29 O4          0.6697   -0.4489   -1.1767 O.3       1 <0>        -0.5352
     30 H1          0.9909    1.9149    0.0114 H         1 <0>         0.0988
     31 H2         -0.5601    1.8943   -0.8617 H         1 <0>         0.0900
     32 H3         -0.5404    1.8756    0.9181 H         1 <0>         0.0980
     33 H4          0.1862   -0.2389    2.1350 H         1 <0>         0.1615
     34 H5          0.8434   -1.5910    1.1820 H         1 <0>         0.1460
     35 H6          2.4046    1.1431    4.0248 H         1 <0>         0.1548
     36 H7          3.4421    0.2179    6.0568 H         1 <0>         0.1498
     37 H8          5.0346   -3.0144    3.7678 H         1 <0>         0.1496
     38 H9          3.9873   -2.0916    1.7397 H         1 <0>         0.1540
     39 H10        -1.6970   -0.3474   -1.9751 H         1 <0>         0.4262
     40 H11        -3.9082   -0.4097    0.7550 H         1 <0>         0.1609
     41 H12        -6.1441   -1.4279    0.7561 H         1 <0>         0.1532
     42 H13        -3.0908   -2.1826   -3.0533 H         1 <0>         0.1566
     43 H14         0.7258   -1.4112   -1.2536 H         1 <0>         0.3937
@<TRIPOS>BOND
     1    1    2 1
     2    1   30 1
     3    1   31 1
     4    1   32 1
     5    2    3 1
     6    2   14 1
     7    2   29 1
     8    3    4 1
     9    3   33 1
    10    3   34 1
    11    4    5 2
    12    4    6 2
    13    4    7 1
    14    7   12 ar
    15    7    8 ar
    16    8    9 ar
    17    8   35 1
    18    9   10 ar
    19    9   36 1
    20   10   11 ar
    21   10   13 1
    22   11   12 ar
    23   11   37 1
    24   12   38 1
    25   14   15 2
    26   14   16 am
    27   16   17 1
    28   16   39 1
    29   17   22 ar
    30   17   18 ar
    31   18   19 ar
    32   18   40 1
    33   19   20 ar
    34   19   41 1
    35   20   21 ar
    36   20   27 1
    37   21   22 ar
    38   21   23 1
    39   22   42 1
    40   23   24 1
    41   23   25 1
    42   23   26 1
    43   27   28 3
    44   29   43 1
@<TRIPOS>MOLECULE
ZINC26393493
   61    66     0     0     0
SMALL
USER_CHARGES
(3S,8R,9S,10R,13S,14R)-17-(benzimidazol-1-yl)-10,13-dimethyl-2,3,4,7,8,9,11,12,14,15-decahydro-1H-cyclopenta[a]phenanthren-3-ol
@<TRIPOS>ATOM
      1 C1         -6.6929    8.0969   -3.6538 C.3       1 <0>        -0.1518
      2 C2         -6.7323    8.5288   -2.1866 C.3       1 <0>        -0.0134
      3 C3         -8.1787    8.4174   -1.6964 C.3       1 <0>        -0.1031
      4 C4         -9.0581    9.3902   -2.4846 C.3       1 <0>        -0.1156
      5 C5         -8.6028   10.8266   -2.2212 C.3       1 <0>         0.1198
      6 H1         -8.6716   11.0765   -1.1522 H         1 <0>         0.0493
      7 C6         -7.1764   11.0141   -2.7465 C.3       1 <0>        -0.1159
      8 C7         -6.2884    9.9592   -2.1082 C.2       1 <0>        -0.1015
      9 C8         -5.1931   10.3467   -1.5239 C.2       1 <0>        -0.1576
     10 C9         -4.2481    9.3991   -0.8456 C.3       1 <0>        -0.0839
     11 C10        -4.3806    8.0088   -1.4798 C.3       1 <0>        -0.0754
     12 H2         -4.0776    8.0061   -2.5372 H         1 <0>         0.0739
     13 C11        -5.8441    7.5888   -1.3854 C.3       1 <0>        -0.0692
     14 H3         -6.1573    7.6269   -0.3316 H         1 <0>         0.0743
     15 C12        -5.9804    6.1754   -1.9666 C.3       1 <0>        -0.1143
     16 C13        -5.1645    5.2063   -1.1267 C.3       1 <0>        -0.1080
     17 C14        -3.6758    5.5608   -1.1456 C.3       1 <0>        -0.0112
     18 C15        -3.4554    7.0421   -0.7921 C.3       1 <0>        -0.0791
     19 H4         -2.4934    7.4425   -1.1445 H         1 <0>         0.0821
     20 C16        -3.6455    7.0007    0.7384 C.3       1 <0>        -0.0804
     21 C17        -3.0508    5.6498    1.1047 C.2       1 <0>        -0.1245
     22 C18        -3.0531    4.8494    0.0550 C.2       1 <0>         0.0536
     23 N1         -2.5641    3.5434    0.0447 N.pl3     1 <0>        -0.4356
     24 C19        -3.3083    2.4014    0.0467 C.2       1 <0>         0.2692
     25 N2         -2.5283    1.3602    0.0341 N.2       1 <0>        -0.4920
     26 C20        -1.2304    1.7603    0.0174 C.ar      1 <0>         0.0447
     27 C21        -1.2338    3.1657    0.0299 C.ar      1 <0>         0.0545
     28 C22        -0.0335    3.8611    0.0217 C.ar      1 <0>        -0.1082
     29 C23         1.1597    3.1700    0.0071 C.ar      1 <0>        -0.1008
     30 C24         1.1686    1.7826    0.0005 C.ar      1 <0>        -0.1277
     31 C25        -0.0126    1.0758    0.0080 C.ar      1 <0>        -0.0645
     32 C26        -2.9995    5.1760   -2.4629 C.3       1 <0>        -0.1361
     33 O1         -9.4801   11.7347   -2.8902 O.3       1 <0>        -0.6028
     34 H5         -7.0153    7.0484   -3.7361 H         1 <0>         0.0660
     35 H6         -5.6669    8.1963   -4.0378 H         1 <0>         0.0547
     36 H7         -7.3682    8.7355   -4.2422 H         1 <0>         0.0581
     37 H8         -8.5394    7.3895   -1.8491 H         1 <0>         0.0739
     38 H9         -8.2233    8.6664   -0.6259 H         1 <0>         0.0646
     39 H10        -8.9736    9.1723   -3.5595 H         1 <0>         0.0746
     40 H11       -10.1055    9.2761   -2.1686 H         1 <0>         0.0696
     41 H12        -7.1705   10.8995   -3.8405 H         1 <0>         0.0796
     42 H13        -6.8171   12.0194   -2.4813 H         1 <0>         0.0681
     43 H14        -4.9236   11.4131   -1.5121 H         1 <0>         0.1061
     44 H15        -3.2165    9.7614   -0.9657 H         1 <0>         0.0705
     45 H16        -4.4936    9.3400    0.2250 H         1 <0>         0.0779
     46 H17        -7.0382    5.8740   -1.9534 H         1 <0>         0.0689
     47 H18        -5.6098    6.1675   -3.0023 H         1 <0>         0.0735
     48 H19        -5.5161    5.2382   -0.0849 H         1 <0>         0.0668
     49 H20        -5.2840    4.1871   -1.5229 H         1 <0>         0.0639
     50 H21        -3.1079    7.8434    1.1976 H         1 <0>         0.0824
     51 H22        -4.7167    7.0754    0.9770 H         1 <0>         0.0932
     52 H23        -2.6521    5.2945    2.0664 H         1 <0>         0.1339
     53 H24        -4.3877    2.3661    0.0572 H         1 <0>         0.2107
     54 H25        -0.0335    4.9411    0.0271 H         1 <0>         0.1199
     55 H26         2.0936    3.7123    0.0011 H         1 <0>         0.1302
     56 H27         2.1097    1.2529   -0.0110 H         1 <0>         0.1307
     57 H28         0.0021   -0.0041    0.0020 H         1 <0>         0.1303
     58 H29        -1.9354    5.4517   -2.4229 H         1 <0>         0.0570
     59 H30        -3.4853    5.7086   -3.2937 H         1 <0>         0.0645
     60 H31        -3.0916    4.0910   -2.6191 H         1 <0>         0.0554
     61 H32        -9.3102   12.8190   -2.8160 H         1 <0>         0.4060
@<TRIPOS>BOND
     1    1    2 1
     2    1   34 1
     3    1   35 1
     4    1   36 1
     5    2    8 1
     6    2   13 1
     7    2    3 1
     8    3    4 1
     9    3   37 1
    10    3   38 1
    11    4    5 1
    12    4   39 1
    13    4   40 1
    14    5    6 1
    15    5    7 1
    16    5   33 1
    17    7    8 1
    18    7   41 1
    19    7   42 1
    20    8    9 2
    21    9   10 1
    22    9   43 1
    23   10   11 1
    24   10   44 1
    25   10   45 1
    26   11   12 1
    27   11   18 1
    28   11   13 1
    29   13   14 1
    30   13   15 1
    31   15   16 1
    32   15   46 1
    33   15   47 1
    34   16   17 1
    35   16   48 1
    36   16   49 1
    37   17   22 1
    38   17   18 1
    39   17   32 1
    40   18   19 1
    41   18   20 1
    42   20   21 1
    43   20   50 1
    44   20   51 1
    45   21   22 2
    46   21   52 1
    47   22   23 1
    48   23   27 1
    49   23   24 1
    50   24   25 2
    51   24   53 1
    52   25   26 1
    53   26   31 ar
    54   26   27 ar
    55   27   28 ar
    56   28   29 ar
    57   28   54 1
    58   29   30 ar
    59   29   55 1
    60   30   31 ar
    61   30   56 1
    62   31   57 1
    63   32   58 1
    64   32   59 1
    65   32   60 1
    66   33   61 1
@<TRIPOS>MOLECULE
ZINC26393493
   62    67     0     0     0
SMALL
USER_CHARGES
(3S,8R,9S,10R,13S,14R)-17-(benzimidazol-1-yl)-10,13-dimethyl-2,3,4,7,8,9,11,12,14,15-decahydro-1H-cyclopenta[a]phenanthren-3-ol
@<TRIPOS>ATOM
      1 C1         -6.6929    8.0969   -3.6538 C.3       1 <0>        -0.1531
      2 C2         -6.7323    8.5288   -2.1866 C.3       1 <0>        -0.0138
      3 C3         -8.1787    8.4174   -1.6964 C.3       1 <0>        -0.1025
      4 C4         -9.0581    9.3902   -2.4846 C.3       1 <0>        -0.1175
      5 C5         -8.6028   10.8266   -2.2212 C.3       1 <0>         0.1197
      6 H1         -8.6716   11.0765   -1.1522 H         1 <0>         0.0498
      7 C6         -7.1764   11.0141   -2.7465 C.3       1 <0>        -0.1185
      8 C7         -6.2884    9.9592   -2.1082 C.2       1 <0>        -0.0980
      9 C8         -5.1931   10.3467   -1.5239 C.2       1 <0>        -0.1616
     10 C9         -4.2481    9.3991   -0.8456 C.3       1 <0>        -0.0832
     11 C10        -4.3806    8.0088   -1.4798 C.3       1 <0>        -0.0774
     12 H2         -4.0776    8.0061   -2.5372 H         1 <0>         0.0778
     13 C11        -5.8441    7.5888   -1.3854 C.3       1 <0>        -0.0700
     14 H3         -6.1573    7.6269   -0.3316 H         1 <0>         0.0757
     15 C12        -5.9804    6.1754   -1.9666 C.3       1 <0>        -0.1174
     16 C13        -5.1645    5.2063   -1.1267 C.3       1 <0>        -0.1103
     17 C14        -3.6758    5.5608   -1.1456 C.3       1 <0>        -0.0027
     18 C15        -3.4554    7.0421   -0.7921 C.3       1 <0>        -0.0804
     19 H4         -2.4934    7.4425   -1.1445 H         1 <0>         0.0910
     20 C16        -3.6455    7.0007    0.7384 C.3       1 <0>        -0.0939
     21 C17        -3.0508    5.6498    1.1047 C.2       1 <0>        -0.0582
     22 C18        -3.0531    4.8494    0.0550 C.2       1 <0>        -0.0094
     23 N1         -2.5641    3.5434    0.0447 N.pl3     1 <0>        -0.3647
     24 C19        -3.3083    2.4014    0.0467 C.cat     1 <0>         0.3623
     25 N2         -2.5283    1.3602    0.0341 N.pl3     1 <0>        -0.5041
     26 C20        -1.2304    1.7603    0.0174 C.ar      1 <0>         0.0560
     27 C21        -1.2338    3.1657    0.0299 C.ar      1 <0>         0.0787
     28 C22        -0.0335    3.8611    0.0217 C.ar      1 <0>        -0.0854
     29 C23         1.1597    3.1700    0.0071 C.ar      1 <0>        -0.0680
     30 C24         1.1686    1.7826    0.0005 C.ar      1 <0>        -0.0794
     31 C25        -0.0126    1.0758    0.0080 C.ar      1 <0>        -0.0780
     32 C26        -2.9995    5.1760   -2.4629 C.3       1 <0>        -0.1423
     33 O1         -9.4801   11.7347   -2.8902 O.3       1 <0>        -0.6022
     34 H5         -7.0153    7.0484   -3.7361 H         1 <0>         0.0648
     35 H6         -5.6669    8.1963   -4.0378 H         1 <0>         0.0545
     36 H7         -7.3682    8.7355   -4.2422 H         1 <0>         0.0620
     37 H8         -8.5394    7.3895   -1.8491 H         1 <0>         0.0727
     38 H9         -8.2233    8.6664   -0.6259 H         1 <0>         0.0651
     39 H10        -8.9736    9.1723   -3.5595 H         1 <0>         0.0752
     40 H11       -10.1055    9.2761   -2.1686 H         1 <0>         0.0717
     41 H12        -7.1705   10.8995   -3.8405 H         1 <0>         0.0811
     42 H13        -6.8171   12.0194   -2.4813 H         1 <0>         0.0704
     43 H14        -4.9236   11.4131   -1.5121 H         1 <0>         0.1092
     44 H15        -3.2165    9.7614   -0.9657 H         1 <0>         0.0725
     45 H16        -4.4936    9.3400    0.2250 H         1 <0>         0.0778
     46 H17        -7.0382    5.8740   -1.9534 H         1 <0>         0.0744
     47 H18        -5.6098    6.1675   -3.0023 H         1 <0>         0.0768
     48 H19        -5.5161    5.2382   -0.0849 H         1 <0>         0.0700
     49 H20        -5.2840    4.1871   -1.5229 H         1 <0>         0.0611
     50 H21        -3.1079    7.8434    1.1976 H         1 <0>         0.0982
     51 H22        -4.7167    7.0754    0.9770 H         1 <0>         0.1084
     52 H23        -2.6521    5.2945    2.0664 H         1 <0>         0.1432
     53 H24        -4.3877    2.3661    0.0572 H         1 <0>         0.2599
     54 H25        -0.0335    4.9411    0.0271 H         1 <0>         0.1482
     55 H26         2.0936    3.7123    0.0011 H         1 <0>         0.1558
     56 H27         2.1097    1.2529   -0.0110 H         1 <0>         0.1563
     57 H28         0.0021   -0.0041    0.0020 H         1 <0>         0.1527
     58 H29        -1.9354    5.4517   -2.4229 H         1 <0>         0.0621
     59 H30        -3.4853    5.7086   -3.2937 H         1 <0>         0.0764
     60 H31        -3.0916    4.0910   -2.6191 H         1 <0>         0.0502
     61 H32        -9.3102   12.8190   -2.8160 H         1 <0>         0.4092
     62 H33        -2.9609    0.3488    0.0379 H         1 <0>         0.5008
@<TRIPOS>BOND
     1    1    2 1
     2    1   34 1
     3    1   35 1
     4    1   36 1
     5    2    8 1
     6    2   13 1
     7    2    3 1
     8    3    4 1
     9    3   37 1
    10    3   38 1
    11    4    5 1
    12    4   39 1
    13    4   40 1
    14    5    6 1
    15    5    7 1
    16    5   33 1
    17    7    8 1
    18    7   41 1
    19    7   42 1
    20    8    9 2
    21    9   10 1
    22    9   43 1
    23   10   11 1
    24   10   44 1
    25   10   45 1
    26   11   12 1
    27   11   18 1
    28   11   13 1
    29   13   14 1
    30   13   15 1
    31   15   16 1
    32   15   46 1
    33   15   47 1
    34   16   17 1
    35   16   48 1
    36   16   49 1
    37   17   22 1
    38   17   18 1
    39   17   32 1
    40   18   19 1
    41   18   20 1
    42   20   21 1
    43   20   50 1
    44   20   51 1
    45   21   22 2
    46   21   52 1
    47   22   23 1
    48   23   27 1
    49   23   24 1
    50   24   25 2
    51   24   53 1
    52   25   26 1
    53   25   62 1
    54   26   31 ar
    55   26   27 ar
    56   27   28 ar
    57   28   29 ar
    58   28   54 1
    59   29   30 ar
    60   29   55 1
    61   30   31 ar
    62   30   56 1
    63   31   57 1
    64   32   58 1
    65   32   59 1
    66   32   60 1
    67   33   61 1
@<TRIPOS>MOLECULE
ZINC26393497
   61    66     0     0     0
SMALL
USER_CHARGES
(3S,8S,9S,10R,13S,14R)-17-(benzimidazol-1-yl)-10,13-dimethyl-2,3,4,7,8,9,11,12,14,15-decahydro-1H-cyclopenta[a]phenanthren-3-ol
@<TRIPOS>ATOM
      1 C1          6.6458    5.8142   -3.3658 C.3       1 <0>        -0.1515
      2 C2          6.9153    6.7747   -2.2118 C.3       1 <0>        -0.0049
      3 C3          7.0321    8.1917   -2.7971 C.3       1 <0>        -0.1052
      4 C4          8.2119    8.2864   -3.7587 C.3       1 <0>        -0.1152
      5 C5          9.5226    7.9591   -3.0477 C.3       1 <0>         0.1196
      6 H1          9.7247    8.6815   -2.2432 H         1 <0>         0.0488
      7 C6          9.4726    6.5301   -2.5064 C.3       1 <0>        -0.1157
      8 C7          8.2483    6.4124   -1.6152 C.2       1 <0>        -0.1023
      9 C8          8.4185    6.0342   -0.3853 C.2       1 <0>        -0.1546
     10 C9          7.3044    5.9406    0.6136 C.3       1 <0>        -0.0876
     11 C10         5.9688    5.7329   -0.0857 C.3       1 <0>        -0.0756
     12 H2          5.1699    5.9022    0.6513 H         1 <0>         0.0683
     13 C11         5.7884    6.7429   -1.2049 C.3       1 <0>        -0.0622
     14 H3          5.8551    7.7421   -0.7498 H         1 <0>         0.0627
     15 C12         4.4068    6.6083   -1.8240 C.3       1 <0>        -0.0994
     16 C13         3.9761    5.1940   -2.1371 C.3       1 <0>        -0.1145
     17 C14         4.4193    4.1092   -1.2025 C.3       1 <0>        -0.0172
     18 C15         5.8260    4.3007   -0.5997 C.3       1 <0>        -0.0704
     19 H4          6.6579    4.1067   -1.2928 H         1 <0>         0.1070
     20 C16         5.6883    3.3869    0.6568 C.3       1 <0>        -0.0898
     21 C17         4.2245    3.5156    1.0291 C.2       1 <0>        -0.1254
     22 C18         3.5167    3.9239   -0.0100 C.2       1 <0>         0.0617
     23 N1          2.1391    4.1381    0.0039 N.pl3     1 <0>        -0.4345
     24 C19         1.5088    5.3467    0.0164 C.2       1 <0>         0.2710
     25 N2          0.2189    5.1775    0.0278 N.2       1 <0>        -0.4916
     26 C20        -0.0690    3.8501    0.0234 C.ar      1 <0>         0.0452
     27 C21         1.1574    3.1639    0.0080 C.ar      1 <0>         0.0529
     28 C22         1.1749    1.7768    0.0004 C.ar      1 <0>        -0.1082
     29 C23        -0.0126    1.0758    0.0080 C.ar      1 <0>        -0.1007
     30 C24        -1.2260    1.7484    0.0174 C.ar      1 <0>        -0.1273
     31 C25        -1.2627    3.1243    0.0313 C.ar      1 <0>        -0.0644
     32 C26         4.4266    2.7839   -1.9860 C.3       1 <0>        -0.1460
     33 O1         10.6086    8.0786   -3.9718 O.3       1 <0>        -0.6029
     34 H5          5.6750    6.0546   -3.8238 H         1 <0>         0.0626
     35 H6          6.6268    4.7818   -2.9867 H         1 <0>         0.0592
     36 H7          7.4413    5.9137   -4.1190 H         1 <0>         0.0580
     37 H8          6.1098    8.4402   -3.3427 H         1 <0>         0.0724
     38 H9          7.1814    8.9143   -1.9813 H         1 <0>         0.0636
     39 H10         8.0701    7.5734   -4.5843 H         1 <0>         0.0730
     40 H11         8.2745    9.3076   -4.1628 H         1 <0>         0.0693
     41 H12         9.4027    5.8224   -3.3456 H         1 <0>         0.0797
     42 H13        10.3858    6.3247   -1.9286 H         1 <0>         0.0683
     43 H14         9.4223    5.7615   -0.0277 H         1 <0>         0.1051
     44 H15         7.4874    5.0915    1.2885 H         1 <0>         0.0754
     45 H16         7.2576    6.8707    1.1990 H         1 <0>         0.0745
     46 H17         3.6545    7.0190   -1.1345 H         1 <0>         0.0570
     47 H18         4.3750    7.1624   -2.7737 H         1 <0>         0.0701
     48 H19         2.8775    5.1384   -2.1446 H         1 <0>         0.0596
     49 H20         4.3647    4.9023   -3.1240 H         1 <0>         0.0709
     50 H21         5.9638    2.3554    0.3920 H         1 <0>         0.0868
     51 H22         6.3560    3.7524    1.4509 H         1 <0>         0.0866
     52 H23         3.7276    3.3221    1.9912 H         1 <0>         0.1334
     53 H24         2.0074    6.3047    0.0173 H         1 <0>         0.2094
     54 H25         2.1161    1.2473   -0.0111 H         1 <0>         0.1198
     55 H26         0.0021   -0.0041    0.0020 H         1 <0>         0.1303
     56 H27        -2.1492    1.1878    0.0184 H         1 <0>         0.1308
     57 H28        -2.2110    3.6410    0.0435 H         1 <0>         0.1304
     58 H29         4.7490    1.9677   -1.3228 H         1 <0>         0.0594
     59 H30         5.1222    2.8634   -2.8345 H         1 <0>         0.0639
     60 H31         3.4139    2.5738   -2.3605 H         1 <0>         0.0543
     61 H32        11.6381    7.8799   -3.6393 H         1 <0>         0.4061
@<TRIPOS>BOND
     1    1    2 1
     2    1   34 1
     3    1   35 1
     4    1   36 1
     5    2    8 1
     6    2   13 1
     7    2    3 1
     8    3    4 1
     9    3   37 1
    10    3   38 1
    11    4    5 1
    12    4   39 1
    13    4   40 1
    14    5    6 1
    15    5    7 1
    16    5   33 1
    17    7    8 1
    18    7   41 1
    19    7   42 1
    20    8    9 2
    21    9   10 1
    22    9   43 1
    23   10   11 1
    24   10   44 1
    25   10   45 1
    26   11   12 1
    27   11   18 1
    28   11   13 1
    29   13   14 1
    30   13   15 1
    31   15   16 1
    32   15   46 1
    33   15   47 1
    34   16   17 1
    35   16   48 1
    36   16   49 1
    37   17   22 1
    38   17   18 1
    39   17   32 1
    40   18   19 1
    41   18   20 1
    42   20   21 1
    43   20   50 1
    44   20   51 1
    45   21   22 2
    46   21   52 1
    47   22   23 1
    48   23   27 1
    49   23   24 1
    50   24   25 2
    51   24   53 1
    52   25   26 1
    53   26   31 ar
    54   26   27 ar
    55   27   28 ar
    56   28   29 ar
    57   28   54 1
    58   29   30 ar
    59   29   55 1
    60   30   31 ar
    61   30   56 1
    62   31   57 1
    63   32   58 1
    64   32   59 1
    65   32   60 1
    66   33   61 1
@<TRIPOS>MOLECULE
ZINC26393497
   62    67     0     0     0
SMALL
USER_CHARGES
(3S,8S,9S,10R,13S,14R)-17-(benzimidazol-1-yl)-10,13-dimethyl-2,3,4,7,8,9,11,12,14,15-decahydro-1H-cyclopenta[a]phenanthren-3-ol
@<TRIPOS>ATOM
      1 C1          6.6458    5.8142   -3.3658 C.3       1 <0>        -0.1528
      2 C2          6.9153    6.7747   -2.2118 C.3       1 <0>        -0.0064
      3 C3          7.0321    8.1917   -2.7971 C.3       1 <0>        -0.1047
      4 C4          8.2119    8.2864   -3.7587 C.3       1 <0>        -0.1173
      5 C5          9.5226    7.9591   -3.0477 C.3       1 <0>         0.1192
      6 H1          9.7247    8.6815   -2.2432 H         1 <0>         0.0496
      7 C6          9.4726    6.5301   -2.5064 C.3       1 <0>        -0.1183
      8 C7          8.2483    6.4124   -1.6152 C.2       1 <0>        -0.0995
      9 C8          8.4185    6.0342   -0.3853 C.2       1 <0>        -0.1586
     10 C9          7.3044    5.9406    0.6136 C.3       1 <0>        -0.0881
     11 C10         5.9688    5.7329   -0.0857 C.3       1 <0>        -0.0743
     12 H2          5.1699    5.9022    0.6513 H         1 <0>         0.0639
     13 C11         5.7884    6.7429   -1.2049 C.3       1 <0>        -0.0658
     14 H3          5.8551    7.7421   -0.7498 H         1 <0>         0.0689
     15 C12         4.4068    6.6083   -1.8240 C.3       1 <0>        -0.0990
     16 C13         3.9761    5.1940   -2.1371 C.3       1 <0>        -0.1174
     17 C14         4.4193    4.1092   -1.2025 C.3       1 <0>        -0.0105
     18 C15         5.8260    4.3007   -0.5997 C.3       1 <0>        -0.0709
     19 H4          6.6579    4.1067   -1.2928 H         1 <0>         0.1184
     20 C16         5.6883    3.3869    0.6568 C.3       1 <0>        -0.1035
     21 C17         4.2245    3.5156    1.0291 C.2       1 <0>        -0.0584
     22 C18         3.5167    3.9239   -0.0100 C.2       1 <0>        -0.0006
     23 N1          2.1391    4.1381    0.0039 N.pl3     1 <0>        -0.3635
     24 C19         1.5088    5.3467    0.0164 C.cat     1 <0>         0.3623
     25 N2          0.2189    5.1775    0.0278 N.pl3     1 <0>        -0.5036
     26 C20        -0.0690    3.8501    0.0234 C.ar      1 <0>         0.0563
     27 C21         1.1574    3.1639    0.0080 C.ar      1 <0>         0.0776
     28 C22         1.1749    1.7768    0.0004 C.ar      1 <0>        -0.0856
     29 C23        -0.0126    1.0758    0.0080 C.ar      1 <0>        -0.0675
     30 C24        -1.2260    1.7484    0.0174 C.ar      1 <0>        -0.0792
     31 C25        -1.2627    3.1243    0.0313 C.ar      1 <0>        -0.0776
     32 C26         4.4266    2.7839   -1.9860 C.3       1 <0>        -0.1520
     33 O1         10.6086    8.0786   -3.9718 O.3       1 <0>        -0.6021
     34 H5          5.6750    6.0546   -3.8238 H         1 <0>         0.0609
     35 H6          6.6268    4.7818   -2.9867 H         1 <0>         0.0577
     36 H7          7.4413    5.9137   -4.1190 H         1 <0>         0.0634
     37 H8          6.1098    8.4402   -3.3427 H         1 <0>         0.0713
     38 H9          7.1814    8.9143   -1.9813 H         1 <0>         0.0649
     39 H10         8.0701    7.5734   -4.5843 H         1 <0>         0.0736
     40 H11         8.2745    9.3076   -4.1628 H         1 <0>         0.0721
     41 H12         9.4027    5.8224   -3.3456 H         1 <0>         0.0810
     42 H13        10.3858    6.3247   -1.9286 H         1 <0>         0.0711
     43 H14         9.4223    5.7615   -0.0277 H         1 <0>         0.1091
     44 H15         7.4874    5.0915    1.2885 H         1 <0>         0.0766
     45 H16         7.2576    6.8707    1.1990 H         1 <0>         0.0777
     46 H17         3.6545    7.0190   -1.1345 H         1 <0>         0.0493
     47 H18         4.3750    7.1624   -2.7737 H         1 <0>         0.0776
     48 H19         2.8775    5.1384   -2.1446 H         1 <0>         0.0473
     49 H20         4.3647    4.9023   -3.1240 H         1 <0>         0.0840
     50 H21         5.9638    2.3554    0.3920 H         1 <0>         0.1038
     51 H22         6.3560    3.7524    1.4509 H         1 <0>         0.1017
     52 H23         3.7276    3.3221    1.9912 H         1 <0>         0.1432
     53 H24         2.0074    6.3047    0.0173 H         1 <0>         0.2579
     54 H25         2.1161    1.2473   -0.0111 H         1 <0>         0.1481
     55 H26         0.0021   -0.0041    0.0020 H         1 <0>         0.1561
     56 H27        -2.1492    1.1878    0.0184 H         1 <0>         0.1566
     57 H28        -2.2110    3.6410    0.0435 H         1 <0>         0.1529
     58 H29         4.7490    1.9677   -1.3228 H         1 <0>         0.0648
     59 H30         5.1222    2.8634   -2.8345 H         1 <0>         0.0738
     60 H31         3.4139    2.5738   -2.3605 H         1 <0>         0.0539
     61 H32        11.6381    7.8799   -3.6393 H         1 <0>         0.4098
     62 H33        -0.4502    6.0505    0.0389 H         1 <0>         0.5009
@<TRIPOS>BOND
     1    1    2 1
     2    1   34 1
     3    1   35 1
     4    1   36 1
     5    2    8 1
     6    2   13 1
     7    2    3 1
     8    3    4 1
     9    3   37 1
    10    3   38 1
    11    4    5 1
    12    4   39 1
    13    4   40 1
    14    5    6 1
    15    5    7 1
    16    5   33 1
    17    7    8 1
    18    7   41 1
    19    7   42 1
    20    8    9 2
    21    9   10 1
    22    9   43 1
    23   10   11 1
    24   10   44 1
    25   10   45 1
    26   11   12 1
    27   11   18 1
    28   11   13 1
    29   13   14 1
    30   13   15 1
    31   15   16 1
    32   15   46 1
    33   15   47 1
    34   16   17 1
    35   16   48 1
    36   16   49 1
    37   17   22 1
    38   17   18 1
    39   17   32 1
    40   18   19 1
    41   18   20 1
    42   20   21 1
    43   20   50 1
    44   20   51 1
    45   21   22 2
    46   21   52 1
    47   22   23 1
    48   23   27 1
    49   23   24 1
    50   24   25 2
    51   24   53 1
    52   25   26 1
    53   25   62 1
    54   26   31 ar
    55   26   27 ar
    56   27   28 ar
    57   28   29 ar
    58   28   54 1
    59   29   30 ar
    60   29   55 1
    61   30   31 ar
    62   30   56 1
    63   31   57 1
    64   32   58 1
    65   32   59 1
    66   32   60 1
    67   33   61 1
@<TRIPOS>MOLECULE
ZINC26393498
   61    66     0     0     0
SMALL
USER_CHARGES
(3S,8R,9R,10R,13S,14R)-17-(benzimidazol-1-yl)-10,13-dimethyl-2,3,4,7,8,9,11,12,14,15-decahydro-1H-cyclopenta[a]phenanthren-3-ol
@<TRIPOS>ATOM
      1 C1          3.5034    2.7912    3.9630 C.3       1 <0>        -0.1469
      2 C2          2.3553    1.7869    3.8442 C.3       1 <0>        -0.0130
      3 C3          1.4357    1.9622    5.0564 C.3       1 <0>        -0.1068
      4 C4          2.2059    1.6188    6.3328 C.3       1 <0>        -0.1157
      5 C5          2.6312    0.1500    6.2999 C.3       1 <0>         0.1199
      6 H1          1.7587   -0.5158    6.2263 H         1 <0>         0.0496
      7 C6          3.6027   -0.0736    5.1371 C.3       1 <0>        -0.1161
      8 C7          2.9354    0.4025    3.8578 C.2       1 <0>        -0.0991
      9 C8          2.8975   -0.4112    2.8437 C.2       1 <0>        -0.1632
     10 C9          2.2553   -0.0593    1.5325 C.3       1 <0>        -0.1038
     11 C10         2.2780    1.4631    1.3595 C.3       1 <0>        -0.0782
     12 H2          3.3110    1.8362    1.2992 H         1 <0>         0.0763
     13 C11         1.5943    2.0976    2.5664 C.3       1 <0>        -0.0682
     14 H3          1.5818    3.1907    2.4436 H         1 <0>         0.0753
     15 C12         0.1667    1.5468    2.6636 C.3       1 <0>        -0.1182
     16 C13        -0.6015    1.9914    1.4192 C.3       1 <0>        -0.1062
     17 C14         0.0543    1.4933    0.1554 C.3       1 <0>        -0.0201
     18 C15         1.5549    1.8347    0.0631 C.3       1 <0>        -0.0770
     19 H4          1.7686    2.8952   -0.1359 H         1 <0>         0.1034
     20 C16         1.9717    0.7576   -0.9897 C.3       1 <0>        -0.0841
     21 C17         1.0793   -0.4208   -0.6429 C.2       1 <0>        -0.1160
     22 C18         0.0021   -0.0041    0.0020 C.2       1 <0>         0.0571
     23 N1         -1.0245   -0.8250    0.4676 N.pl3     1 <0>        -0.4324
     24 C19        -0.9926   -1.6044    1.5855 C.2       1 <0>         0.2662
     25 N2         -2.1222   -2.2354    1.7222 N.2       1 <0>        -0.4890
     26 C20        -2.9536   -1.9136    0.6976 C.ar      1 <0>         0.0444
     27 C21        -2.2626   -1.0047   -0.1220 C.ar      1 <0>         0.0571
     28 C22        -2.8721   -0.4965   -1.2598 C.ar      1 <0>        -0.1106
     29 C23        -4.1547   -0.8861   -1.5831 C.ar      1 <0>        -0.1008
     30 C24        -4.8412   -1.7830   -0.7774 C.ar      1 <0>        -0.1276
     31 C25        -4.2526   -2.2973    0.3556 C.ar      1 <0>        -0.0642
     32 C26        -0.6631    2.1293   -1.0370 C.3       1 <0>        -0.1507
     33 O1          3.2749   -0.1873    7.5302 O.3       1 <0>        -0.6028
     34 H5          3.0983    3.8138    3.9549 H         1 <0>         0.0578
     35 H6          4.1920    2.6628    3.1149 H         1 <0>         0.0555
     36 H7          4.0453    2.6189    4.9046 H         1 <0>         0.0605
     37 H8          1.0892    3.0050    5.1060 H         1 <0>         0.0725
     38 H9          0.5689    1.2920    4.9590 H         1 <0>         0.0713
     39 H10         3.1001    2.2555    6.4040 H         1 <0>         0.0734
     40 H11         1.5619    1.7921    7.2075 H         1 <0>         0.0694
     41 H12         4.5258    0.4975    5.3155 H         1 <0>         0.0791
     42 H13         3.8430   -1.1443    5.0607 H         1 <0>         0.0679
     43 H14         3.3498   -1.4107    2.9234 H         1 <0>         0.1042
     44 H15         2.8128   -0.5345    0.7119 H         1 <0>         0.0785
     45 H16         1.2155   -0.4183    1.5254 H         1 <0>         0.0866
     46 H17         0.2002    0.4485    2.7153 H         1 <0>         0.0654
     47 H18        -0.3179    1.9418    3.5686 H         1 <0>         0.0714
     48 H19        -1.6262    1.5933    1.4592 H         1 <0>         0.0596
     49 H20        -0.6362    3.0903    1.3828 H         1 <0>         0.0689
     50 H21         1.7871    1.1444   -2.0028 H         1 <0>         0.0876
     51 H22         3.0410    0.5268   -0.8746 H         1 <0>         0.0847
     52 H23         1.2161   -1.4924   -0.8501 H         1 <0>         0.1368
     53 H24        -0.1533   -1.6844    2.2604 H         1 <0>         0.2079
     54 H25        -2.3432    0.2023   -1.8910 H         1 <0>         0.1228
     55 H26        -4.6282   -0.4901   -2.4693 H         1 <0>         0.1300
     56 H27        -5.8454   -2.0804   -1.0415 H         1 <0>         0.1305
     57 H28        -4.7933   -2.9948    0.9781 H         1 <0>         0.1300
     58 H29        -0.2009    1.7798   -1.9720 H         1 <0>         0.0602
     59 H30        -0.5796    3.2243   -0.9736 H         1 <0>         0.0639
     60 H31        -1.7246    1.8410   -1.0226 H         1 <0>         0.0593
     61 H32         3.6519   -1.2080    7.6919 H         1 <0>         0.4058
@<TRIPOS>BOND
     1    1    2 1
     2    1   34 1
     3    1   35 1
     4    1   36 1
     5    2    8 1
     6    2   13 1
     7    2    3 1
     8    3    4 1
     9    3   37 1
    10    3   38 1
    11    4    5 1
    12    4   39 1
    13    4   40 1
    14    5    6 1
    15    5    7 1
    16    5   33 1
    17    7    8 1
    18    7   41 1
    19    7   42 1
    20    8    9 2
    21    9   10 1
    22    9   43 1
    23   10   11 1
    24   10   44 1
    25   10   45 1
    26   11   12 1
    27   11   18 1
    28   11   13 1
    29   13   14 1
    30   13   15 1
    31   15   16 1
    32   15   46 1
    33   15   47 1
    34   16   17 1
    35   16   48 1
    36   16   49 1
    37   17   22 1
    38   17   18 1
    39   17   32 1
    40   18   19 1
    41   18   20 1
    42   20   21 1
    43   20   50 1
    44   20   51 1
    45   21   22 2
    46   21   52 1
    47   22   23 1
    48   23   27 1
    49   23   24 1
    50   24   25 2
    51   24   53 1
    52   25   26 1
    53   26   31 ar
    54   26   27 ar
    55   27   28 ar
    56   28   29 ar
    57   28   54 1
    58   29   30 ar
    59   29   55 1
    60   30   31 ar
    61   30   56 1
    62   31   57 1
    63   32   58 1
    64   32   59 1
    65   32   60 1
    66   33   61 1
@<TRIPOS>MOLECULE
ZINC26393498
   62    67     0     0     0
SMALL
USER_CHARGES
(3S,8R,9R,10R,13S,14R)-17-(benzimidazol-1-yl)-10,13-dimethyl-2,3,4,7,8,9,11,12,14,15-decahydro-1H-cyclopenta[a]phenanthren-3-ol
@<TRIPOS>ATOM
      1 C1          3.5034    2.7912    3.9630 C.3       1 <0>        -0.1508
      2 C2          2.3553    1.7869    3.8442 C.3       1 <0>        -0.0172
      3 C3          1.4357    1.9622    5.0564 C.3       1 <0>        -0.1041
      4 C4          2.2059    1.6188    6.3328 C.3       1 <0>        -0.1208
      5 C5          2.6312    0.1500    6.2999 C.3       1 <0>         0.1229
      6 H1          1.7587   -0.5158    6.2263 H         1 <0>         0.0453
      7 C6          3.6027   -0.0736    5.1371 C.3       1 <0>        -0.1223
      8 C7          2.9354    0.4025    3.8578 C.2       1 <0>        -0.0819
      9 C8          2.8975   -0.4112    2.8437 C.2       1 <0>        -0.1810
     10 C9          2.2553   -0.0593    1.5325 C.3       1 <0>        -0.0964
     11 C10         2.2780    1.4631    1.3595 C.3       1 <0>        -0.0839
     12 H2          3.3110    1.8362    1.2992 H         1 <0>         0.0859
     13 C11         1.5943    2.0976    2.5664 C.3       1 <0>        -0.0694
     14 H3          1.5818    3.1907    2.4436 H         1 <0>         0.0827
     15 C12         0.1667    1.5468    2.6636 C.3       1 <0>        -0.1173
     16 C13        -0.6015    1.9914    1.4192 C.3       1 <0>        -0.1124
     17 C14         0.0543    1.4933    0.1554 C.3       1 <0>        -0.0105
     18 C15         1.5549    1.8347    0.0631 C.3       1 <0>        -0.0742
     19 H4          1.7686    2.8952   -0.1359 H         1 <0>         0.1150
     20 C16         1.9717    0.7576   -0.9897 C.3       1 <0>        -0.0975
     21 C17         1.0793   -0.4208   -0.6429 C.2       1 <0>        -0.0502
     22 C18         0.0021   -0.0041    0.0020 C.2       1 <0>        -0.0062
     23 N1         -1.0245   -0.8250    0.4676 N.pl3     1 <0>        -0.3598
     24 C19        -0.9926   -1.6044    1.5855 C.cat     1 <0>         0.3544
     25 N2         -2.1222   -2.2354    1.7222 N.pl3     1 <0>        -0.5015
     26 C20        -2.9536   -1.9136    0.6976 C.ar      1 <0>         0.0562
     27 C21        -2.2626   -1.0047   -0.1220 C.ar      1 <0>         0.0821
     28 C22        -2.8721   -0.4965   -1.2598 C.ar      1 <0>        -0.0877
     29 C23        -4.1547   -0.8861   -1.5831 C.ar      1 <0>        -0.0678
     30 C24        -4.8412   -1.7830   -0.7774 C.ar      1 <0>        -0.0790
     31 C25        -4.2526   -2.2973    0.3556 C.ar      1 <0>        -0.0778
     32 C26        -0.6631    2.1293   -1.0370 C.3       1 <0>        -0.1565
     33 O1          3.2749   -0.1873    7.5302 O.3       1 <0>        -0.6003
     34 H5          3.0983    3.8138    3.9549 H         1 <0>         0.0618
     35 H6          4.1920    2.6628    3.1149 H         1 <0>         0.0577
     36 H7          4.0453    2.6189    4.9046 H         1 <0>         0.0642
     37 H8          1.0892    3.0050    5.1060 H         1 <0>         0.0756
     38 H9          0.5689    1.2920    4.9590 H         1 <0>         0.0663
     39 H10         3.1001    2.2555    6.4040 H         1 <0>         0.0773
     40 H11         1.5619    1.7921    7.2075 H         1 <0>         0.0726
     41 H12         4.5258    0.4975    5.3155 H         1 <0>         0.0848
     42 H13         3.8430   -1.1443    5.0607 H         1 <0>         0.0701
     43 H14         3.3498   -1.4107    2.9234 H         1 <0>         0.1073
     44 H15         2.8128   -0.5345    0.7119 H         1 <0>         0.0813
     45 H16         1.2155   -0.4183    1.5254 H         1 <0>         0.0661
     46 H17         0.2002    0.4485    2.7153 H         1 <0>         0.0530
     47 H18        -0.3179    1.9418    3.5686 H         1 <0>         0.0783
     48 H19        -1.6262    1.5933    1.4592 H         1 <0>         0.0554
     49 H20        -0.6362    3.0903    1.3828 H         1 <0>         0.0819
     50 H21         1.7871    1.1444   -2.0028 H         1 <0>         0.1036
     51 H22         3.0410    0.5268   -0.8746 H         1 <0>         0.0995
     52 H23         1.2161   -1.4924   -0.8501 H         1 <0>         0.1458
     53 H24        -0.1533   -1.6844    2.2604 H         1 <0>         0.2564
     54 H25        -2.3432    0.2023   -1.8910 H         1 <0>         0.1506
     55 H26        -4.6282   -0.4901   -2.4693 H         1 <0>         0.1560
     56 H27        -5.8454   -2.0804   -1.0415 H         1 <0>         0.1565
     57 H28        -4.7933   -2.9948    0.9781 H         1 <0>         0.1527
     58 H29        -0.2009    1.7798   -1.9720 H         1 <0>         0.0659
     59 H30        -0.5796    3.2243   -0.9736 H         1 <0>         0.0748
     60 H31        -1.7246    1.8410   -1.0226 H         1 <0>         0.0572
     61 H32         3.6519   -1.2080    7.6919 H         1 <0>         0.4090
     62 H33        -2.2766   -2.9074    2.5793 H         1 <0>         0.5005
@<TRIPOS>BOND
     1    1    2 1
     2    1   34 1
     3    1   35 1
     4    1   36 1
     5    2    8 1
     6    2   13 1
     7    2    3 1
     8    3    4 1
     9    3   37 1
    10    3   38 1
    11    4    5 1
    12    4   39 1
    13    4   40 1
    14    5    6 1
    15    5    7 1
    16    5   33 1
    17    7    8 1
    18    7   41 1
    19    7   42 1
    20    8    9 2
    21    9   10 1
    22    9   43 1
    23   10   11 1
    24   10   44 1
    25   10   45 1
    26   11   12 1
    27   11   18 1
    28   11   13 1
    29   13   14 1
    30   13   15 1
    31   15   16 1
    32   15   46 1
    33   15   47 1
    34   16   17 1
    35   16   48 1
    36   16   49 1
    37   17   22 1
    38   17   18 1
    39   17   32 1
    40   18   19 1
    41   18   20 1
    42   20   21 1
    43   20   50 1
    44   20   51 1
    45   21   22 2
    46   21   52 1
    47   22   23 1
    48   23   27 1
    49   23   24 1
    50   24   25 2
    51   24   53 1
    52   25   26 1
    53   25   62 1
    54   26   31 ar
    55   26   27 ar
    56   27   28 ar
    57   28   29 ar
    58   28   54 1
    59   29   30 ar
    60   29   55 1
    61   30   31 ar
    62   30   56 1
    63   31   57 1
    64   32   58 1
    65   32   59 1
    66   32   60 1
    67   33   61 1
@<TRIPOS>MOLECULE
ZINC26393502
   61    66     0     0     0
SMALL
USER_CHARGES
(3S,8S,9R,10R,13S,14R)-17-(benzimidazol-1-yl)-10,13-dimethyl-2,3,4,7,8,9,11,12,14,15-decahydro-1H-cyclopenta[a]phenanthren-3-ol
@<TRIPOS>ATOM
      1 C1         -0.4836   -0.4564    1.8046 C.3       1 <0>        -0.2798
      2 C2         -0.0750    1.0179    1.8229 C.3       1 <0>        -0.0020
      3 C3          1.4052    1.1116    1.4573 C.3       1 <0>        -0.0939
      4 C4          2.2634    1.0324    2.7188 C.3       1 <0>        -0.1126
      5 C5          1.6348    0.1020    3.7542 C.3       1 <0>         0.1059
      6 H1          2.3577   -0.1596    4.5409 H         1 <0>         0.0599
      7 C6          0.3794    0.7625    4.3413 C.3       1 <0>        -0.1161
      8 C7         -0.2746    1.5480    3.2160 C.2       1 <0>        -0.0916
      9 C8         -0.9324    2.6294    3.4886 C.2       1 <0>        -0.1687
     10 C9         -1.5604    3.5046    2.4469 C.3       1 <0>        -0.0814
     11 C10        -0.9003    3.2574    1.0822 C.3       1 <0>        -0.0818
     12 H2          0.1485    3.5882    1.0586 H         1 <0>         0.0729
     13 C11        -0.9280    1.7559    0.7994 C.3       1 <0>        -0.0679
     14 H3         -1.9665    1.3982    0.8595 H         1 <0>         0.0685
     15 C12        -0.3315    1.5012   -0.5924 C.3       1 <0>        -0.1113
     16 C13        -1.2062    2.1881   -1.6378 C.3       1 <0>        -0.1060
     17 C14        -1.2654    3.6769   -1.3990 C.3       1 <0>        -0.0208
     18 C15        -1.6898    4.0457    0.0336 C.3       1 <0>        -0.0772
     19 H4         -2.7553    3.8662    0.2397 H         1 <0>         0.1008
     20 C16        -1.1243    5.5026    0.0734 C.3       1 <0>        -0.0835
     21 C17         0.1397    5.3992   -0.7614 C.2       1 <0>        -0.1263
     22 C18         0.0581    4.3699   -1.5887 C.2       1 <0>         0.0664
     23 N1          1.0451    3.9862   -2.4960 N.pl3     1 <0>        -0.4330
     24 C19         2.1992    3.3228   -2.2027 C.2       1 <0>         0.2696
     25 N2          2.8873    3.1225   -3.2886 N.2       1 <0>        -0.4901
     26 C20         2.2289    3.6513   -4.3522 C.ar      1 <0>         0.0448
     27 C21         1.0381    4.2129   -3.8603 C.ar      1 <0>         0.0564
     28 C22         0.1534    4.8326   -4.7308 C.ar      1 <0>        -0.1112
     29 C23         0.4461    4.8953   -6.0768 C.ar      1 <0>        -0.1013
     30 C24         1.6204    4.3430   -6.5675 C.ar      1 <0>        -0.1279
     31 C25         2.5100    3.7242   -5.7188 C.ar      1 <0>        -0.0643
     32 C26        -2.2680    4.2911   -2.3780 C.3       1 <0>        -0.1508
     33 O1          1.2758   -1.1322    3.1297 O.3       1 <0>        -0.5378
     34 H5         -0.3444   -0.8629    0.7920 H         1 <0>         0.0350
     35 H6         -1.5409   -0.5475    2.0942 H         1 <0>         0.0237
     36 H7          0.1408   -1.0187    2.5145 H         1 <0>         0.1996
     37 H8          1.6707    0.2806    0.7873 H         1 <0>         0.0678
     38 H9          1.5976    2.0681    0.9492 H         1 <0>         0.0551
     39 H10         3.2610    0.6478    2.4600 H         1 <0>         0.0668
     40 H11         2.3602    2.0354    3.1600 H         1 <0>         0.0739
     41 H12        -0.3007   -0.0147    4.7201 H         1 <0>         0.0792
     42 H13         0.6682    1.4307    5.1660 H         1 <0>         0.0764
     43 H14        -1.0545    2.9502    4.5337 H         1 <0>         0.1012
     44 H15        -2.6341    3.2766    2.3752 H         1 <0>         0.0712
     45 H16        -1.4276    4.5602    2.7263 H         1 <0>         0.0697
     46 H17         0.6889    1.9099   -0.6344 H         1 <0>         0.0636
     47 H18        -0.3011    0.4188   -0.7858 H         1 <0>         0.0652
     48 H19        -0.7900    2.0077   -2.6399 H         1 <0>         0.0585
     49 H20        -2.2270    1.7816   -1.5862 H         1 <0>         0.0671
     50 H21        -1.8621    6.1942   -0.3594 H         1 <0>         0.0879
     51 H22        -0.9210    5.7887    1.1159 H         1 <0>         0.0836
     52 H23         1.0403    6.0307   -0.7564 H         1 <0>         0.1347
     53 H24         2.4972    3.0068   -1.2139 H         1 <0>         0.2076
     54 H25        -0.7624    5.2646   -4.3552 H         1 <0>         0.1228
     55 H26        -0.2433    5.3780   -6.7537 H         1 <0>         0.1299
     56 H27         1.8381    4.3986   -7.6239 H         1 <0>         0.1304
     57 H28         3.4220    3.2961   -6.1080 H         1 <0>         0.1300
     58 H29        -2.3213    5.3776   -2.2148 H         1 <0>         0.0603
     59 H30        -3.2606    3.8465   -2.2134 H         1 <0>         0.0635
     60 H31        -1.9429    4.0907   -3.4096 H         1 <0>         0.0596
     61 H32         0.8064   -1.9319    3.7214 H         1 <0>         0.4077
@<TRIPOS>BOND
     1    1    2 1
     2    1   34 1
     3    1   35 1
     4    1   36 1
     5    2    8 1
     6    2   13 1
     7    2    3 1
     8    3    4 1
     9    3   37 1
    10    3   38 1
    11    4    5 1
    12    4   39 1
    13    4   40 1
    14    5    6 1
    15    5    7 1
    16    5   33 1
    17    7    8 1
    18    7   41 1
    19    7   42 1
    20    8    9 2
    21    9   10 1
    22    9   43 1
    23   10   11 1
    24   10   44 1
    25   10   45 1
    26   11   12 1
    27   11   18 1
    28   11   13 1
    29   13   14 1
    30   13   15 1
    31   15   16 1
    32   15   46 1
    33   15   47 1
    34   16   17 1
    35   16   48 1
    36   16   49 1
    37   17   22 1
    38   17   18 1
    39   17   32 1
    40   18   19 1
    41   18   20 1
    42   20   21 1
    43   20   50 1
    44   20   51 1
    45   21   22 2
    46   21   52 1
    47   22   23 1
    48   23   27 1
    49   23   24 1
    50   24   25 2
    51   24   53 1
    52   25   26 1
    53   26   31 ar
    54   26   27 ar
    55   27   28 ar
    56   28   29 ar
    57   28   54 1
    58   29   30 ar
    59   29   55 1
    60   30   31 ar
    61   30   56 1
    62   31   57 1
    63   32   58 1
    64   32   59 1
    65   32   60 1
    66   33   61 1
@<TRIPOS>MOLECULE
ZINC26393502
   62    67     0     0     0
SMALL
USER_CHARGES
(3S,8S,9R,10R,13S,14R)-17-(benzimidazol-1-yl)-10,13-dimethyl-2,3,4,7,8,9,11,12,14,15-decahydro-1H-cyclopenta[a]phenanthren-3-ol
@<TRIPOS>ATOM
      1 C1         -0.4836   -0.4564    1.8046 C.3       1 <0>        -0.2831
      2 C2         -0.0750    1.0179    1.8229 C.3       1 <0>        -0.0021
      3 C3          1.4052    1.1116    1.4573 C.3       1 <0>        -0.0904
      4 C4          2.2634    1.0324    2.7188 C.3       1 <0>        -0.1134
      5 C5          1.6348    0.1020    3.7542 C.3       1 <0>         0.1050
      6 H1          2.3577   -0.1596    4.5409 H         1 <0>         0.0633
      7 C6          0.3794    0.7625    4.3413 C.3       1 <0>        -0.1188
      8 C7         -0.2746    1.5480    3.2160 C.2       1 <0>        -0.0934
      9 C8         -0.9324    2.6294    3.4886 C.2       1 <0>        -0.1676
     10 C9         -1.5604    3.5046    2.4469 C.3       1 <0>        -0.0835
     11 C10        -0.9003    3.2574    1.0822 C.3       1 <0>        -0.0820
     12 H2          0.1485    3.5882    1.0586 H         1 <0>         0.0696
     13 C11        -0.9280    1.7559    0.7994 C.3       1 <0>        -0.0705
     14 H3         -1.9665    1.3982    0.8595 H         1 <0>         0.0756
     15 C12        -0.3315    1.5012   -0.5924 C.3       1 <0>        -0.1095
     16 C13        -1.2062    2.1881   -1.6378 C.3       1 <0>        -0.1128
     17 C14        -1.2654    3.6769   -1.3990 C.3       1 <0>        -0.0116
     18 C15        -1.6898    4.0457    0.0336 C.3       1 <0>        -0.0765
     19 H4         -2.7553    3.8662    0.2397 H         1 <0>         0.1125
     20 C16        -1.1243    5.5026    0.0734 C.3       1 <0>        -0.0973
     21 C17         0.1397    5.3992   -0.7614 C.2       1 <0>        -0.0606
     22 C18         0.0581    4.3699   -1.5887 C.2       1 <0>         0.0038
     23 N1          1.0451    3.9862   -2.4960 N.pl3     1 <0>        -0.3616
     24 C19         2.1992    3.3228   -2.2027 C.cat     1 <0>         0.3589
     25 N2          2.8873    3.1225   -3.2886 N.pl3     1 <0>        -0.5023
     26 C20         2.2289    3.6513   -4.3522 C.ar      1 <0>         0.0564
     27 C21         1.0381    4.2129   -3.8603 C.ar      1 <0>         0.0815
     28 C22         0.1534    4.8326   -4.7308 C.ar      1 <0>        -0.0884
     29 C23         0.4461    4.8953   -6.0768 C.ar      1 <0>        -0.0681
     30 C24         1.6204    4.3430   -6.5675 C.ar      1 <0>        -0.0793
     31 C25         2.5100    3.7242   -5.7188 C.ar      1 <0>        -0.0778
     32 C26        -2.2680    4.2911   -2.3780 C.3       1 <0>        -0.1566
     33 O1          1.2758   -1.1322    3.1297 O.3       1 <0>        -0.5418
     34 H5         -0.3444   -0.8629    0.7920 H         1 <0>         0.0337
     35 H6         -1.5409   -0.5475    2.0942 H         1 <0>         0.0278
     36 H7          0.1408   -1.0187    2.5145 H         1 <0>         0.2021
     37 H8          1.6707    0.2806    0.7873 H         1 <0>         0.0664
     38 H9          1.5976    2.0681    0.9492 H         1 <0>         0.0465
     39 H10         3.2610    0.6478    2.4600 H         1 <0>         0.0666
     40 H11         2.3602    2.0354    3.1600 H         1 <0>         0.0751
     41 H12        -0.3007   -0.0147    4.7201 H         1 <0>         0.0823
     42 H13         0.6682    1.4307    5.1660 H         1 <0>         0.0793
     43 H14        -1.0545    2.9502    4.5337 H         1 <0>         0.1055
     44 H15        -2.6341    3.2766    2.3752 H         1 <0>         0.0756
     45 H16        -1.4276    4.5602    2.7263 H         1 <0>         0.0726
     46 H17         0.6889    1.9099   -0.6344 H         1 <0>         0.0496
     47 H18        -0.3011    0.4188   -0.7858 H         1 <0>         0.0723
     48 H19        -0.7900    2.0077   -2.6399 H         1 <0>         0.0548
     49 H20        -2.2270    1.7816   -1.5862 H         1 <0>         0.0804
     50 H21        -1.8621    6.1942   -0.3594 H         1 <0>         0.1043
     51 H22        -0.9210    5.7887    1.1159 H         1 <0>         0.0988
     52 H23         1.0403    6.0307   -0.7564 H         1 <0>         0.1439
     53 H24         2.4972    3.0068   -1.2139 H         1 <0>         0.2567
     54 H25        -0.7624    5.2646   -4.3552 H         1 <0>         0.1505
     55 H26        -0.2433    5.3780   -6.7537 H         1 <0>         0.1559
     56 H27         1.8381    4.3986   -7.6239 H         1 <0>         0.1564
     57 H28         3.4220    3.2961   -6.1080 H         1 <0>         0.1528
     58 H29        -2.3213    5.3776   -2.2148 H         1 <0>         0.0660
     59 H30        -3.2606    3.8465   -2.2134 H         1 <0>         0.0746
     60 H31        -1.9429    4.0907   -3.4096 H         1 <0>         0.0573
     61 H32         0.8064   -1.9319    3.7214 H         1 <0>         0.4141
     62 H33         3.8493    2.5913   -3.2400 H         1 <0>         0.5007
@<TRIPOS>BOND
     1    1    2 1
     2    1   34 1
     3    1   35 1
     4    1   36 1
     5    2    8 1
     6    2   13 1
     7    2    3 1
     8    3    4 1
     9    3   37 1
    10    3   38 1
    11    4    5 1
    12    4   39 1
    13    4   40 1
    14    5    6 1
    15    5    7 1
    16    5   33 1
    17    7    8 1
    18    7   41 1
    19    7   42 1
    20    8    9 2
    21    9   10 1
    22    9   43 1
    23   10   11 1
    24   10   44 1
    25   10   45 1
    26   11   12 1
    27   11   18 1
    28   11   13 1
    29   13   14 1
    30   13   15 1
    31   15   16 1
    32   15   46 1
    33   15   47 1
    34   16   17 1
    35   16   48 1
    36   16   49 1
    37   17   22 1
    38   17   18 1
    39   17   32 1
    40   18   19 1
    41   18   20 1
    42   20   21 1
    43   20   50 1
    44   20   51 1
    45   21   22 2
    46   21   52 1
    47   22   23 1
    48   23   27 1
    49   23   24 1
    50   24   25 2
    51   24   53 1
    52   25   26 1
    53   25   62 1
    54   26   31 ar
    55   26   27 ar
    56   27   28 ar
    57   28   29 ar
    58   28   54 1
    59   29   30 ar
    60   29   55 1
    61   30   31 ar
    62   30   56 1
    63   31   57 1
    64   32   58 1
    65   32   59 1
    66   32   60 1
    67   33   61 1
