@<TRIPOS>MOLECULE
ZINC01666223
   41    43     0     0     0
SMALL
USER_CHARGES

@<TRIPOS>ATOM
      1 C1         -0.0168    1.3849    0.0097 C.ar      1 <0>        -0.2184
      2 C2          1.1707    2.0901    0.0021 C.ar      1 <0>         0.0264
      3 C3          2.3774    1.4150   -0.0135 C.ar      1 <0>        -0.7098
      4 C4          2.3998    0.0323   -0.0211 C.ar      1 <0>         0.0271
      5 C5          1.2161   -0.6790   -0.0137 C.ar      1 <0>        -0.2176
      6 C6          0.0021   -0.0041    0.0020 C.ar      1 <0>         0.2628
      7 N1         -1.1970   -0.7204    0.0101 N.pl3     1 <0>        -0.8694
      8 S1          3.8900    2.3186   -0.0243 S.o2      1 <0>         2.5901
      9 O1          4.8717    1.4606   -0.5894 O.2       1 <0>        -0.9476
     10 O2          3.5945    3.5988   -0.5657 O.2       1 <0>        -0.9509
     11 C7          4.3543    2.5774    1.6557 C.ar      1 <0>        -0.7135
     12 C8          3.9168    3.7047    2.3265 C.ar      1 <0>         0.0170
     13 C9          4.2788    3.9106    3.6433 C.ar      1 <0>        -0.2111
     14 C10         5.0833    2.9836    4.2938 C.ar      1 <0>         0.2588
     15 C11         5.5210    1.8523    3.6170 C.ar      1 <0>        -0.2027
     16 C12         5.1506    1.6498    2.3020 C.ar      1 <0>         0.0222
     17 N2          5.4517    3.1890    5.6254 N.pl3     1 <0>        -0.7328
     18 C13         6.3003    2.2103    6.3099 C.3       1 <0>         0.3200
     19 N3          7.7004    2.6325    6.2229 N.am      1 <0>        -0.5909
     20 C14         8.4515    2.2277    5.1752 C.2       1 <0>         0.4843
     21 O3          7.9894    1.5212    4.3037 O.2       1 <0>        -0.4654
     22 C15         9.8793    2.6867    5.1317 C.2       1 <0>         0.3116
     23 O4         10.6204    2.3716    4.2309 O.2       1 <0>        -0.3556
     24 C16        10.3379    3.5537    6.2590 C.2       1 <0>         0.4290
     25 O5         11.6032    4.0153    6.3064 O.3       1 <0>        -0.5872
     26 N4          9.4765    3.8538    7.2000 N.2       1 <0>        -0.6356
     27 C17         8.2117    3.4176    7.1809 C.2       1 <0>         0.6740
     28 O6          7.4808    3.7508    8.0940 O.2       1 <0>        -0.5497
     29 H1         -0.9589    1.9127    0.0260 H         1 <0>         0.1289
     30 H2          1.1567    3.1700    0.0080 H         1 <0>         0.1405
     31 H3          3.3440   -0.4918   -0.0333 H         1 <0>         0.1414
     32 H4          1.2342   -1.7588   -0.0200 H         1 <0>         0.1293
     33 H5         -2.0441   -0.2480    0.0210 H         1 <0>         0.4016
     34 H6         -1.1825   -1.6903    0.0047 H         1 <0>         0.4018
     35 H7          3.2916    4.4251    1.8200 H         1 <0>         0.1366
     36 H8          3.9371    4.7914    4.1665 H         1 <0>         0.1287
     37 H9          6.1469    1.1299    4.1197 H         1 <0>         0.1551
     38 H10         5.4869    0.7682    1.7765 H         1 <0>         0.1371
     39 H11         5.1458    3.9795    6.0969 H         1 <0>         0.4082
     40 H12         6.0054    2.1433    7.3571 H         1 <0>         0.1198
     41 H13         6.1847    1.2352    5.8367 H         1 <0>         0.1060
@<TRIPOS>BOND
     1    1    6 ar
     2    1    2 ar
     3    1   29 1
     4    2    3 ar
     5    2   30 1
     6    3    4 ar
     7    3    8 1
     8    4    5 ar
     9    4   31 1
    10    5    6 ar
    11    5   32 1
    12    6    7 1
    13    7   33 1
    14    7   34 1
    15    8    9 2
    16    8   10 2
    17    8   11 1
    18   11   16 ar
    19   11   12 ar
    20   12   13 ar
    21   12   35 1
    22   13   14 ar
    23   13   36 1
    24   14   15 ar
    25   14   17 1
    26   15   16 ar
    27   15   37 1
    28   16   38 1
    29   17   18 1
    30   17   39 1
    31   18   19 1
    32   18   40 1
    33   18   41 1
    34   19   27 am
    35   19   20 am
    36   20   21 2
    37   20   22 1
    38   22   23 2
    39   22   24 1
    40   24   25 1
    41   24   26 2
    42   26   27 1
    43   27   28 2
@<TRIPOS>MOLECULE
ZINC29056295
   35    38     0     0     0
SMALL
USER_CHARGES

@<TRIPOS>ATOM
      1 C1         -0.0167    1.3774    0.0096 C.ar      1 <0>        -0.1266
      2 C2          1.1670    2.0952    0.0022 C.ar      1 <0>        -0.1215
      3 C3          2.3842    1.4397   -0.0135 C.ar      1 <0>        -0.0877
      4 C4          2.4255    0.0474   -0.0218 C.ar      1 <0>        -0.0994
      5 C5          1.2197   -0.6846   -0.0138 C.ar      1 <0>        -0.0731
      6 C6          0.0021   -0.0041    0.0020 C.ar      1 <0>        -0.1076
      7 C7          1.2460   -2.1590   -0.0229 C.2       1 <0>         0.2657
      8 C8          1.5798   -2.8881    1.1445 C.ar      1 <0>        -0.2105
      9 C9          1.8935   -2.2170    2.3393 C.ar      1 <0>         0.0575
     10 C10         2.2120   -2.9291    3.4541 C.ar      1 <0>        -0.1981
     11 C11         2.2295   -4.3309    3.4184 C.ar      1 <0>         0.3725
     12 C12         1.9218   -5.0107    2.2447 C.ar      1 <0>        -0.2566
     13 C13         1.5953   -4.3002    1.1006 C.ar      1 <0>         0.2558
     14 O1          1.2951   -4.9553   -0.0400 O.3       1 <0>        -0.1896
     15 C14         0.9719   -4.2973   -1.1726 C.2       1 <0>         0.2575
     16 C15         0.6690   -5.0048   -2.3250 C.2       1 <0>        -0.2592
     17 C16         0.3355   -4.3220   -3.4898 C.2       1 <0>         0.3694
     18 O2          0.0411   -5.0123   -4.6084 O.2       1 <0>        -0.5938
     19 C17         0.3030   -2.9202   -3.5082 C.2       1 <0>        -0.1998
     20 C18         0.5982   -2.2110   -2.3852 C.2       1 <0>         0.0428
     21 C19         0.9325   -2.8851   -1.1978 C.2       1 <0>        -0.2486
     22 Br1        -0.1528   -2.0107   -5.1022 Br        1 <0>        -0.0584
     23 Br2         0.7097   -6.8953   -2.3139 Br        1 <0>        -0.0430
     24 Br3         1.9496   -6.9011    2.2100 Br        1 <0>        -0.0448
     25 O3          2.5469   -5.0240    4.5289 O.3       1 <0>        -0.5933
     26 Br4         2.6341   -2.0237    5.0597 Br        1 <0>        -0.0591
     27 C20         3.7223   -0.6573   -0.0395 C.2       1 <0>         0.5128
     28 O4          4.7651   -0.0188   -0.0468 O.co2     1 <0>        -0.6798
     29 O5          3.7538   -1.8798   -0.0468 O.co2     1 <0>        -0.6494
     30 H1         -0.9612    1.9009    0.0260 H         1 <0>         0.1212
     31 H2          1.1395    3.1748    0.0082 H         1 <0>         0.1185
     32 H3          3.3031    2.0072   -0.0195 H         1 <0>         0.1332
     33 H4         -0.9257   -0.5569    0.0083 H         1 <0>         0.1243
     34 H5          1.8819   -1.1376    2.3721 H         1 <0>         0.1324
     35 H6          0.5724   -1.1314   -2.4051 H         1 <0>         0.1364
@<TRIPOS>BOND
     1    1    6 ar
     2    1    2 ar
     3    1   30 1
     4    2    3 ar
     5    2   31 1
     6    3    4 ar
     7    3   32 1
     8    4    5 ar
     9    4   27 1
    10    5    6 ar
    11    5    7 1
    12    6   33 1
    13    7   21 2
    14    7    8 1
    15    8   13 ar
    16    8    9 ar
    17    9   10 ar
    18    9   34 1
    19   10   11 ar
    20   10   26 1
    21   11   12 ar
    22   11   25 1
    23   12   13 ar
    24   12   24 1
    25   13   14 1
    26   14   15 1
    27   15   21 1
    28   15   16 2
    29   16   17 1
    30   16   23 1
    31   17   18 2
    32   17   19 1
    33   19   20 2
    34   19   22 1
    35   20   21 1
    36   20   35 1
    37   27   28 2
    38   27   29 1
@<TRIPOS>MOLECULE
ZINC29056295
   36    39     0     0     0
SMALL
USER_CHARGES

@<TRIPOS>ATOM
      1 C1         -0.0167    1.3772    0.0096 C.ar      1 <0>        -0.1237
      2 C2          1.1671    2.0952    0.0022 C.ar      1 <0>        -0.1106
      3 C3          2.3841    1.4399   -0.0134 C.ar      1 <0>        -0.0848
      4 C4          2.4255    0.0473   -0.0217 C.ar      1 <0>        -0.0964
      5 C5          1.2196   -0.6846   -0.0136 C.ar      1 <0>        -0.0884
      6 C6          0.0021   -0.0041    0.0020 C.ar      1 <0>        -0.1061
      7 C7          1.2460   -2.1591   -0.0227 C.2       1 <0>         0.2160
      8 C8          0.9418   -2.9304    1.1846 C.ar      1 <0>        -0.1409
      9 C9          0.6156   -2.2857    2.3858 C.ar      1 <0>         0.0216
     10 C10         0.3355   -3.0248    3.4973 C.ar      1 <0>        -0.1460
     11 C11         0.3726   -4.4197    3.4453 C.ar      1 <0>         0.2270
     12 C12         0.6932   -5.0736    2.2663 C.ar      1 <0>        -0.1469
     13 C13         0.9809   -4.3388    1.1241 C.ar      1 <0>         0.2125
     14 O1          1.2931   -4.9656   -0.0282 O.3       1 <0>        -0.1863
     15 C14         1.5793   -4.2932   -1.1622 C.2       1 <0>         0.2476
     16 C15         1.8916   -4.9920   -2.3122 C.2       1 <0>        -0.2645
     17 C16         2.1895   -4.2985   -3.4916 C.2       1 <0>         0.4367
     18 O2          2.4662   -4.9200   -4.5106 O.2       1 <0>        -0.4710
     19 C17         2.1721   -2.8872   -3.5128 C.2       1 <0>        -0.2005
     20 C18         1.8671   -2.1915   -2.3890 C.2       1 <0>         0.0465
     21 C19         1.5595   -2.8773   -1.1969 C.2       1 <0>        -0.1421
     22 Br1         2.5759   -1.9635   -5.1127 Br        1 <0>        -0.0283
     23 Br2         1.9175   -6.8827   -2.2935 Br        1 <0>        -0.0198
     24 Br3         0.7394   -6.9633    2.2136 Br        1 <0>         0.0111
     25 O3          0.0925   -5.1416    4.5595 O.3       1 <0>        -0.4632
     26 Br4        -0.1047   -2.1557    5.1180 Br        1 <0>        -0.0101
     27 C20         3.7220   -0.6572   -0.0393 C.2       1 <0>         0.5130
     28 O4          4.7649   -0.0186   -0.0466 O.co2     1 <0>        -0.6656
     29 O5          3.7535   -1.8797   -0.0465 O.co2     1 <0>        -0.6622
     30 H1         -0.9612    1.9007    0.0260 H         1 <0>         0.1262
     31 H2          1.1395    3.1748    0.0082 H         1 <0>         0.1246
     32 H3          3.3029    2.0075   -0.0195 H         1 <0>         0.1380
     33 H4         -0.9257   -0.5569    0.0082 H         1 <0>         0.1248
     34 H5          0.5863   -1.2071    2.4310 H         1 <0>         0.1613
     35 H6          1.8555   -1.1117   -2.4089 H         1 <0>         0.1451
     36 H7         -0.8431   -5.3652    4.6584 H         1 <0>         0.4053
@<TRIPOS>BOND
     1    1    6 ar
     2    1    2 ar
     3    1   30 1
     4    2    3 ar
     5    2   31 1
     6    3    4 ar
     7    3   32 1
     8    4    5 ar
     9    4   27 1
    10    5    6 ar
    11    5    7 1
    12    6   33 1
    13    7   21 2
    14    7    8 1
    15    8   13 ar
    16    8    9 ar
    17    9   10 ar
    18    9   34 1
    19   10   11 ar
    20   10   26 1
    21   11   12 ar
    22   11   25 1
    23   12   13 ar
    24   12   24 1
    25   13   14 1
    26   14   15 1
    27   15   21 1
    28   15   16 2
    29   16   17 1
    30   16   23 1
    31   17   18 2
    32   17   19 1
    33   19   20 2
    34   19   22 1
    35   20   21 1
    36   20   35 1
    37   25   36 1
    38   27   28 2
    39   27   29 1
