@<TRIPOS>MOLECULE
ZINC01536779
   41    43     0     0     0
SMALL
USER_CHARGES

@<TRIPOS>ATOM
      1 C1         -0.7400    0.9331    0.2776 C.3       1 <0>        -0.0476
      2 N1         -0.4844   -0.5066    0.1362 N.4       1 <0>        -0.5085
      3 C2          0.3213   -0.7448   -1.0688 C.3       1 <0>        -0.0132
      4 C3          0.5875   -2.2442   -1.2161 C.3       1 <0>        -0.1420
      5 C4          1.4267   -2.4924   -2.4711 C.3       1 <0>         0.1856
      6 H1          2.3354   -1.8921   -2.4252 H         1 <0>         0.1031
      7 C5          1.7925   -3.9522   -2.5503 C.2       1 <0>        -0.2178
      8 C6          2.9174   -4.5748   -2.1210 C.2       1 <0>        -0.1229
      9 C7          3.0378   -5.9401   -2.3002 C.2       1 <0>        -0.1690
     10 C8          2.0274   -6.6160   -2.8999 C.2       1 <0>        -0.1537
     11 S1          0.8534   -5.3114   -3.2268 S.3       1 <0>         0.0860
     12 O1          0.6724   -2.1269   -3.6285 O.3       1 <0>        -0.3033
     13 C9          1.3745   -1.7982   -4.7435 C.ar      1 <0>         0.1312
     14 C10         2.7346   -1.9306   -4.7642 C.ar      1 <0>        -0.2054
     15 C11         3.4685   -1.5981   -5.8992 C.ar      1 <0>        -0.0827
     16 C12         2.8540   -1.1319   -7.0215 C.ar      1 <0>        -0.1285
     17 C13         1.4570   -0.9818   -7.0408 C.ar      1 <0>        -0.0223
     18 C14         0.7049   -1.3236   -5.8896 C.ar      1 <0>        -0.0635
     19 C15        -0.6915   -1.1779   -5.9104 C.ar      1 <0>        -0.0959
     20 C16        -1.3040   -0.7161   -7.0351 C.ar      1 <0>        -0.1186
     21 C17        -0.5654   -0.3847   -8.1695 C.ar      1 <0>        -0.1028
     22 C18         0.7904   -0.5031   -8.1819 C.ar      1 <0>        -0.1090
     23 H2          0.2082    1.4637    0.3638 H         1 <0>         0.1241
     24 H3         -1.2800    1.2940   -0.5978 H         1 <0>         0.1247
     25 H4         -1.3378    1.1099    1.1717 H         1 <0>         0.1281
     26 H5          0.0155   -0.8406    0.9465 H         1 <0>         0.4304
     27 H6         -0.2187   -0.3839   -1.9442 H         1 <0>         0.1408
     28 H7          1.2696   -0.2142   -0.9826 H         1 <0>         0.1345
     29 H8          1.1275   -2.6051   -0.3407 H         1 <0>         0.1121
     30 H9         -0.3607   -2.7749   -1.3023 H         1 <0>         0.1048
     31 H10         3.7079   -4.0125   -1.6464 H         1 <0>         0.1341
     32 H11         3.9238   -6.4605   -1.9677 H         1 <0>         0.1404
     33 H12         1.9508   -7.6707   -3.1194 H         1 <0>         0.1916
     34 H13         3.2471   -2.2981   -3.8875 H         1 <0>         0.1267
     35 H14         4.5425   -1.7112   -5.8895 H         1 <0>         0.1280
     36 H15         3.4384   -0.8782   -7.8935 H         1 <0>         0.1327
     37 H16        -1.2767   -1.4311   -5.0388 H         1 <0>         0.1266
     38 H17        -2.3782   -0.6052   -7.0486 H         1 <0>         0.1262
     39 H18        -1.0757   -0.0208   -9.0490 H         1 <0>         0.1287
     40 H19         1.3500   -0.2422   -9.0680 H         1 <0>         0.1339
     41 H20        -1.3622   -0.9977    0.0564 H         1 <0>         0.4321
@<TRIPOS>BOND
     1    1    2 1
     2    1   23 1
     3    1   24 1
     4    1   25 1
     5    2    3 1
     6    2   26 1
     7    2   41 1
     8    3    4 1
     9    3   27 1
    10    3   28 1
    11    4    5 1
    12    4   29 1
    13    4   30 1
    14    5    6 1
    15    5    7 1
    16    5   12 1
    17    7   11 1
    18    7    8 2
    19    8    9 1
    20    8   31 1
    21    9   10 2
    22    9   32 1
    23   10   11 1
    24   10   33 1
    25   12   13 1
    26   13   18 ar
    27   13   14 ar
    28   14   15 ar
    29   14   34 1
    30   15   16 ar
    31   15   35 1
    32   16   17 ar
    33   16   36 1
    34   17   22 ar
    35   17   18 ar
    36   18   19 ar
    37   19   20 ar
    38   19   37 1
    39   20   21 ar
    40   20   38 1
    41   21   22 ar
    42   21   39 1
    43   22   40 1
@<TRIPOS>MOLECULE
ZINC01530637
   41    42     0     0     0
SMALL
USER_CHARGES

@<TRIPOS>ATOM
      1 C1         -0.4120    1.0349    0.3013 C.3       1 <0>        -0.0488
      2 N1         -0.2330   -0.4168    0.1652 N.4       1 <0>        -0.5073
      3 C2          0.5049   -0.7054   -1.0718 C.3       1 <0>        -0.0229
      4 C3          0.6913   -2.2174   -1.2135 C.3       1 <0>        -0.1675
      5 C4          1.4598   -2.5179   -2.5019 C.3       1 <0>         0.1351
      6 H1          2.3976   -1.9623   -2.5036 H         1 <0>         0.0995
      7 C5          1.7506   -3.9945   -2.5806 C.ar      1 <0>        -0.1149
      8 C6          0.8070   -4.8578   -3.1052 C.ar      1 <0>        -0.0895
      9 C7          1.0737   -6.2123   -3.1773 C.ar      1 <0>        -0.1179
     10 C8          2.2842   -6.7034   -2.7252 C.ar      1 <0>        -0.1006
     11 C9          3.2282   -5.8399   -2.2014 C.ar      1 <0>        -0.1161
     12 C10         2.9632   -4.4849   -2.1333 C.ar      1 <0>        -0.1045
     13 O1          0.6724   -2.1269   -3.6285 O.3       1 <0>        -0.2928
     14 C11         0.8838   -0.8800   -4.1260 C.ar      1 <0>         0.1505
     15 C12         1.8748   -0.0745   -3.5841 C.ar      1 <0>        -0.2338
     16 C13         2.0880    1.1924   -4.0920 C.ar      1 <0>        -0.0253
     17 C14         1.3144    1.6580   -5.1391 C.ar      1 <0>        -0.2127
     18 C15         0.3257    0.8573   -5.6806 C.ar      1 <0>        -0.0216
     19 C16         0.1127   -0.4127   -5.1804 C.ar      1 <0>        -0.1468
     20 C17         1.5488    3.0406   -5.6908 C.3       1 <0>         0.5091
     21 F1          2.4914    2.9774   -6.7227 F         1 <0>        -0.1716
     22 F2          0.3464    3.5542   -6.1884 F         1 <0>        -0.1742
     23 F3          2.0262    3.8739   -4.6735 F         1 <0>        -0.1775
     24 H2          0.5637    1.5193    0.3388 H         1 <0>         0.1248
     25 H3         -0.9730    1.4134   -0.5531 H         1 <0>         0.1241
     26 H4         -0.9595    1.2490    1.2192 H         1 <0>         0.1296
     27 H5          0.2863   -0.7673    0.9561 H         1 <0>         0.4310
     28 H6         -0.0562   -0.3268   -1.9262 H         1 <0>         0.1339
     29 H7          1.4806   -0.2209   -1.0343 H         1 <0>         0.1355
     30 H8          1.2523   -2.5959   -0.3591 H         1 <0>         0.1101
     31 H9         -0.2844   -2.7018   -1.2511 H         1 <0>         0.1053
     32 H10        -0.1388   -4.4741   -3.4583 H         1 <0>         0.1283
     33 H11         0.3362   -6.8868   -3.5865 H         1 <0>         0.1298
     34 H12         2.4924   -7.7616   -2.7809 H         1 <0>         0.1301
     35 H13         4.1738   -6.2237   -1.8480 H         1 <0>         0.1308
     36 H14         3.7021   -3.8099   -1.7275 H         1 <0>         0.1243
     37 H15         2.4789   -0.4374   -2.7657 H         1 <0>         0.1409
     38 H16         2.8594    1.8199   -3.6705 H         1 <0>         0.1434
     39 H17        -0.2775    1.2233   -6.4983 H         1 <0>         0.1498
     40 H18        -0.6567   -1.0394   -5.6066 H         1 <0>         0.1488
     41 H19        -1.1362   -0.8653    0.1305 H         1 <0>         0.4318
@<TRIPOS>BOND
     1    1    2 1
     2    1   24 1
     3    1   25 1
     4    1   26 1
     5    2    3 1
     6    2   27 1
     7    2   41 1
     8    3    4 1
     9    3   28 1
    10    3   29 1
    11    4    5 1
    12    4   30 1
    13    4   31 1
    14    5    6 1
    15    5    7 1
    16    5   13 1
    17    7   12 ar
    18    7    8 ar
    19    8    9 ar
    20    8   32 1
    21    9   10 ar
    22    9   33 1
    23   10   11 ar
    24   10   34 1
    25   11   12 ar
    26   11   35 1
    27   12   36 1
    28   13   14 1
    29   14   19 ar
    30   14   15 ar
    31   15   16 ar
    32   15   37 1
    33   16   17 ar
    34   16   38 1
    35   17   18 ar
    36   17   20 1
    37   18   19 ar
    38   18   39 1
    39   19   40 1
    40   20   21 1
    41   20   22 1
    42   20   23 1
@<TRIPOS>MOLECULE
ZINC01530638
   41    42     0     0     0
SMALL
USER_CHARGES

@<TRIPOS>ATOM
      1 C1         -0.0117    1.2584    0.2941 C.3       1 <0>        -0.0489
      2 N1          0.0187   -0.2059    0.1807 N.4       1 <0>        -0.5073
      3 C2          0.6940   -0.5864   -1.0672 C.3       1 <0>        -0.0223
      4 C3          0.7257   -2.1115   -1.1853 C.3       1 <0>        -0.1659
      5 C4          1.4290   -2.5079   -2.4850 C.3       1 <0>         0.1346
      6 H1          0.9406   -2.0169   -3.3267 H         1 <0>         0.0995
      7 C5          1.3524   -4.0025   -2.6620 C.ar      1 <0>        -0.1166
      8 C6          2.2239   -4.8256   -1.9736 C.ar      1 <0>        -0.0896
      9 C7          2.1536   -6.1966   -2.1360 C.ar      1 <0>        -0.1183
     10 C8          1.2115   -6.7445   -2.9863 C.ar      1 <0>        -0.1002
     11 C9          0.3394   -5.9215   -3.6740 C.ar      1 <0>        -0.1161
     12 C10         0.4069   -4.5507   -3.5084 C.ar      1 <0>        -0.1036
     13 O1          2.7987   -2.1046   -2.4276 O.3       1 <0>        -0.2939
     14 C11         3.1290   -0.9498   -3.0632 C.ar      1 <0>         0.1513
     15 C12         4.4578   -0.5614   -3.1526 C.ar      1 <0>        -0.1453
     16 C13         4.7911    0.6128   -3.7997 C.ar      1 <0>        -0.0215
     17 C14         3.8014    1.4009   -4.3576 C.ar      1 <0>        -0.2121
     18 C15         2.4763    1.0162   -4.2695 C.ar      1 <0>        -0.0254
     19 C16         2.1384   -0.1601   -3.6288 C.ar      1 <0>        -0.2331
     20 C17         4.1677    2.6815   -5.0625 C.3       1 <0>         0.5092
     21 F1          4.3972    2.4189   -6.4174 F         1 <0>        -0.1720
     22 F2          3.1196    3.5994   -4.9365 F         1 <0>        -0.1774
     23 F3          5.3265    3.2150   -4.4881 F         1 <0>        -0.1740
     24 H2          1.0080    1.6436    0.3006 H         1 <0>         0.1243
     25 H3         -0.5529    1.6774   -0.5543 H         1 <0>         0.1247
     26 H4         -0.5127    1.5408    1.2200 H         1 <0>         0.1295
     27 H5          0.5197   -0.5937    0.9660 H         1 <0>         0.4319
     28 H6          0.1528   -0.1675   -1.9155 H         1 <0>         0.1348
     29 H7          1.7136   -0.2013   -1.0606 H         1 <0>         0.1349
     30 H8          1.2669   -2.5305   -0.3370 H         1 <0>         0.1053
     31 H9         -0.2940   -2.4967   -1.1919 H         1 <0>         0.1101
     32 H10         2.9600   -4.3975   -1.3092 H         1 <0>         0.1272
     33 H11         2.8350   -6.8396   -1.5987 H         1 <0>         0.1297
     34 H12         1.1571   -7.8156   -3.1137 H         1 <0>         0.1301
     35 H13        -0.3964   -6.3495   -4.3386 H         1 <0>         0.1308
     36 H14        -0.2770   -3.9079   -4.0428 H         1 <0>         0.1243
     37 H15         5.2311   -1.1763   -2.7163 H         1 <0>         0.1487
     38 H16         5.8254    0.9155   -3.8695 H         1 <0>         0.1498
     39 H17         1.7051    1.6337   -4.7058 H         1 <0>         0.1430
     40 H18         1.1036   -0.4624   -3.5641 H         1 <0>         0.1387
     41 H19        -0.9251   -0.5624    0.1746 H         1 <0>         0.4310
@<TRIPOS>BOND
     1    1    2 1
     2    1   24 1
     3    1   25 1
     4    1   26 1
     5    2    3 1
     6    2   27 1
     7    2   41 1
     8    3    4 1
     9    3   28 1
    10    3   29 1
    11    4    5 1
    12    4   30 1
    13    4   31 1
    14    5    6 1
    15    5    7 1
    16    5   13 1
    17    7   12 ar
    18    7    8 ar
    19    8    9 ar
    20    8   32 1
    21    9   10 ar
    22    9   33 1
    23   10   11 ar
    24   10   34 1
    25   11   12 ar
    26   11   35 1
    27   12   36 1
    28   13   14 1
    29   14   19 ar
    30   14   15 ar
    31   15   16 ar
    32   15   37 1
    33   16   17 ar
    34   16   38 1
    35   17   18 ar
    36   17   20 1
    37   18   19 ar
    38   18   39 1
    39   19   40 1
    40   20   21 1
    41   20   22 1
    42   20   23 1
@<TRIPOS>MOLECULE
ZINC00527386
   45    48     0     0     0
SMALL
USER_CHARGES

@<TRIPOS>ATOM
      1 C1         -0.0167    1.3782    0.0096 C.ar      1 <0>        -0.0786
      2 C2          1.1703    2.0860    0.0021 C.ar      1 <0>        -0.1478
      3 C3          2.3786    1.4101   -0.0131 C.ar      1 <0>         0.1155
      4 C4          2.3962    0.0256   -0.0207 C.ar      1 <0>        -0.1485
      5 C5          1.2079   -0.6800   -0.0132 C.ar      1 <0>        -0.0833
      6 C6          0.0021   -0.0041    0.0020 C.ar      1 <0>        -0.1160
      7 C7         -1.2930   -0.7747    0.0103 C.3       1 <0>        -0.0467
      8 H1         -2.1314   -0.0783    0.0220 H         1 <0>         0.1035
      9 C8         -1.3504   -1.6663    1.2540 C.3       1 <0>        -0.1398
     10 C9         -2.6302   -2.5042    1.2156 C.3       1 <0>        -0.0090
     11 N1         -2.6348   -3.3421    0.0104 N.4       1 <0>        -0.5052
     12 C10        -2.6523   -2.4927   -1.1866 C.3       1 <0>        -0.0061
     13 C11        -1.3743   -1.6529   -1.2416 C.3       1 <0>        -0.1007
     14 H2         -0.5077   -2.3130   -1.2801 H         1 <0>         0.1106
     15 C12        -1.3973   -0.7654   -2.4877 C.3       1 <0>         0.0632
     16 O1         -1.3556   -1.5854   -3.6573 O.3       1 <0>        -0.3149
     17 C13        -1.3694   -0.9484   -4.8586 C.ar      1 <0>         0.1338
     18 C14        -1.4163    0.4369   -4.9082 C.ar      1 <0>        -0.1955
     19 C15        -1.4304    1.0865   -6.1281 C.ar      1 <0>        -0.0597
     20 C16        -1.3978    0.3558   -7.3046 C.ar      1 <0>         0.0066
     21 C17        -1.3507   -1.0351   -7.2573 C.ar      1 <0>         0.0775
     22 C18        -1.3310   -1.6838   -6.0334 C.ar      1 <0>        -0.1326
     23 O2         -1.3260   -1.5147   -8.5352 O.3       1 <0>        -0.3028
     24 C19        -1.7704   -0.4244   -9.3640 C.3       1 <0>         0.2131
     25 O3         -1.4025    0.7478   -8.6132 O.3       1 <0>        -0.3042
     26 F1          3.5396    2.1009   -0.0209 F         1 <0>        -0.1301
     27 H3         -0.9592    1.9052    0.0260 H         1 <0>         0.1361
     28 H4          1.1554    3.1659    0.0077 H         1 <0>         0.1428
     29 H5          3.3381   -0.5027   -0.0329 H         1 <0>         0.1414
     30 H6          1.2213   -1.7599   -0.0195 H         1 <0>         0.1298
     31 H7         -0.4833   -2.3267    1.2687 H         1 <0>         0.0938
     32 H8         -1.3497   -1.0436    2.1486 H         1 <0>         0.1200
     33 H9         -2.6744   -3.1401    2.0998 H         1 <0>         0.1375
     34 H10        -3.4966   -1.8429    1.2011 H         1 <0>         0.1332
     35 H11        -1.8072   -3.9191    0.0000 H         1 <0>         0.4292
     36 H12        -2.7128   -3.1202   -2.0759 H         1 <0>         0.1435
     37 H13        -3.5182   -1.8317   -1.1499 H         1 <0>         0.1340
     38 H14        -2.3107   -0.1706   -2.4933 H         1 <0>         0.0766
     39 H15        -0.5321   -0.1026   -2.4777 H         1 <0>         0.0872
     40 H16        -1.4421    1.0088   -3.9923 H         1 <0>         0.1409
     41 H17        -1.4672    2.1652   -6.1642 H         1 <0>         0.1431
     42 H18        -1.2900   -2.7623   -5.9944 H         1 <0>         0.1446
     43 H19        -1.2571   -0.4402  -10.3254 H         1 <0>         0.1387
     44 H20        -2.8505   -0.4658   -9.5047 H         1 <0>         0.0906
     45 H21        -3.4535   -3.9318    0.0151 H         1 <0>         0.4349
@<TRIPOS>BOND
     1    1    6 ar
     2    1    2 ar
     3    1   27 1
     4    2    3 ar
     5    2   28 1
     6    3    4 ar
     7    3   26 1
     8    4    5 ar
     9    4   29 1
    10    5    6 ar
    11    5   30 1
    12    6    7 1
    13    7    8 1
    14    7   13 1
    15    7    9 1
    16    9   10 1
    17    9   31 1
    18    9   32 1
    19   10   11 1
    20   10   33 1
    21   10   34 1
    22   11   12 1
    23   11   35 1
    24   11   45 1
    25   12   13 1
    26   12   36 1
    27   12   37 1
    28   13   14 1
    29   13   15 1
    30   15   16 1
    31   15   38 1
    32   15   39 1
    33   16   17 1
    34   17   22 ar
    35   17   18 ar
    36   18   19 ar
    37   18   40 1
    38   19   20 ar
    39   19   41 1
    40   20   25 1
    41   20   21 ar
    42   21   22 ar
    43   21   23 1
    44   22   42 1
    45   23   24 1
    46   24   25 1
    47   24   43 1
    48   24   44 1
@<TRIPOS>MOLECULE
ZINC00014037
   41    42     0     0     0
SMALL
USER_CHARGES

@<TRIPOS>ATOM
      1 C1         -0.7317    1.3741   -5.1605 C.3       1 <0>        -0.1840
      2 C2         -0.1575    1.5829   -3.7578 C.3       1 <0>         0.0847
      3 N1          0.5403    0.3679   -3.3298 N.am      1 <0>        -0.6031
      4 C3          1.9775    0.2240   -3.5744 C.3       1 <0>         0.1075
      5 C4          2.7563    0.7836   -2.3823 C.3       1 <0>        -0.1718
      6 C5         -0.1400   -0.6174   -2.7111 C.2       1 <0>         0.5421
      7 O1          0.4518   -1.5829   -2.2770 O.2       1 <0>        -0.5150
      8 C6         -1.6361   -0.5194   -2.5588 C.3       1 <0>        -0.0762
      9 C7         -2.4276   -1.8276   -2.5021 C.3       1 <0>        -0.1164
     10 C8         -2.4969   -0.9449   -3.7499 C.3       1 <0>        -0.1925
     11 H1         -3.4206   -0.3937   -3.9258 H         1 <0>         0.1415
     12 C9         -1.7729   -1.4374   -5.0046 C.3       1 <0>        -0.0039
     13 N2         -2.7524   -1.6779   -6.0726 N.4       1 <0>        -0.6315
     14 C10        -2.1300    0.6302   -1.7188 C.ar      1 <0>        -0.0651
     15 C11        -3.1039    1.4781   -2.2120 C.ar      1 <0>        -0.1183
     16 C12        -3.5570    2.5326   -1.4415 C.ar      1 <0>        -0.1121
     17 C13        -3.0364    2.7389   -0.1776 C.ar      1 <0>        -0.1063
     18 C14        -2.0631    1.8904    0.3160 C.ar      1 <0>        -0.1060
     19 C15        -1.6131    0.8333   -0.4529 C.ar      1 <0>        -0.1016
     20 H2         -0.0592    0.7394   -5.7375 H         1 <0>         0.0648
     21 H3         -1.7081    0.8956   -5.0858 H         1 <0>         0.0517
     22 H4         -0.8367    2.3385   -5.6574 H         1 <0>         0.0811
     23 H5          0.5429    2.4181   -3.7725 H         1 <0>         0.0885
     24 H6         -0.9679    1.8006   -3.0621 H         1 <0>         0.0978
     25 H7          2.2202   -0.8307   -3.7041 H         1 <0>         0.0855
     26 H8          2.2494    0.7729   -4.4760 H         1 <0>         0.0823
     27 H9          2.5137    1.8383   -2.2526 H         1 <0>         0.0582
     28 H10         2.4844    0.2347   -1.4806 H         1 <0>         0.0615
     29 H11         3.8257    0.6765   -2.5642 H         1 <0>         0.0727
     30 H12        -1.8662   -2.7590   -2.5750 H         1 <0>         0.1217
     31 H13        -3.3057   -1.8569   -1.8570 H         1 <0>         0.1237
     32 H14        -1.0574   -0.6826   -5.3310 H         1 <0>         0.1488
     33 H15        -1.2457   -2.3645   -4.7796 H         1 <0>         0.1398
     34 H16        -3.2404   -0.8197   -6.2809 H         1 <0>         0.4347
     35 H17        -2.2750   -2.0026   -6.9000 H         1 <0>         0.4410
     36 H18        -3.5107    1.3170   -3.1994 H         1 <0>         0.1197
     37 H19        -4.3174    3.1956   -1.8270 H         1 <0>         0.1297
     38 H20        -3.3899    3.5632    0.4241 H         1 <0>         0.1306
     39 H21        -1.6561    2.0517    1.3032 H         1 <0>         0.1312
     40 H22        -0.8554    0.1682   -0.0658 H         1 <0>         0.1243
     41 H23        -3.4147   -2.3766   -5.7704 H         1 <0>         0.4389
@<TRIPOS>BOND
     1    1    2 1
     2    1   20 1
     3    1   21 1
     4    1   22 1
     5    2    3 1
     6    2   23 1
     7    2   24 1
     8    3    4 1
     9    3    6 am
    10    4    5 1
    11    4   25 1
    12    4   26 1
    13    5   27 1
    14    5   28 1
    15    5   29 1
    16    6    7 2
    17    6    8 1
    18    8   10 1
    19    8    9 1
    20    8   14 1
    21    9   10 1
    22    9   30 1
    23    9   31 1
    24   10   11 1
    25   10   12 1
    26   12   13 1
    27   12   32 1
    28   12   33 1
    29   13   34 1
    30   13   35 1
    31   13   41 1
    32   14   19 ar
    33   14   15 ar
    34   15   16 ar
    35   15   36 1
    36   16   17 ar
    37   16   37 1
    38   17   18 ar
    39   17   38 1
    40   18   19 ar
    41   18   39 1
    42   19   40 1
@<TRIPOS>MOLECULE
ZINC03831445
   38    40     0     0     0
SMALL
USER_CHARGES

@<TRIPOS>ATOM
      1 C1         -1.4442   -0.2039   -0.1605 C.3       1 <0>        -0.0511
      2 N1          0.0021   -0.0041    0.0020 N.4       1 <0>        -0.5092
      3 C2          0.7086   -0.5822   -1.1488 C.3       1 <0>         0.0816
      4 H1          0.3098   -0.1531   -2.0680 H         1 <0>         0.1469
      5 C3          0.4934   -2.0942   -1.1642 C.3       1 <0>        -0.1413
      6 C4          1.4083   -2.7021   -2.2339 C.3       1 <0>        -0.1095
      7 C5          2.8534   -2.5892   -1.7523 C.3       1 <0>        -0.0127
      8 H2          3.0040   -3.2606   -0.9069 H         1 <0>         0.1062
      9 C6          3.1607   -1.1774   -1.3263 C.ar      1 <0>        -0.0352
     10 C7          2.1759   -0.2577   -1.0450 C.ar      1 <0>        -0.1385
     11 C8          2.5279    1.0263   -0.6502 C.ar      1 <0>        -0.1274
     12 C9          3.8551    1.3873   -0.5408 C.ar      1 <0>        -0.1026
     13 C10         4.8433    0.4641   -0.8265 C.ar      1 <0>        -0.0867
     14 C11         4.4958   -0.8109   -1.2178 C.ar      1 <0>        -0.1009
     15 C12         3.7825   -2.9833   -2.8714 C.ar      1 <0>        -0.0756
     16 C13         3.7716   -2.2765   -4.0597 C.ar      1 <0>        -0.0935
     17 C14         4.6229   -2.6371   -5.0870 C.ar      1 <0>        -0.0936
     18 C15         5.4869   -3.7056   -4.9265 C.ar      1 <0>        -0.0279
     19 C16         5.4981   -4.4130   -3.7366 C.ar      1 <0>        -0.0285
     20 C17         4.6489   -4.0474   -2.7074 C.ar      1 <0>        -0.0930
     21 Cl1         6.5813   -5.7544   -3.5338 Cl        1 <0>        -0.0347
     22 Cl2         6.5560   -4.1593   -6.2168 Cl        1 <0>        -0.0346
     23 H3         -1.7595    0.1924   -1.1257 H         1 <0>         0.1249
     24 H4         -1.6714   -1.2689   -0.1132 H         1 <0>         0.1260
     25 H5         -1.9747    0.3167    0.6368 H         1 <0>         0.1285
     26 H6          0.2010    0.9836    0.0573 H         1 <0>         0.4271
     27 H7          0.7429   -2.5105   -0.1882 H         1 <0>         0.0924
     28 H8         -0.5471   -2.3145   -1.4027 H         1 <0>         0.0994
     29 H9          1.1520   -3.7510   -2.3834 H         1 <0>         0.0970
     30 H10         1.2900   -2.1577   -3.1708 H         1 <0>         0.0837
     31 H11         1.7563    1.7485   -0.4274 H         1 <0>         0.1198
     32 H12         4.1209    2.3877   -0.2326 H         1 <0>         0.1366
     33 H13         5.8839    0.7413   -0.7447 H         1 <0>         0.1371
     34 H14         5.2687   -1.5315   -1.4406 H         1 <0>         0.1342
     35 H15         3.0972   -1.4423   -4.1853 H         1 <0>         0.1342
     36 H16         4.6133   -2.0850   -6.0152 H         1 <0>         0.1463
     37 H17         4.6600   -4.5963   -1.7773 H         1 <0>         0.1446
     38 H18         0.3112   -0.4574    0.8488 H         1 <0>         0.4299
@<TRIPOS>BOND
     1    1    2 1
     2    1   23 1
     3    1   24 1
     4    1   25 1
     5    2    3 1
     6    2   26 1
     7    2   38 1
     8    3    4 1
     9    3   10 1
    10    3    5 1
    11    5    6 1
    12    5   27 1
    13    5   28 1
    14    6    7 1
    15    6   29 1
    16    6   30 1
    17    7    8 1
    18    7    9 1
    19    7   15 1
    20    9   14 ar
    21    9   10 ar
    22   10   11 ar
    23   11   12 ar
    24   11   31 1
    25   12   13 ar
    26   12   32 1
    27   13   14 ar
    28   13   33 1
    29   14   34 1
    30   15   20 ar
    31   15   16 ar
    32   16   17 ar
    33   16   35 1
    34   17   18 ar
    35   17   36 1
    36   18   19 ar
    37   18   22 1
    38   19   20 ar
    39   19   21 1
    40   20   37 1
@<TRIPOS>MOLECULE
ZINC01849595
   42    43     0     0     0
SMALL
USER_CHARGES

@<TRIPOS>ATOM
      1 C1         -0.3851    1.0108    0.3279 C.3       1 <0>        -0.0478
      2 N1         -0.2049   -0.4399    0.1821 N.4       1 <0>        -0.5077
      3 C2          0.5234   -0.7202   -1.0625 C.3       1 <0>        -0.0212
      4 C3          0.7110   -2.2310   -1.2143 C.3       1 <0>        -0.1666
      5 C4          1.4695   -2.5230   -2.5106 C.3       1 <0>         0.1354
      6 H1          2.4064   -1.9659   -2.5168 H         1 <0>         0.0955
      7 C5          1.7620   -3.9987   -2.6000 C.ar      1 <0>        -0.1114
      8 C6          0.8155   -4.8605   -3.1218 C.ar      1 <0>        -0.0876
      9 C7          1.0838   -6.2141   -3.2038 C.ar      1 <0>        -0.1189
     10 C8          2.2987   -6.7058   -2.7644 C.ar      1 <0>        -0.1029
     11 C9          3.2456   -5.8438   -2.2434 C.ar      1 <0>        -0.1177
     12 C10         2.9789   -4.4897   -2.1653 C.ar      1 <0>        -0.1060
     13 O1          0.6724   -2.1269   -3.6285 O.3       1 <0>        -0.2879
     14 C11         0.8839   -0.8791   -4.1264 C.ar      1 <0>         0.0843
     15 C12         1.8698   -0.0721   -3.5816 C.ar      1 <0>        -0.1932
     16 C13         2.0839    1.1958   -4.0892 C.ar      1 <0>        -0.1163
     17 C14         1.3157    1.6619   -5.1400 C.ar      1 <0>        -0.1059
     18 C15         0.3301    0.8620   -5.6877 C.ar      1 <0>        -0.1676
     19 C16         0.1146   -0.4122   -5.1877 C.ar      1 <0>         0.1069
     20 O2         -0.8505   -1.2026   -5.7294 O.3       1 <0>        -0.3059
     21 C17        -1.6011   -0.6574   -6.8163 C.3       1 <0>         0.0232
     22 H2          0.5902    1.4966    0.3602 H         1 <0>         0.1243
     23 H3         -0.9536    1.3933   -0.5198 H         1 <0>         0.1234
     24 H4         -0.9254    1.2188    1.2514 H         1 <0>         0.1282
     25 H5          0.3214   -0.7939    0.9668 H         1 <0>         0.4300
     26 H6         -0.0452   -0.3377   -1.9102 H         1 <0>         0.1354
     27 H7          1.4986   -0.2344   -1.0301 H         1 <0>         0.1346
     28 H8          1.2796   -2.6136   -0.3666 H         1 <0>         0.1068
     29 H9         -0.2642   -2.7169   -1.2467 H         1 <0>         0.1033
     30 H10        -0.1337   -4.4764   -3.4651 H         1 <0>         0.1291
     31 H11         0.3441   -6.8875   -3.6108 H         1 <0>         0.1286
     32 H12         2.5081   -7.7634   -2.8278 H         1 <0>         0.1288
     33 H13         4.1946   -6.2280   -1.8997 H         1 <0>         0.1295
     34 H14         3.7201   -3.8157   -1.7617 H         1 <0>         0.1233
     35 H15         2.4708   -0.4335   -2.7603 H         1 <0>         0.1348
     36 H16         2.8526    1.8238   -3.6638 H         1 <0>         0.1312
     37 H17         1.4857    2.6531   -5.5335 H         1 <0>         0.1331
     38 H18        -0.2688    1.2286   -6.5082 H         1 <0>         0.1406
     39 H19        -2.1136    0.2464   -6.4868 H         1 <0>         0.0574
     40 H20        -0.9269   -0.4140   -7.6375 H         1 <0>         0.0598
     41 H21        -2.3354   -1.3889   -7.1537 H         1 <0>         0.1064
     42 H22        -1.1076   -0.8896    0.1521 H         1 <0>         0.4312
@<TRIPOS>BOND
     1    1    2 1
     2    1   22 1
     3    1   23 1
     4    1   24 1
     5    2    3 1
     6    2   25 1
     7    2   42 1
     8    3    4 1
     9    3   26 1
    10    3   27 1
    11    4    5 1
    12    4   28 1
    13    4   29 1
    14    5    6 1
    15    5    7 1
    16    5   13 1
    17    7   12 ar
    18    7    8 ar
    19    8    9 ar
    20    8   30 1
    21    9   10 ar
    22    9   31 1
    23   10   11 ar
    24   10   32 1
    25   11   12 ar
    26   11   33 1
    27   12   34 1
    28   13   14 1
    29   14   19 ar
    30   14   15 ar
    31   15   16 ar
    32   15   35 1
    33   16   17 ar
    34   16   36 1
    35   17   18 ar
    36   17   37 1
    37   18   19 ar
    38   18   38 1
    39   19   20 1
    40   20   21 1
    41   21   39 1
    42   21   40 1
    43   21   41 1
@<TRIPOS>MOLECULE
ZINC01849597
   42    43     0     0     0
SMALL
USER_CHARGES

@<TRIPOS>ATOM
      1 C1         -0.0166    1.2593    0.2880 C.3       1 <0>        -0.0480
      2 N1          0.0148   -0.2051    0.1758 N.4       1 <0>        -0.5077
      3 C2          0.6916   -0.5864   -1.0709 C.3       1 <0>        -0.0209
      4 C3          0.7243   -2.1116   -1.1877 C.3       1 <0>        -0.1650
      5 C4          1.4292   -2.5087   -2.4862 C.3       1 <0>         0.1348
      6 H1          0.9416   -2.0186   -3.3289 H         1 <0>         0.0956
      7 C5          1.3536   -4.0035   -2.6620 C.ar      1 <0>        -0.1128
      8 C6          2.2248   -4.8255   -1.9720 C.ar      1 <0>        -0.0876
      9 C7          2.1554   -6.1967   -2.1332 C.ar      1 <0>        -0.1192
     10 C8          1.2146   -6.7458   -2.9842 C.ar      1 <0>        -0.1026
     11 C9          0.3428   -5.9238   -3.6736 C.ar      1 <0>        -0.1177
     12 C10         0.4094   -4.5529   -3.5090 C.ar      1 <0>        -0.1052
     13 O1          2.7987   -2.1046   -2.4276 O.3       1 <0>        -0.2886
     14 C11         3.1292   -0.9490   -3.0637 C.ar      1 <0>         0.0853
     15 C12         2.1401   -0.1600   -3.6287 C.ar      1 <0>        -0.1927
     16 C13         2.4778    1.0147   -4.2746 C.ar      1 <0>        -0.1164
     17 C14         3.8014    1.4050   -4.3588 C.ar      1 <0>        -0.1056
     18 C15         4.7931    0.6223   -3.7976 C.ar      1 <0>        -0.1673
     19 C16         4.4609   -0.5532   -3.1435 C.ar      1 <0>         0.1078
     20 O2          5.4347   -1.3213   -2.5856 O.3       1 <0>        -0.3058
     21 C17         6.7793   -0.8529   -2.7064 C.3       1 <0>         0.0232
     22 H2          1.0029    1.6450    0.2954 H         1 <0>         0.1237
     23 H3         -0.5570    1.6772   -0.5614 H         1 <0>         0.1242
     24 H4         -0.5188    1.5422    1.2131 H         1 <0>         0.1283
     25 H5          0.5150   -0.5920    0.9621 H         1 <0>         0.4314
     26 H6          0.1512   -0.1684   -1.9202 H         1 <0>         0.1340
     27 H7          1.7111   -0.2007   -1.0635 H         1 <0>         0.1361
     28 H8          1.2647   -2.5295   -0.3384 H         1 <0>         0.1034
     29 H9         -0.2952   -2.4973   -1.1951 H         1 <0>         0.1069
     30 H10         2.9598   -4.3965   -1.3071 H         1 <0>         0.1276
     31 H11         2.8365   -6.8389   -1.5946 H         1 <0>         0.1285
     32 H12         1.1609   -7.8170   -3.1107 H         1 <0>         0.1288
     33 H13        -0.3920   -6.3528   -4.3387 H         1 <0>         0.1295
     34 H14        -0.2742   -3.9109   -4.0448 H         1 <0>         0.1234
     35 H15         1.1055   -0.4630   -3.5649 H         1 <0>         0.1328
     36 H16         1.7060    1.6287   -4.7146 H         1 <0>         0.1308
     37 H17         4.0613    2.3232   -4.8645 H         1 <0>         0.1330
     38 H18         5.8264    0.9292   -3.8652 H         1 <0>         0.1405
     39 H19         7.0413   -0.7683   -3.7610 H         1 <0>         0.0595
     40 H20         6.8680    0.1237   -2.2304 H         1 <0>         0.0577
     41 H21         7.4544   -1.5569   -2.2197 H         1 <0>         0.1062
     42 H22        -0.9289   -0.5622    0.1690 H         1 <0>         0.4301
@<TRIPOS>BOND
     1    1    2 1
     2    1   22 1
     3    1   23 1
     4    1   24 1
     5    2    3 1
     6    2   25 1
     7    2   42 1
     8    3    4 1
     9    3   26 1
    10    3   27 1
    11    4    5 1
    12    4   28 1
    13    4   29 1
    14    5    6 1
    15    5    7 1
    16    5   13 1
    17    7   12 ar
    18    7    8 ar
    19    8    9 ar
    20    8   30 1
    21    9   10 ar
    22    9   31 1
    23   10   11 ar
    24   10   32 1
    25   11   12 ar
    26   11   33 1
    27   12   34 1
    28   13   14 1
    29   14   19 ar
    30   14   15 ar
    31   15   16 ar
    32   15   35 1
    33   16   17 ar
    34   16   36 1
    35   17   18 ar
    36   17   37 1
    37   18   19 ar
    38   18   38 1
    39   19   20 1
    40   20   21 1
    41   21   39 1
    42   21   40 1
    43   21   41 1
@<TRIPOS>MOLECULE
ZINC05958016
   44    45     0     0     0
SMALL
USER_CHARGES
1-[1-(2-chlorophenyl)-2-dimethylamino-ethyl]cyclohexan-1-ol
@<TRIPOS>ATOM
      1 C1          0.4610   -3.5739    2.4924 C.3       1 <0>        -0.0490
      2 C2          2.6992   -3.3332    3.3841 C.3       1 <0>        -0.0431
      3 C3          2.2889   -2.9632    1.0267 C.3       1 <0>        -0.0010
      4 C4          1.3764   -2.2272    0.0436 C.3       1 <0>        -0.0632
      5 H1          0.3601   -2.6105    0.1345 H         1 <0>         0.1170
      6 C5          1.3870   -0.7529    0.3556 C.ar      1 <0>        -0.1178
      7 C6          2.5889   -0.0827    0.4870 C.ar      1 <0>        -0.1146
      8 C7          2.5989    1.2693    0.7741 C.ar      1 <0>        -0.1040
      9 C8          1.4068    1.9524    0.9291 C.ar      1 <0>        -0.0873
     10 C9          0.2047    1.2836    0.7980 C.ar      1 <0>        -0.0992
     11 C10         0.1941   -0.0701    0.5111 C.ar      1 <0>        -0.0305
     12 Cl1        -1.3157   -0.9109    0.3457 Cl        1 <0>        -0.0514
     13 C11         1.8796   -2.4500   -1.3840 C.3       1 <0>         0.1554
     14 C12         3.3493   -2.0350   -1.4773 C.3       1 <0>        -0.1661
     15 C13         3.8526   -2.2578   -2.9049 C.3       1 <0>        -0.1241
     16 C14         3.0223   -1.4156   -3.8756 C.3       1 <0>        -0.1269
     17 C15         1.5526   -1.8306   -3.7823 C.3       1 <0>        -0.1257
     18 C16         1.0493   -1.6078   -2.3547 C.3       1 <0>        -0.1433
     19 O1          1.7525   -3.8322   -1.7237 O.3       1 <0>        -0.5611
     20 H2          0.6182   -4.6278    2.2632 H         1 <0>         0.1286
     21 H3          0.0742   -3.4764    3.5068 H         1 <0>         0.1251
     22 H4         -0.2559   -3.1518    1.7881 H         1 <0>         0.1164
     23 H5          3.5734   -2.6822    3.3886 H         1 <0>         0.1209
     24 H6          2.2339   -3.3236    4.3697 H         1 <0>         0.1243
     25 H7          3.0046   -4.3498    3.1364 H         1 <0>         0.1258
     26 H8          2.3542   -4.0141    0.7448 H         1 <0>         0.1476
     27 H9          3.2835   -2.5180    1.0022 H         1 <0>         0.1312
     28 H10         3.5204   -0.6157    0.3656 H         1 <0>         0.1431
     29 H11         3.5381    1.7924    0.8766 H         1 <0>         0.1397
     30 H12         1.4152    3.0090    1.1528 H         1 <0>         0.1428
     31 H13        -0.7264    1.8181    0.9151 H         1 <0>         0.1440
     32 H14         3.4463   -0.9807   -1.2182 H         1 <0>         0.0896
     33 H15         3.9408   -2.6350   -0.7857 H         1 <0>         0.0701
     34 H16         3.7556   -3.3121   -3.1639 H         1 <0>         0.0660
     35 H17         4.8996   -1.9622   -2.9713 H         1 <0>         0.0738
     36 H18         3.3808   -1.5744   -4.8926 H         1 <0>         0.0714
     37 H19         3.1193   -0.3613   -3.6165 H         1 <0>         0.0656
     38 H20         1.4556   -2.8849   -4.0414 H         1 <0>         0.0657
     39 H21         0.9611   -1.2307   -4.4739 H         1 <0>         0.0741
     40 H22         0.0023   -1.9035   -2.2883 H         1 <0>         0.0751
     41 H23         1.1463   -0.5535   -2.0957 H         1 <0>         0.0758
     42 H24         2.0535   -4.0470   -2.6172 H         1 <0>         0.3915
     43 N1          1.7315   -2.8258    2.3887 N.4       1 <0>        -0.3988
     44 H25         1.5500   -1.8327    2.5762 H         1 <0>         0.4267
@<TRIPOS>BOND
     1    1   20 1
     2    1   21 1
     3    1   22 1
     4    1   43 1
     5    2   23 1
     6    2   24 1
     7    2   25 1
     8    2   43 1
     9    3    4 1
    10    3   26 1
    11    3   27 1
    12    3   43 1
    13    4    5 1
    14    4    6 1
    15    4   13 1
    16    6   11 ar
    17    6    7 ar
    18    7    8 ar
    19    7   28 1
    20    8    9 ar
    21    8   29 1
    22    9   10 ar
    23    9   30 1
    24   10   11 ar
    25   10   31 1
    26   11   12 1
    27   13   18 1
    28   13   14 1
    29   13   19 1
    30   14   15 1
    31   14   32 1
    32   14   33 1
    33   15   16 1
    34   15   34 1
    35   15   35 1
    36   16   17 1
    37   16   36 1
    38   16   37 1
    39   17   18 1
    40   17   38 1
    41   17   39 1
    42   18   40 1
    43   18   41 1
    44   19   42 1
    45   43   44 1
@<TRIPOS>MOLECULE
ZINC05958046
   44    45     0     0     0
SMALL
USER_CHARGES
1-[1-(2-chlorophenyl)-2-dimethylamino-ethyl]cyclohexan-1-ol
@<TRIPOS>ATOM
      1 C1          3.0610    2.3210   -3.8451 C.3       1 <0>        -0.0425
      2 C2          2.3675    0.3527   -2.6172 C.3       1 <0>        -0.0501
      3 C3          3.5829    2.1173   -1.4895 C.3       1 <0>         0.0007
      4 C4          2.9284    1.9180   -0.1210 C.3       1 <0>        -0.0617
      5 H1          2.5221    0.9086   -0.0561 H         1 <0>         0.1151
      6 C5          1.8161    2.9195    0.0546 C.ar      1 <0>        -0.1192
      7 C6          2.0915    4.2734    0.0098 C.ar      1 <0>        -0.0836
      8 C7          1.0713    5.1921    0.1703 C.ar      1 <0>        -0.1103
      9 C8         -0.2252    4.7575    0.3753 C.ar      1 <0>        -0.0889
     10 C9         -0.5025    3.4043    0.4150 C.ar      1 <0>        -0.1053
     11 C10         0.5193    2.4841    0.2601 C.ar      1 <0>        -0.0403
     12 Cl1         0.1727    0.7840    0.3166 Cl        1 <0>        -0.0612
     13 C11         3.9736    2.1187    0.9783 C.3       1 <0>         0.1554
     14 C12         5.0357    1.0220    0.8785 C.3       1 <0>        -0.1501
     15 C13         6.0809    1.2227    1.9777 C.3       1 <0>        -0.1240
     16 C14         5.4014    1.1515    3.3467 C.3       1 <0>        -0.1280
     17 C15         4.3392    2.2482    3.4465 C.3       1 <0>        -0.1246
     18 C16         3.2940    2.0475    2.3472 C.3       1 <0>        -0.1424
     19 O1          4.5923    3.3970    0.8196 O.3       1 <0>        -0.5606
     20 H2          4.0209    1.8746   -4.1049 H         1 <0>         0.1255
     21 H3          2.3254    2.0715   -4.6097 H         1 <0>         0.1233
     22 H4          3.1686    3.4039   -3.7839 H         1 <0>         0.1219
     23 H5          1.8829    0.0215   -1.6987 H         1 <0>         0.1151
     24 H6          1.7214    0.1352   -3.4676 H         1 <0>         0.1263
     25 H7          3.3154   -0.1718   -2.7374 H         1 <0>         0.1275
     26 H8          3.9042    3.1539   -1.5910 H         1 <0>         0.1414
     27 H9          4.4469    1.4587   -1.5784 H         1 <0>         0.1388
     28 H10         3.1038    4.6134   -0.1511 H         1 <0>         0.1521
     29 H11         1.2869    6.2498    0.1352 H         1 <0>         0.1372
     30 H12        -1.0220    5.4758    0.5000 H         1 <0>         0.1403
     31 H13        -1.5159    3.0650    0.5711 H         1 <0>         0.1414
     32 H14         4.5638    0.0470    0.9995 H         1 <0>         0.0775
     33 H15         5.5199    1.0728   -0.0968 H         1 <0>         0.0700
     34 H16         6.5529    2.1978    1.8566 H         1 <0>         0.0665
     35 H17         6.8376    0.4414    1.9066 H         1 <0>         0.0741
     36 H18         6.1459    1.2945    4.1298 H         1 <0>         0.0712
     37 H19         4.9294    0.1765    3.4677 H         1 <0>         0.0666
     38 H20         4.8111    3.2232    3.3254 H         1 <0>         0.0652
     39 H21         3.8551    2.1974    4.4217 H         1 <0>         0.0734
     40 H22         2.5373    2.8288    2.4183 H         1 <0>         0.0756
     41 H23         2.8221    1.0724    2.4683 H         1 <0>         0.0743
     42 H24         5.2675    3.5923    1.4837 H         1 <0>         0.3899
     43 N1          2.5890    1.8121   -2.5401 N.4       1 <0>        -0.4006
     44 H25         1.7020    2.2720   -2.3038 H         1 <0>         0.4271
@<TRIPOS>BOND
     1    1   20 1
     2    1   21 1
     3    1   22 1
     4    1   43 1
     5    2   23 1
     6    2   24 1
     7    2   25 1
     8    2   43 1
     9    3    4 1
    10    3   26 1
    11    3   27 1
    12    3   43 1
    13    4    5 1
    14    4    6 1
    15    4   13 1
    16    6   11 ar
    17    6    7 ar
    18    7    8 ar
    19    7   28 1
    20    8    9 ar
    21    8   29 1
    22    9   10 ar
    23    9   30 1
    24   10   11 ar
    25   10   31 1
    26   11   12 1
    27   13   18 1
    28   13   14 1
    29   13   19 1
    30   14   15 1
    31   14   32 1
    32   14   33 1
    33   15   16 1
    34   15   34 1
    35   15   35 1
    36   16   17 1
    37   16   36 1
    38   16   37 1
    39   17   18 1
    40   17   38 1
    41   17   39 1
    42   18   40 1
    43   18   41 1
    44   19   42 1
    45   43   44 1
@<TRIPOS>MOLECULE
ZINC01536780
   41    43     0     0     0
SMALL
USER_CHARGES
N-methyl-3-(1-naphthyloxy)-3-(2-thienyl)propan-1-amine
@<TRIPOS>ATOM
      1 C1          0.8239    5.9943   -4.5067 C.3       1 <0>        -0.0433
      2 C2          0.3351    5.0371   -2.3370 C.3       1 <0>        -0.0090
      3 C3         -0.0614    5.3720   -0.8977 C.3       1 <0>        -0.1424
      4 C4         -0.1746    4.0799   -0.0861 C.3       1 <0>         0.1853
      5 H1         -0.8678    3.3996   -0.5808 H         1 <0>         0.1030
      6 C5         -0.6834    4.3980    1.2962 C.2       1 <0>        -0.2174
      7 C6         -1.9404    4.2836    1.7905 C.2       1 <0>        -0.1217
      8 C7         -2.1779    4.6346    3.1062 C.2       1 <0>        -0.1688
      9 C8         -1.1490    5.0930    3.8602 C.2       1 <0>        -0.1526
     10 S1          0.2113    5.0307    2.7056 S.3       1 <0>         0.0832
     11 O1          1.1111    3.4635    0.0097 O.3       1 <0>        -0.3032
     12 C9          1.1375    2.1237    0.2299 C.ar      1 <0>         0.1316
     13 C10        -0.0240    1.4411    0.4598 C.ar      1 <0>        -0.2057
     14 C11        -0.0137    0.0679    0.6869 C.ar      1 <0>        -0.0827
     15 C12         1.1523   -0.6356    0.6866 C.ar      1 <0>        -0.1286
     16 C13         2.3682    0.0293    0.4540 C.ar      1 <0>        -0.0223
     17 C14         2.3631    1.4273    0.2224 C.ar      1 <0>        -0.0638
     18 C15         3.5779    2.0917   -0.0108 C.ar      1 <0>        -0.0959
     19 C16         4.7423    1.3864   -0.0111 C.ar      1 <0>        -0.1186
     20 C17         4.7481    0.0116    0.2170 C.ar      1 <0>        -0.1028
     21 C18         3.5900   -0.6655    0.4461 C.ar      1 <0>        -0.1091
     22 H2          1.7877    5.4855   -4.5234 H         1 <0>         0.1236
     23 H3          0.0687    5.3573   -4.9672 H         1 <0>         0.1230
     24 H4          0.8972    6.9299   -5.0611 H         1 <0>         0.1268
     25 H5          1.2956    4.5217   -2.3387 H         1 <0>         0.1398
     26 H6         -0.4234    4.3934   -2.7825 H         1 <0>         0.1335
     27 H7         -1.0219    5.8874   -0.8961 H         1 <0>         0.1121
     28 H8          0.6971    6.0156   -0.4523 H         1 <0>         0.1045
     29 H9         -2.7437    3.9208    1.1664 H         1 <0>         0.1341
     30 H10        -3.1694    4.5493    3.5257 H         1 <0>         0.1406
     31 H11        -1.1515    5.4132    4.8916 H         1 <0>         0.1917
     32 H12        -0.9634    1.9740    0.4610 H         1 <0>         0.1266
     33 H13        -0.9455   -0.4481    0.8658 H         1 <0>         0.1280
     34 H14         1.1425   -1.7008    0.8641 H         1 <0>         0.1327
     35 H15         3.5885    3.1569   -0.1886 H         1 <0>         0.1266
     36 H16         5.6752    1.8998   -0.1911 H         1 <0>         0.1262
     37 H17         5.6856   -0.5246    0.2114 H         1 <0>         0.1287
     38 H18         3.6096   -1.7310    0.6214 H         1 <0>         0.1339
     39 N1          0.4420    6.2874   -3.1124 N.4       1 <0>        -0.5188
     40 H19        -0.4643    6.7699   -3.1037 H         1 <0>         0.4347
     41 H20         1.1550    6.8906   -2.6856 H         1 <0>         0.4363
@<TRIPOS>BOND
     1    1   22 1
     2    1   23 1
     3    1   24 1
     4    1   39 1
     5    2    3 1
     6    2   25 1
     7    2   26 1
     8    2   39 1
     9    3    4 1
    10    3   27 1
    11    3   28 1
    12    4    5 1
    13    4    6 1
    14    4   11 1
    15    6   10 1
    16    6    7 2
    17    7    8 1
    18    7   29 1
    19    8    9 2
    20    8   30 1
    21    9   10 1
    22    9   31 1
    23   11   12 1
    24   12   17 ar
    25   12   13 ar
    26   13   14 ar
    27   13   32 1
    28   14   15 ar
    29   14   33 1
    30   15   16 ar
    31   15   34 1
    32   16   21 ar
    33   16   17 ar
    34   17   18 ar
    35   18   19 ar
    36   18   35 1
    37   19   20 ar
    38   19   36 1
    39   20   21 ar
    40   20   37 1
    41   21   38 1
    42   39   40 1
    43   39   41 1
@<TRIPOS>MOLECULE
ZINC19796155
   42    45     0     0     0
SMALL
USER_CHARGES

@<TRIPOS>ATOM
      1 C1         -0.0670    1.4396   -0.3852 C.3       1 <0>         0.0243
      2 N1         -0.0229   -0.0169   -0.1987 N.3       1 <0>        -0.5428
      3 C2          0.3808   -0.6943   -1.4380 C.3       1 <0>         0.0399
      4 C3          0.2401   -2.2095   -1.2572 C.3       1 <0>         0.1263
      5 N2          0.9912   -2.6085   -0.0572 N.pl3     1 <0>        -0.5953
      6 C4          0.7394   -1.8803    1.1955 C.3       1 <0>         0.1122
      7 C5          0.8604   -0.3781    0.9181 C.3       1 <0>         0.0393
      8 C6          1.9051   -3.6365   -0.1053 C.2       1 <0>         0.5098
      9 N3          2.1670   -4.1290   -1.2643 N.2       1 <0>        -0.6041
     10 C7          3.0130   -5.1503   -1.5719 C.ar      1 <0>         0.1655
     11 C8          2.6280   -6.0848   -2.5372 C.ar      1 <0>        -0.1058
     12 C9          3.4872   -7.1047   -2.8991 C.ar      1 <0>        -0.0230
     13 C10         4.7348   -7.2069   -2.3106 C.ar      1 <0>        -0.1209
     14 C11         5.1212   -6.2977   -1.3402 C.ar      1 <0>        -0.1017
     15 C12         4.2618   -5.2835   -0.9546 C.ar      1 <0>         0.1117
     16 N4          4.6314   -4.4326    0.1003 N.pl3     1 <0>        -0.7261
     17 C13         3.8434   -4.4184    1.2519 C.ar      1 <0>         0.2140
     18 C14         2.4943   -4.0640    1.1729 C.ar      1 <0>        -0.1453
     19 C15         1.7072   -4.1133    2.3240 C.ar      1 <0>        -0.0723
     20 C16         2.2727   -4.4729    3.5311 C.ar      1 <0>        -0.1389
     21 C17         3.6189   -4.7825    3.6069 C.ar      1 <0>        -0.0765
     22 C18         4.3974   -4.7629    2.4751 C.ar      1 <0>        -0.1433
     23 Cl1         2.9987   -8.2627   -4.0966 Cl        1 <0>        -0.0679
     24 H1          0.9359    1.8090   -0.5992 H         1 <0>         0.0255
     25 H2         -0.7279    1.6794   -1.2181 H         1 <0>         0.0711
     26 H3         -0.4416    1.9111    0.5233 H         1 <0>         0.0709
     27 H4         -0.2581   -0.3649   -2.2574 H         1 <0>         0.0878
     28 H5          1.4186   -0.4499   -1.6647 H         1 <0>         0.0378
     29 H6         -0.8117   -2.4673   -1.1334 H         1 <0>         0.0720
     30 H7          0.6453   -2.7216   -2.1299 H         1 <0>         0.1060
     31 H8         -0.2645   -2.1065    1.5551 H         1 <0>         0.0792
     32 H9          1.4746   -2.1748    1.9444 H         1 <0>         0.0984
     33 H10         1.8915   -0.1381    0.6586 H         1 <0>         0.0379
     34 H11         0.5693    0.1807    1.8075 H         1 <0>         0.0892
     35 H12         1.6558   -6.0097   -3.0016 H         1 <0>         0.1375
     36 H13         5.4083   -7.9971   -2.6081 H         1 <0>         0.1357
     37 H14         6.0961   -6.3802   -0.8829 H         1 <0>         0.1326
     38 H15         5.4169   -3.8679    0.0299 H         1 <0>         0.4097
     39 H16         0.6563   -3.8699    2.2709 H         1 <0>         0.1344
     40 H17         1.6613   -4.5124    4.4205 H         1 <0>         0.1323
     41 H18         4.0571   -5.0467    4.5580 H         1 <0>         0.1317
     42 H19         5.4473   -5.0071    2.5424 H         1 <0>         0.1313
@<TRIPOS>BOND
     1    1    2 1
     2    1   24 1
     3    1   25 1
     4    1   26 1
     5    2    7 1
     6    2    3 1
     7    3    4 1
     8    3   27 1
     9    3   28 1
    10    4    5 1
    11    4   29 1
    12    4   30 1
    13    5    6 1
    14    5    8 1
    15    6    7 1
    16    6   31 1
    17    6   32 1
    18    7   33 1
    19    7   34 1
    20    8   18 1
    21    8    9 2
    22    9   10 1
    23   10   15 ar
    24   10   11 ar
    25   11   12 ar
    26   11   35 1
    27   12   13 ar
    28   12   23 1
    29   13   14 ar
    30   13   36 1
    31   14   15 ar
    32   14   37 1
    33   15   16 1
    34   16   17 1
    35   16   38 1
    36   17   22 ar
    37   17   18 ar
    38   18   19 ar
    39   19   20 ar
    40   19   39 1
    41   20   21 ar
    42   20   40 1
    43   21   22 ar
    44   21   41 1
    45   22   42 1
@<TRIPOS>MOLECULE
ZINC19796155
   44    47     0     0     0
SMALL
USER_CHARGES

@<TRIPOS>ATOM
      1 C1         -1.5703   -0.0018   -1.9302 C.3       1 <0>        -0.0497
      2 N1         -0.7527   -0.7171   -0.9414 N.4       1 <0>        -0.3854
      3 C2         -1.0498   -2.1535   -1.0104 C.3       1 <0>        -0.0252
      4 C3         -0.2839   -2.8861    0.0962 C.3       1 <0>         0.1048
      5 N2          1.1441   -2.5548   -0.0269 N.pl3     1 <0>        -0.7052
      6 C4          1.5202   -1.1363   -0.1296 C.3       1 <0>         0.1049
      7 C5          0.6692   -0.4862   -1.2256 C.3       1 <0>        -0.0251
      8 C6          2.0831   -3.5253   -0.0448 C.2       1 <0>         0.6309
      9 C7          2.6112   -3.9094    1.2074 C.ar      1 <0>        -0.2438
     10 C8          2.0495   -3.1929    2.2728 C.ar      1 <0>         0.0055
     11 C9          2.4602   -3.4528    3.5483 C.ar      1 <0>        -0.1817
     12 C10         3.4265   -4.4148    3.8208 C.ar      1 <0>         0.0489
     13 C11         4.0101   -5.1439    2.8276 C.ar      1 <0>        -0.2233
     14 C12         3.6302   -4.9235    1.4921 C.ar      1 <0>         0.3343
     15 N3          4.2865   -5.7106    0.6358 N.pl3     1 <0>        -0.6131
     16 C13         4.1767   -5.7728   -0.7271 C.ar      1 <0>         0.1589
     17 C14         5.0408   -6.7320   -1.2562 C.ar      1 <0>        -0.1157
     18 C15         5.0795   -6.9478   -2.6222 C.ar      1 <0>        -0.0495
     19 C16         4.2642   -6.2154   -3.4643 C.ar      1 <0>        -0.0338
     20 C17         3.4016   -5.2585   -2.9468 C.ar      1 <0>        -0.0846
     21 C18         3.3520   -5.0321   -1.5848 C.ar      1 <0>         0.0769
     22 N4          2.4115   -4.0290   -1.2719 N.pl3     1 <0>        -0.5773
     23 Cl1         4.3195   -6.4929   -5.1771 Cl        1 <0>        -0.0159
     24 H1         -1.3348   -0.3678   -2.9295 H         1 <0>         0.1246
     25 H2         -2.6262   -0.1724   -1.7203 H         1 <0>         0.1321
     26 H3         -1.3566    1.0656   -1.8745 H         1 <0>         0.1321
     27 H4         -2.1201   -2.3101   -0.8766 H         1 <0>         0.1569
     28 H5         -0.7442   -2.5415   -1.9820 H         1 <0>         0.1344
     29 H6         -0.6518   -2.5648    1.0707 H         1 <0>         0.1155
     30 H7         -0.4211   -3.9618   -0.0138 H         1 <0>         0.1302
     31 H8          1.3345   -0.6383    0.8220 H         1 <0>         0.1155
     32 H9          2.5758   -1.0551   -0.3891 H         1 <0>         0.1302
     33 H10         0.9228   -0.9247   -2.1907 H         1 <0>         0.1344
     34 H11         0.8655    0.5856   -1.2504 H         1 <0>         0.1569
     35 H12         1.2975   -2.4405    2.0860 H         1 <0>         0.1502
     36 H13         2.0243   -2.8976    4.3657 H         1 <0>         0.1496
     37 H14         3.7223   -4.5886    4.8448 H         1 <0>         0.1558
     38 H15         4.7590   -5.8851    3.0650 H         1 <0>         0.1623
     39 H16         5.6790   -7.3052   -0.6001 H         1 <0>         0.1677
     40 H17         5.7487   -7.6901   -3.0316 H         1 <0>         0.1653
     41 H18         2.7675   -4.6896   -3.6107 H         1 <0>         0.1565
     42 H19         1.9393   -3.6432   -2.0263 H         1 <0>         0.4255
     43 H20         4.9278   -6.3202    1.0333 H         1 <0>         0.4372
     44 H21        -0.9695   -0.3754   -0.0171 H         1 <0>         0.4310
@<TRIPOS>BOND
     1    1    2 1
     2    1   24 1
     3    1   25 1
     4    1   26 1
     5    2    7 1
     6    2    3 1
     7    2   44 1
     8    3    4 1
     9    3   27 1
    10    3   28 1
    11    4    5 1
    12    4   29 1
    13    4   30 1
    14    5    6 1
    15    5    8 1
    16    6    7 1
    17    6   31 1
    18    6   32 1
    19    7   33 1
    20    7   34 1
    21    8   22 1
    22    8    9 2
    23    9   14 ar
    24    9   10 ar
    25   10   11 ar
    26   10   35 1
    27   11   12 ar
    28   11   36 1
    29   12   13 ar
    30   12   37 1
    31   13   14 ar
    32   13   38 1
    33   14   15 2
    34   15   16 1
    35   15   43 1
    36   16   21 ar
    37   16   17 ar
    38   17   18 ar
    39   17   39 1
    40   18   19 ar
    41   18   40 1
    42   19   20 ar
    43   19   23 1
    44   20   21 ar
    45   20   41 1
    46   21   22 1
    47   22   42 1
@<TRIPOS>MOLECULE
ZINC19796155
   43    46     0     0     0
SMALL
USER_CHARGES

@<TRIPOS>ATOM
      1 C1         -0.0523    1.4387   -0.3863 C.3       1 <0>        -0.0469
      2 N1         -0.0147   -0.0168   -0.1908 N.4       1 <0>        -0.3852
      3 C2          0.4863   -0.6601   -1.4120 C.3       1 <0>        -0.0213
      4 C3          0.4181   -2.1823   -1.2510 C.3       1 <0>         0.1002
      5 N2          1.1441   -2.5548   -0.0269 N.pl3     1 <0>        -0.6180
      6 C4          0.8178   -1.8405    1.2170 C.3       1 <0>         0.0860
      7 C5          0.8671   -0.3344    0.9395 C.3       1 <0>        -0.0221
      8 C6          2.1017   -3.5432   -0.0451 C.2       1 <0>         0.5019
      9 N3          2.4234   -4.0210   -1.1951 N.2       1 <0>        -0.5760
     10 C7          3.3217   -5.0050   -1.4750 C.ar      1 <0>         0.1390
     11 C8          3.0096   -5.9522   -2.4541 C.ar      1 <0>        -0.0932
     12 C9          3.9229   -6.9340   -2.7877 C.ar      1 <0>        -0.0267
     13 C10         5.1529   -6.9852   -2.1572 C.ar      1 <0>        -0.1032
     14 C11         5.4673   -6.0631   -1.1730 C.ar      1 <0>        -0.1031
     15 C12         4.5533   -5.0871   -0.8155 C.ar      1 <0>         0.1235
     16 N4          4.8505   -4.2243    0.2524 N.pl3     1 <0>        -0.7273
     17 C13         4.0239   -4.2464    1.3765 C.ar      1 <0>         0.2173
     18 C14         2.6645   -3.9489    1.2520 C.ar      1 <0>        -0.1537
     19 C15         1.8414   -4.0345    2.3754 C.ar      1 <0>        -0.0841
     20 C16         2.3802   -4.3733    3.6007 C.ar      1 <0>        -0.1334
     21 C17         3.7349   -4.6261    3.7220 C.ar      1 <0>        -0.0692
     22 C18         4.5500   -4.5705    2.6174 C.ar      1 <0>        -0.1369
     23 Cl1         3.5248   -8.1083   -4.0027 Cl        1 <0>        -0.0551
     24 H1          0.9534    1.8033   -0.5956 H         1 <0>         0.1211
     25 H2         -0.7066    1.6758   -1.2253 H         1 <0>         0.1256
     26 H3         -0.4316    1.9169    0.5167 H         1 <0>         0.1252
     27 H4         -0.1269   -0.3565   -2.2605 H         1 <0>         0.1425
     28 H5          1.5196   -0.3587   -1.5839 H         1 <0>         0.1315
     29 H6         -0.6226   -2.4957   -1.1694 H         1 <0>         0.0898
     30 H7          0.8819   -2.6629   -2.1125 H         1 <0>         0.1431
     31 H8         -0.1827   -2.1194    1.5479 H         1 <0>         0.0960
     32 H9          1.5457   -2.0950    1.9873 H         1 <0>         0.1385
     33 H10         1.8889   -0.0428    0.6965 H         1 <0>         0.1320
     34 H11         0.5345    0.2092    1.8238 H         1 <0>         0.1439
     35 H12         2.0515   -5.9169   -2.9512 H         1 <0>         0.1396
     36 H13         5.8689   -7.7454   -2.4325 H         1 <0>         0.1422
     37 H14         6.4287   -6.1057   -0.6827 H         1 <0>         0.1382
     38 H15         5.6134   -3.6267    0.2096 H         1 <0>         0.4129
     39 H16         0.7836   -3.8354    2.2868 H         1 <0>         0.1314
     40 H17         1.7411   -4.4409    4.4686 H         1 <0>         0.1357
     41 H18         4.1512   -4.8742    4.6872 H         1 <0>         0.1370
     42 H19         5.6063   -4.7705    2.7202 H         1 <0>         0.1363
     43 H20        -0.9456   -0.3526    0.0057 H         1 <0>         0.4250
@<TRIPOS>BOND
     1    1    2 1
     2    1   24 1
     3    1   25 1
     4    1   26 1
     5    2    7 1
     6    2    3 1
     7    2   43 1
     8    3    4 1
     9    3   27 1
    10    3   28 1
    11    4    5 1
    12    4   29 1
    13    4   30 1
    14    5    6 1
    15    5    8 1
    16    6    7 1
    17    6   31 1
    18    6   32 1
    19    7   33 1
    20    7   34 1
    21    8   18 1
    22    8    9 2
    23    9   10 1
    24   10   15 ar
    25   10   11 ar
    26   11   12 ar
    27   11   35 1
    28   12   13 ar
    29   12   23 1
    30   13   14 ar
    31   13   36 1
    32   14   15 ar
    33   14   37 1
    34   15   16 1
    35   16   17 1
    36   16   38 1
    37   17   22 ar
    38   17   18 ar
    39   18   19 ar
    40   19   20 ar
    41   19   39 1
    42   20   21 ar
    43   20   40 1
    44   21   22 ar
    45   21   41 1
    46   22   42 1
@<TRIPOS>MOLECULE
ZINC05649654
   41    42     0     0     0
SMALL
USER_CHARGES
2-(aminomethyl)-N,N-diethyl-1-phenyl-cyclopropane-1-carboxamide
@<TRIPOS>ATOM
      1 C1         -1.7658    7.2163   -1.3889 C.3       1 <0>        -0.1742
      2 C2         -0.9455    6.5866   -0.2614 C.3       1 <0>         0.0927
      3 N1         -1.8267    6.2693    0.8652 N.am      1 <0>        -0.5958
      4 C3         -2.1488    7.2994    1.8558 C.3       1 <0>         0.1064
      5 C4         -1.1164    7.2621    2.9844 C.3       1 <0>        -0.1684
      6 C5         -2.3410    5.0299    0.9901 C.2       1 <0>         0.5508
      7 O1         -3.1395    4.7907    1.8711 O.2       1 <0>        -0.5318
      8 C6         -1.9239    3.9411    0.0353 C.3       1 <0>        -0.0773
      9 C7         -2.5532    3.9453   -1.3593 C.3       1 <0>        -0.1447
     10 C8         -2.9694    2.8871   -0.3345 C.3       1 <0>        -0.1710
     11 H1         -3.9590    2.9813    0.1125 H         1 <0>         0.1397
     12 C9         -2.4799    1.4549   -0.5589 C.3       1 <0>         0.0313
     13 C10        -0.4909    3.4893    0.1507 C.ar      1 <0>        -0.0736
     14 C11         0.3345    3.5186   -0.9578 C.ar      1 <0>        -0.1158
     15 C12         1.6474    3.0987   -0.8533 C.ar      1 <0>        -0.1111
     16 C13         2.1380    2.6598    0.3623 C.ar      1 <0>        -0.1043
     17 C14         1.3142    2.6359    1.4721 C.ar      1 <0>        -0.1099
     18 C15        -0.0002    3.0509    1.3664 C.ar      1 <0>        -0.1050
     19 H2         -2.5340    6.5150   -1.7148 H         1 <0>         0.0563
     20 H3         -2.2377    8.1302   -1.0282 H         1 <0>         0.0630
     21 H4         -1.1102    7.4523   -2.2271 H         1 <0>         0.0736
     22 H5         -0.1773    7.2879    0.0645 H         1 <0>         0.0823
     23 H6         -0.4736    5.6726   -0.6221 H         1 <0>         0.0885
     24 H7         -2.1312    8.2797    1.3796 H         1 <0>         0.0833
     25 H8         -3.1415    7.1121    2.2651 H         1 <0>         0.0876
     26 H9         -1.1340    6.2818    3.4607 H         1 <0>         0.0570
     27 H10        -0.1237    7.4494    2.5751 H         1 <0>         0.0575
     28 H11        -1.3561    8.0285    3.7215 H         1 <0>         0.0730
     29 H12        -3.2692    4.7352   -1.5860 H         1 <0>         0.1201
     30 H13        -1.9306    3.6216   -2.1934 H         1 <0>         0.1217
     31 H14        -1.8097    1.4304   -1.4181 H         1 <0>         0.1385
     32 H15        -1.9473    1.1100    0.3273 H         1 <0>         0.1368
     33 H16        -4.1784    0.9139   -1.5889 H         1 <0>         0.4387
     34 H17        -3.3339   -0.3744   -0.9621 H         1 <0>         0.4419
     35 H18        -0.0475    3.8657   -1.9065 H         1 <0>         0.1281
     36 H19         2.2911    3.1177   -1.7203 H         1 <0>         0.1312
     37 H20         3.1650    2.3360    0.4450 H         1 <0>         0.1303
     38 H21         1.6976    2.2933    2.4219 H         1 <0>         0.1300
     39 H22        -0.6438    3.0322    2.2334 H         1 <0>         0.1240
     40 N2         -3.6434    0.5804   -0.7887 N.4       1 <0>        -0.6433
     41 H23        -4.2440    0.5919    0.0441 H         1 <0>         0.4419
@<TRIPOS>BOND
     1    1    2 1
     2    1   19 1
     3    1   20 1
     4    1   21 1
     5    2    3 1
     6    2   22 1
     7    2   23 1
     8    3    4 1
     9    3    6 am
    10    4    5 1
    11    4   24 1
    12    4   25 1
    13    5   26 1
    14    5   27 1
    15    5   28 1
    16    6    7 2
    17    6    8 1
    18    8   10 1
    19    8    9 1
    20    8   13 1
    21    9   10 1
    22    9   29 1
    23    9   30 1
    24   10   11 1
    25   10   12 1
    26   12   31 1
    27   12   32 1
    28   12   40 1
    29   13   18 ar
    30   13   14 ar
    31   14   15 ar
    32   14   35 1
    33   15   16 ar
    34   15   36 1
    35   16   17 ar
    36   16   37 1
    37   17   18 ar
    38   17   38 1
    39   18   39 1
    40   33   40 1
    41   34   40 1
    42   40   41 1
@<TRIPOS>MOLECULE
ZINC03973106
   26    28     0     0     0
SMALL
USER_CHARGES

@<TRIPOS>ATOM
      1 C1         -0.0167    1.3783    0.0096 C.ar      1 <0>        -0.0928
      2 C2          0.0021   -0.0041    0.0020 C.ar      1 <0>        -0.0898
      3 C3          1.2090   -0.6792   -0.0132 C.ar      1 <0>        -0.0236
      4 C4          2.3983    0.0303   -0.0208 C.ar      1 <0>        -0.0274
      5 C5          2.3777    1.4131   -0.0131 C.ar      1 <0>        -0.0900
      6 C6          1.1704    2.0864    0.0021 C.ar      1 <0>        -0.0484
      7 C7          1.1484    3.5932    0.0104 C.3       1 <0>        -0.1136
      8 C8          1.5780    4.3605   -1.2416 C.3       1 <0>        -0.1147
      9 C9          2.4467    4.4245    0.0647 C.3       1 <0>        -0.1809
     10 H1          3.4285    3.9535    0.1133 H         1 <0>         0.1576
     11 C10         2.1586    5.5528    1.0783 C.3       1 <0>         0.0228
     12 C11         0.1850    4.2891    0.9958 C.3       1 <0>         0.0280
     13 Cl1         3.9142   -0.8156   -0.0404 Cl        1 <0>        -0.0281
     14 Cl2         1.2332   -2.4150   -0.0222 Cl        1 <0>        -0.0266
     15 H2         -0.9594    1.9052    0.0170 H         1 <0>         0.1398
     16 H3         -0.9258   -0.5567    0.0083 H         1 <0>         0.1518
     17 H4          3.3048    1.9671   -0.0194 H         1 <0>         0.1430
     18 H5          1.9538    3.7786   -2.0832 H         1 <0>         0.1338
     19 H6          1.0085    5.2519   -1.5046 H         1 <0>         0.1089
     20 H7          2.6253    6.4830    0.7545 H         1 <0>         0.1480
     21 H8          2.5143    5.2730    2.0699 H         1 <0>         0.1437
     22 H9         -0.8342    4.2680    0.6098 H         1 <0>         0.1473
     23 H10         0.2303    3.8103    1.9739 H         1 <0>         0.1448
     24 N1          0.6988    5.6572    1.0759 N.4       1 <0>        -0.5145
     25 H11         0.3834    6.2026    0.2652 H         1 <0>         0.4370
     26 H12         0.3739    6.1082    1.9392 H         1 <0>         0.4439
@<TRIPOS>BOND
     1    1    6 ar
     2    1    2 ar
     3    1   15 1
     4    2    3 ar
     5    2   16 1
     6    3    4 ar
     7    3   14 1
     8    4    5 ar
     9    4   13 1
    10    5    6 ar
    11    5   17 1
    12    6    7 1
    13    7    9 1
    14    7   12 1
    15    7    8 1
    16    8    9 1
    17    8   18 1
    18    8   19 1
    19    9   10 1
    20    9   11 1
    21   11   20 1
    22   11   21 1
    23   11   24 1
    24   12   22 1
    25   12   23 1
    26   12   24 1
    27   24   25 1
    28   24   26 1
@<TRIPOS>MOLECULE
ZINC27552075
   26    28     0     0     0
SMALL
USER_CHARGES
(1S,5R)-1-phenyl-3-azabicyclo[3.1.0]hexane
@<TRIPOS>ATOM
      1 C1          1.1563    3.1654    0.0081 C.ar      1 <0>        -0.1060
      2 C2          1.1750    1.7832    0.0004 C.ar      1 <0>        -0.1121
      3 C3         -0.0126    1.0758    0.0080 C.ar      1 <0>        -0.1121
      4 C4         -1.2190    1.7506    0.0173 C.ar      1 <0>        -0.0671
      5 C5         -1.2377    3.1328    0.0290 C.ar      1 <0>        -0.1067
      6 C6         -0.0501    3.8402    0.0223 C.ar      1 <0>        -0.1115
      7 C7         -2.5137    0.9795    0.0193 C.3       1 <0>        -0.1147
      8 C8         -3.3991    0.9893   -1.2285 C.3       1 <0>        -0.1305
      9 C9         -3.8818    1.6886    0.0919 C.3       1 <0>        -0.1459
     10 H1         -4.3331    2.6769    0.2637 H         1 <0>         0.1664
     11 C10        -4.7107    0.8592    1.0960 C.3       1 <0>        -0.0024
     12 N1         -4.0894   -0.4899    1.0701 N.4       1 <0>        -0.5459
     13 C11        -2.6312   -0.2187    0.9857 C.3       1 <0>         0.0354
     14 H2          2.0841    3.7181    0.0025 H         1 <0>         0.1304
     15 H3          2.1175    1.2560   -0.0111 H         1 <0>         0.1301
     16 H4          0.0021   -0.0041    0.0020 H         1 <0>         0.1212
     17 H5         -2.1802    3.6601    0.0397 H         1 <0>         0.1238
     18 H6         -0.0647    4.9201    0.0280 H         1 <0>         0.1305
     19 H7         -2.8674    1.4894   -2.0514 H         1 <0>         0.1310
     20 H8         -3.6345   -0.0451   -1.5192 H         1 <0>         0.1053
     21 H9         -4.6473    1.3201    2.0928 H         1 <0>         0.1424
     22 H10        -5.7611    0.8325    0.7706 H         1 <0>         0.1410
     23 H11        -4.3554   -1.0338    1.9885 H         1 <0>         0.4597
     24 H12        -2.0783   -1.0765    0.5751 H         1 <0>         0.1403
     25 H13        -2.2085    0.0560    1.9634 H         1 <0>         0.1417
     26 H14        -4.4569   -1.0461    0.1951 H         1 <0>         0.4559
@<TRIPOS>BOND
     1    1    6 ar
     2    1    2 ar
     3    1   14 1
     4    2    3 ar
     5    2   15 1
     6    3    4 ar
     7    3   16 1
     8    4    5 ar
     9    4    7 1
    10    5    6 ar
    11    5   17 1
    12    6   18 1
    13    7    9 1
    14    7   13 1
    15    7    8 1
    16    8    9 1
    17    8   19 1
    18    8   20 1
    19    9   10 1
    20    9   11 1
    21   11   12 1
    22   11   21 1
    23   11   22 1
    24   12   13 1
    25   12   23 1
    26   12   26 1
    27   13   24 1
    28   13   25 1
@<TRIPOS>MOLECULE
ZINC27552079
   26    28     0     0     0
SMALL
USER_CHARGES
(1R,5S)-1-phenyl-3-azabicyclo[3.1.0]hexane
@<TRIPOS>ATOM
      1 C1          0.0550    3.7180   -5.8869 C.ar      1 <0>        -0.1060
      2 C2         -0.9935    2.9465   -5.4219 C.ar      1 <0>        -0.1122
      3 C3         -0.8499    2.2147   -4.2579 C.ar      1 <0>        -0.1114
      4 C4          0.3424    2.2537   -3.5596 C.ar      1 <0>        -0.0653
      5 C5          1.3892    3.0290   -4.0221 C.ar      1 <0>        -0.1070
      6 C6          1.2470    3.7577   -5.1881 C.ar      1 <0>        -0.1116
      7 C7          0.4989    1.4558   -2.2907 C.3       1 <0>        -0.1194
      8 C8          1.4117    0.2280   -2.2798 C.3       1 <0>        -0.1307
      9 C9          1.8106    1.4691   -1.4790 C.3       1 <0>        -0.1444
     10 H1          2.7761    1.9926   -1.4180 H         1 <0>         0.1645
     11 C10         1.3679    1.5560   -0.0026 C.3       1 <0>        -0.0017
     12 N1         -0.0116    1.0048    0.0076 N.4       1 <0>        -0.5459
     13 C11        -0.6260    1.5358   -1.2365 C.3       1 <0>         0.0379
     14 H2         -0.0573    4.2901   -6.7961 H         1 <0>         0.1304
     15 H3         -1.9249    2.9157   -5.9677 H         1 <0>         0.1302
     16 H4         -1.6692    1.6121   -3.8944 H         1 <0>         0.1215
     17 H5          2.3193    3.0629   -3.4741 H         1 <0>         0.1236
     18 H6          2.0661    4.3608   -5.5512 H         1 <0>         0.1304
     19 H7          0.8613   -0.6345   -1.8760 H         1 <0>         0.1045
     20 H8          1.7397    0.0058   -3.3060 H         1 <0>         0.1313
     21 H9          2.0513    0.9607    0.6207 H         1 <0>         0.1411
     22 H10         1.3919    2.6054    0.3263 H         1 <0>         0.1423
     23 H11         0.0327   -0.0943    0.0093 H         1 <0>         0.4559
     24 H12        -0.9464    2.5817   -1.1208 H         1 <0>         0.1417
     25 H13        -1.4800    0.9249   -1.5644 H         1 <0>         0.1404
     26 H14        -0.5385    1.3519    0.9087 H         1 <0>         0.4600
@<TRIPOS>BOND
     1    1    6 ar
     2    1    2 ar
     3    1   14 1
     4    2    3 ar
     5    2   15 1
     6    3    4 ar
     7    3   16 1
     8    4    5 ar
     9    4    7 1
    10    5    6 ar
    11    5   17 1
    12    6   18 1
    13    7    9 1
    14    7   13 1
    15    7    8 1
    16    8    9 1
    17    8   19 1
    18    8   20 1
    19    9   10 1
    20    9   11 1
    21   11   12 1
    22   11   21 1
    23   11   22 1
    24   12   13 1
    25   12   23 1
    26   12   26 1
    27   13   24 1
    28   13   25 1
@<TRIPOS>MOLECULE
ZINC00003189
   26    28     0     0     0
SMALL
USER_CHARGES
(1R,5S)-1-(3,4-dichlorophenyl)-3-azabicyclo[3.1.0]hexane
@<TRIPOS>ATOM
      1 C1          2.3780    1.4119   -0.0126 C.ar      1 <0>        -0.0932
      2 C2          1.1720    2.0876    0.0021 C.ar      1 <0>        -0.0892
      3 C3         -0.0167    1.3807    0.0096 C.ar      1 <0>        -0.0236
      4 C4          0.0021   -0.0041    0.0020 C.ar      1 <0>        -0.0282
      5 C5          1.2095   -0.6784   -0.0131 C.ar      1 <0>        -0.0892
      6 C6          2.3967    0.0299   -0.0207 C.ar      1 <0>        -0.0472
      7 C7          3.7121   -0.7054   -0.0372 C.3       1 <0>        -0.1195
      8 C8          4.5730   -0.6823   -1.3018 C.3       1 <0>        -0.1162
      9 C9          5.0611    0.0428   -0.0460 C.3       1 <0>        -0.1757
     10 H1          5.1141    1.1313   -0.0265 H         1 <0>         0.1573
     11 C10         5.9576   -0.7349    0.9413 C.3       1 <0>         0.0214
     12 C11         3.8997   -1.8587    0.9718 C.3       1 <0>         0.0323
     13 Cl1        -1.4891   -0.8929    0.0109 Cl        1 <0>        -0.0285
     14 Cl2        -1.5315    2.2286    0.0214 Cl        1 <0>        -0.0266
     15 H2          3.3060    1.9643   -0.0181 H         1 <0>         0.1395
     16 H3          1.1580    3.1675    0.0077 H         1 <0>         0.1516
     17 H4          1.2248   -1.7583   -0.0187 H         1 <0>         0.1432
     18 H5          5.0828   -1.6048   -1.5794 H         1 <0>         0.1079
     19 H6          4.2272   -0.0687   -2.1337 H         1 <0>         0.1336
     20 H7          6.9840   -0.7698    0.5762 H         1 <0>         0.1478
     21 H8          5.9202   -0.2775    1.9299 H         1 <0>         0.1437
     22 H9          3.5340   -1.5660    1.9560 H         1 <0>         0.1480
     23 H10         3.3848   -2.7547    0.6249 H         1 <0>         0.1452
     24 N1          5.3556   -2.0661    0.9790 N.4       1 <0>        -0.5161
     25 H11         5.6402   -2.5615    1.8321 H         1 <0>         0.4437
     26 H12         5.6416   -2.6096    0.1561 H         1 <0>         0.4376
@<TRIPOS>BOND
     1    1    6 ar
     2    1    2 ar
     3    1   15 1
     4    2    3 ar
     5    2   16 1
     6    3    4 ar
     7    3   14 1
     8    4    5 ar
     9    4   13 1
    10    5    6 ar
    11    5   17 1
    12    6    7 1
    13    7    9 1
    14    7   12 1
    15    7    8 1
    16    8    9 1
    17    8   18 1
    18    8   19 1
    19    9   10 1
    20    9   11 1
    21   11   20 1
    22   11   21 1
    23   11   24 1
    24   12   22 1
    25   12   23 1
    26   12   24 1
    27   24   25 1
    28   24   26 1
@<TRIPOS>MOLECULE
ZINC00537822
   50    52     0     0     0
SMALL
USER_CHARGES

@<TRIPOS>ATOM
      1 C1         -0.0169    1.3952    0.0097 C.ar      1 <0>        -0.0260
      2 C2          1.1683    2.0970    0.0022 C.ar      1 <0>        -0.1650
      3 C3          2.3789    1.4198   -0.0130 C.ar      1 <0>         0.1439
      4 C4          2.4047    0.0329   -0.0212 C.ar      1 <0>        -0.1670
      5 C5          1.2267   -0.6810   -0.0142 C.ar      1 <0>        -0.0432
      6 C6          0.0021   -0.0041    0.0020 C.ar      1 <0>        -0.1967
      7 C7         -1.2591   -0.7596    0.0105 C.2       1 <0>         0.4038
      8 O1         -2.3189   -0.1702    0.0242 O.2       1 <0>        -0.4483
      9 C8         -1.2348   -2.2664    0.0022 C.3       1 <0>        -0.1653
     10 C9         -2.6689   -2.7996    0.0135 C.3       1 <0>        -0.1429
     11 C10        -2.6443   -4.3293    0.0051 C.3       1 <0>        -0.0092
     12 N1         -4.0211   -4.8413    0.0160 N.4       1 <0>        -0.3830
     13 C11        -4.6726   -4.4620    1.2755 C.3       1 <0>        -0.0093
     14 C12        -6.1318   -4.9225    1.2582 C.3       1 <0>        -0.1330
     15 C13        -6.1791   -6.4445    1.0954 C.3       1 <0>         0.1746
     16 C14        -5.4322   -6.8346   -0.1834 C.3       1 <0>        -0.1706
     17 C15        -3.9990   -6.3033   -0.1127 C.3       1 <0>        -0.0017
     18 C16        -7.6135   -6.8966    0.9991 C.ar      1 <0>        -0.1262
     19 C17        -8.5661   -6.0599    0.4482 C.ar      1 <0>        -0.1006
     20 C18        -9.8818   -6.4740    0.3596 C.ar      1 <0>        -0.1039
     21 C19       -10.2453   -7.7262    0.8224 C.ar      1 <0>        -0.0247
     22 C20        -9.2914   -8.5631    1.3735 C.ar      1 <0>        -0.1016
     23 C21        -7.9750   -8.1501    1.4564 C.ar      1 <0>        -0.0934
     24 Cl1       -11.8977   -8.2468    0.7119 Cl        1 <0>        -0.0500
     25 O2         -5.5554   -7.0652    2.2213 O.3       1 <0>        -0.5474
     26 F1          3.5378    2.1141   -0.0204 F         1 <0>        -0.1258
     27 H1         -0.9587    1.9236    0.0260 H         1 <0>         0.1459
     28 H2          1.1551    3.1769    0.0077 H         1 <0>         0.1477
     29 H3          3.3506   -0.4883   -0.0334 H         1 <0>         0.1469
     30 H4          1.2482   -1.7608   -0.0213 H         1 <0>         0.1412
     31 H5         -0.7241   -2.6166   -0.8948 H         1 <0>         0.1127
     32 H6         -0.7064   -2.6261    0.8850 H         1 <0>         0.1127
     33 H7         -3.1796   -2.4493    0.9105 H         1 <0>         0.0952
     34 H8         -3.1973   -2.4398   -0.8693 H         1 <0>         0.0947
     35 H9         -2.1335   -4.6796   -0.8919 H         1 <0>         0.1333
     36 H10        -2.1158   -4.6891    0.8880 H         1 <0>         0.1327
     37 H11        -4.1530   -4.9339    2.1093 H         1 <0>         0.1388
     38 H12        -4.6353   -3.3788    1.3915 H         1 <0>         0.1356
     39 H13        -6.6132   -4.6415    2.1949 H         1 <0>         0.1238
     40 H14        -6.6524   -4.4509    0.4248 H         1 <0>         0.1045
     41 H15        -5.4137   -7.9204   -0.2771 H         1 <0>         0.1175
     42 H16        -5.9384   -6.4027   -1.0467 H         1 <0>         0.1009
     43 H17        -3.4644   -6.5795   -1.0215 H         1 <0>         0.1329
     44 H18        -3.4937   -6.7360    0.7507 H         1 <0>         0.1354
     45 H19        -8.2824   -5.0823    0.0874 H         1 <0>         0.1334
     46 H20       -10.6260   -5.8201   -0.0704 H         1 <0>         0.1408
     47 H21        -9.5746   -9.5405    1.7352 H         1 <0>         0.1414
     48 H22        -7.2294   -8.8051    1.8823 H         1 <0>         0.1323
     49 H23        -5.5495   -8.0314    2.1846 H         1 <0>         0.3907
     50 H24        -4.5327   -4.4442   -0.7578 H         1 <0>         0.4215
@<TRIPOS>BOND
     1    1    6 ar
     2    1    2 ar
     3    1   27 1
     4    2    3 ar
     5    2   28 1
     6    3    4 ar
     7    3   26 1
     8    4    5 ar
     9    4   29 1
    10    5    6 ar
    11    5   30 1
    12    6    7 1
    13    7    8 2
    14    7    9 1
    15    9   10 1
    16    9   31 1
    17    9   32 1
    18   10   11 1
    19   10   33 1
    20   10   34 1
    21   11   12 1
    22   11   35 1
    23   11   36 1
    24   12   17 1
    25   12   13 1
    26   12   50 1
    27   13   14 1
    28   13   37 1
    29   13   38 1
    30   14   15 1
    31   14   39 1
    32   14   40 1
    33   15   16 1
    34   15   18 1
    35   15   25 1
    36   16   17 1
    37   16   41 1
    38   16   42 1
    39   17   43 1
    40   17   44 1
    41   18   23 ar
    42   18   19 ar
    43   19   20 ar
    44   19   45 1
    45   20   21 ar
    46   20   46 1
    47   21   22 ar
    48   21   24 1
    49   22   23 ar
    50   22   47 1
    51   23   48 1
    52   25   49 1
@<TRIPOS>MOLECULE
ZINC03794601
   46    48     0     0     0
SMALL
USER_CHARGES

@<TRIPOS>ATOM
      1 C1          0.7371    1.0040   -0.7320 C.3       1 <0>        -0.0475
      2 N1          0.5525   -0.4470   -0.5961 N.4       1 <0>        -0.3870
      3 C2          1.2844   -0.9253    0.5844 C.3       1 <0>        -0.0531
      4 C3         -0.8772   -0.7462   -0.4402 C.3       1 <0>        -0.0114
      5 C4         -1.0822   -2.2624   -0.4237 C.3       1 <0>        -0.1499
      6 C5         -2.5713   -2.5740   -0.2613 C.3       1 <0>        -0.1013
      7 C6         -2.7762   -4.0901   -0.2449 C.3       1 <0>         0.1997
      8 C7         -4.2480   -4.4155   -0.1346 C.ar      1 <0>        -0.0992
      9 C8         -5.2644   -3.8901    0.6396 C.ar      1 <0>        -0.0887
     10 C9         -6.5457   -4.3908    0.5327 C.ar      1 <0>        -0.0623
     11 C10        -6.8142   -5.4309   -0.3598 C.ar      1 <0>        -0.0041
     12 C11        -5.7821   -5.9581   -1.1395 C.ar      1 <0>        -0.0441
     13 C12        -4.5080   -5.4489   -1.0233 C.ar      1 <0>        -0.1226
     14 C13        -3.2045   -5.7906   -1.7072 C.3       1 <0>         0.0882
     15 O1         -2.3362   -4.6635   -1.4895 O.3       1 <0>        -0.3421
     16 C14        -8.1418   -5.9549   -0.4748 C.1       1 <0>         0.2390
     17 N2         -9.1951   -6.3707   -0.5661 N.1       1 <0>        -0.3890
     18 C15        -2.0198   -4.7033    0.9053 C.ar      1 <0>        -0.1219
     19 C16        -0.9558   -5.5509    0.6588 C.ar      1 <0>        -0.0739
     20 C17        -0.2612   -6.1134    1.7128 C.ar      1 <0>        -0.1531
     21 C18        -0.6311   -5.8277    3.0161 C.ar      1 <0>         0.1100
     22 C19        -1.6968   -4.9786    3.2618 C.ar      1 <0>        -0.1509
     23 C20        -2.3867   -4.4131    2.2062 C.ar      1 <0>        -0.0774
     24 F1          0.0470   -6.3773    4.0472 F         1 <0>        -0.1328
     25 H1          1.7980    1.2260   -0.8477 H         1 <0>         0.1243
     26 H2          0.1940    1.3588   -1.6079 H         1 <0>         0.1236
     27 H3          0.3563    1.5037    0.1587 H         1 <0>         0.1217
     28 H4          0.9036   -0.4256    1.4751 H         1 <0>         0.1223
     29 H5          1.1474   -2.0019    0.6853 H         1 <0>         0.1243
     30 H6          2.3453   -0.7033    0.4687 H         1 <0>         0.1245
     31 H7         -1.2375   -0.3207    0.4964 H         1 <0>         0.1294
     32 H8         -1.4319   -0.3137   -1.2729 H         1 <0>         0.1320
     33 H9         -0.7219   -2.6879   -1.3603 H         1 <0>         0.0975
     34 H10        -0.5275   -2.6949    0.4090 H         1 <0>         0.0906
     35 H11        -2.9315   -2.1485    0.6753 H         1 <0>         0.0907
     36 H12        -3.1259   -2.1414   -1.0940 H         1 <0>         0.0912
     37 H13        -5.0557   -3.0858    1.3295 H         1 <0>         0.1366
     38 H14        -7.3395   -3.9794    1.1385 H         1 <0>         0.1445
     39 H15        -5.9828   -6.7626   -1.8315 H         1 <0>         0.1414
     40 H16        -2.7725   -6.6884   -1.2651 H         1 <0>         0.0876
     41 H17        -3.3679   -5.9382   -2.7747 H         1 <0>         0.1102
     42 H18        -0.6677   -5.7738   -0.3579 H         1 <0>         0.1412
     43 H19         0.5697   -6.7758    1.5199 H         1 <0>         0.1403
     44 H20        -1.9865   -4.7553    4.2780 H         1 <0>         0.1408
     45 H21        -3.2152   -3.7473    2.3977 H         1 <0>         0.1331
     46 H22         0.9050   -0.9096   -1.4206 H         1 <0>         0.4277
@<TRIPOS>BOND
     1    1    2 1
     2    1   25 1
     3    1   26 1
     4    1   27 1
     5    2    3 1
     6    2    4 1
     7    2   46 1
     8    3   28 1
     9    3   29 1
    10    3   30 1
    11    4    5 1
    12    4   31 1
    13    4   32 1
    14    5    6 1
    15    5   33 1
    16    5   34 1
    17    6    7 1
    18    6   35 1
    19    6   36 1
    20    7   15 1
    21    7    8 1
    22    7   18 1
    23    8   13 ar
    24    8    9 ar
    25    9   10 ar
    26    9   37 1
    27   10   11 ar
    28   10   38 1
    29   11   12 ar
    30   11   16 1
    31   12   13 ar
    32   12   39 1
    33   13   14 1
    34   14   15 1
    35   14   40 1
    36   14   41 1
    37   16   17 3
    38   18   23 ar
    39   18   19 ar
    40   19   20 ar
    41   19   42 1
    42   20   21 ar
    43   20   43 1
    44   21   22 ar
    45   21   24 1
    46   22   23 ar
    47   22   44 1
    48   23   45 1
@<TRIPOS>MOLECULE
ZINC03800706
   46    48     0     0     0
SMALL
USER_CHARGES

@<TRIPOS>ATOM
      1 C1         -0.0178    1.4648    0.0101 C.3       1 <0>        -0.0477
      2 N1          0.0021   -0.0041    0.0020 N.4       1 <0>        -0.3873
      3 C2          0.7126   -0.4907    1.1921 C.3       1 <0>        -0.0533
      4 C3         -1.3761   -0.5125    0.0124 C.3       1 <0>        -0.0115
      5 C4         -1.3584   -2.0365   -0.1216 C.3       1 <0>        -0.1541
      6 C5         -2.7938   -2.5661   -0.1108 C.3       1 <0>        -0.1232
      7 C6         -2.7762   -4.0901   -0.2449 C.3       1 <0>         0.1992
      8 C7         -4.1888   -4.6236   -0.3096 C.ar      1 <0>        -0.0991
      9 C8         -5.1200   -4.6778   -1.3285 C.ar      1 <0>        -0.0822
     10 C9         -6.3628   -5.2329   -1.1018 C.ar      1 <0>        -0.0623
     11 C10        -6.6783   -5.7409    0.1602 C.ar      1 <0>        -0.0038
     12 C11        -5.7322   -5.6836    1.1861 C.ar      1 <0>        -0.0451
     13 C12        -4.4959   -5.1266    0.9466 C.ar      1 <0>        -0.1272
     14 C13        -3.2820   -4.9180    1.8221 C.3       1 <0>         0.0885
     15 O1         -2.1820   -4.6839    0.9239 O.3       1 <0>        -0.3402
     16 C14        -7.9666   -6.3178    0.4015 C.1       1 <0>         0.2390
     17 N2         -8.9886   -6.7754    0.5930 N.1       1 <0>        -0.3890
     18 C15        -2.0103   -4.4934   -1.4785 C.ar      1 <0>        -0.1013
     19 C16        -1.9792   -3.6548   -2.5771 C.ar      1 <0>        -0.0911
     20 C17        -1.2768   -4.0233   -3.7088 C.ar      1 <0>        -0.1554
     21 C18        -0.6042   -5.2331   -3.7421 C.ar      1 <0>         0.1115
     22 C19        -0.6360   -6.0722   -2.6412 C.ar      1 <0>        -0.1493
     23 C20        -1.3347   -5.6992   -1.5087 C.ar      1 <0>        -0.0583
     24 F1          0.0824   -5.5946   -4.8480 F         1 <0>        -0.1325
     25 H1          1.0047    1.8421    0.0024 H         1 <0>         0.1245
     26 H2         -0.5450    1.8259   -0.8730 H         1 <0>         0.1233
     27 H3         -0.5280    1.8163    0.9069 H         1 <0>         0.1220
     28 H4          0.2024   -0.1392    2.0889 H         1 <0>         0.1225
     29 H5          0.7273   -1.5806    1.1861 H         1 <0>         0.1260
     30 H6          1.7352   -0.1134    1.1844 H         1 <0>         0.1243
     31 H7         -1.8584   -0.2358    0.9500 H         1 <0>         0.1302
     32 H8         -1.9290   -0.0808   -0.8218 H         1 <0>         0.1307
     33 H9         -0.8762   -2.3132   -1.0592 H         1 <0>         0.0947
     34 H10        -0.8055   -2.4683    0.7126 H         1 <0>         0.0979
     35 H11        -3.2761   -2.2894    0.8267 H         1 <0>         0.0874
     36 H12        -3.3467   -2.1344   -0.9450 H         1 <0>         0.0914
     37 H13        -4.8751   -4.2847   -2.3041 H         1 <0>         0.1371
     38 H14        -7.0904   -5.2740   -1.8989 H         1 <0>         0.1444
     39 H15        -5.9698   -6.0744    2.1645 H         1 <0>         0.1413
     40 H16        -3.4295   -4.0531    2.4687 H         1 <0>         0.0856
     41 H17        -3.0941   -5.8085    2.4219 H         1 <0>         0.1096
     42 H18        -2.5043   -2.7113   -2.5510 H         1 <0>         0.1338
     43 H19        -1.2530   -3.3681   -4.5670 H         1 <0>         0.1401
     44 H20        -0.1120   -7.0162   -2.6661 H         1 <0>         0.1417
     45 H21        -1.3560   -6.3515   -0.6482 H         1 <0>         0.1404
     46 H22         0.4744   -0.3295   -0.8281 H         1 <0>         0.4271
@<TRIPOS>BOND
     1    1    2 1
     2    1   25 1
     3    1   26 1
     4    1   27 1
     5    2    3 1
     6    2    4 1
     7    2   46 1
     8    3   28 1
     9    3   29 1
    10    3   30 1
    11    4    5 1
    12    4   31 1
    13    4   32 1
    14    5    6 1
    15    5   33 1
    16    5   34 1
    17    6    7 1
    18    6   35 1
    19    6   36 1
    20    7   15 1
    21    7    8 1
    22    7   18 1
    23    8   13 ar
    24    8    9 ar
    25    9   10 ar
    26    9   37 1
    27   10   11 ar
    28   10   38 1
    29   11   12 ar
    30   11   16 1
    31   12   13 ar
    32   12   39 1
    33   13   14 1
    34   14   15 1
    35   14   40 1
    36   14   41 1
    37   16   17 3
    38   18   23 ar
    39   18   19 ar
    40   19   20 ar
    41   19   42 1
    42   20   21 ar
    43   20   43 1
    44   21   22 ar
    45   21   24 1
    46   22   23 ar
    47   22   44 1
    48   23   45 1
@<TRIPOS>MOLECULE
ZINC00002284
   47    49     0     0     0
SMALL
USER_CHARGES
2-[(2-ethoxyphenoxy)-phenyl-methyl]morpholine
@<TRIPOS>ATOM
      1 C1         -0.2577    1.4416    0.0894 C.3       1 <0>        -0.1513
      2 C2          0.0072   -0.0609   -0.0264 C.3       1 <0>         0.0521
      3 O1          0.6878   -0.5163    1.1447 O.3       1 <0>        -0.3107
      4 C3          1.0003   -1.8386    1.2023 C.ar      1 <0>         0.1096
      5 C4          0.6592   -2.6789    0.1547 C.ar      1 <0>        -0.1731
      6 C5          0.9775   -4.0228    0.2148 C.ar      1 <0>        -0.1022
      7 C6          1.6362   -4.5316    1.3188 C.ar      1 <0>        -0.1164
      8 C7          1.9794   -3.6987    2.3674 C.ar      1 <0>        -0.1622
      9 C8          1.6683   -2.3495    2.3109 C.ar      1 <0>         0.0877
     10 O2          2.0102   -1.5277    3.3391 O.3       1 <0>        -0.2963
     11 C9          2.5815   -2.1403    4.4968 C.3       1 <0>         0.1428
     12 H1          2.1155   -3.1119    4.6611 H         1 <0>         0.0968
     13 C10         4.0630   -2.3224    4.2895 C.ar      1 <0>        -0.1274
     14 C11         4.7994   -1.3355    3.6613 C.ar      1 <0>        -0.0926
     15 C12         6.1592   -1.5006    3.4750 C.ar      1 <0>        -0.1196
     16 C13         6.7808   -2.6567    3.9084 C.ar      1 <0>        -0.1023
     17 C14         6.0436   -3.6456    4.5324 C.ar      1 <0>        -0.1182
     18 C15         4.6846   -3.4787    4.7225 C.ar      1 <0>        -0.0929
     19 C16         2.3431   -1.2476    5.7163 C.3       1 <0>         0.0824
     20 H2          2.8088   -0.2758    5.5526 H         1 <0>         0.1000
     21 C17         0.8381   -1.0639    5.9290 C.3       1 <0>        -0.0381
     22 C18         1.2113   -0.9294    8.3158 C.3       1 <0>        -0.0426
     23 C19         2.7125   -1.1145    8.0792 C.3       1 <0>         0.0381
     24 O3          2.9128   -1.8610    6.8759 O.3       1 <0>        -0.3431
     25 H3          0.6900    1.9710    0.1878 H         1 <0>         0.0669
     26 H4         -0.7768    1.7889   -0.8038 H         1 <0>         0.0825
     27 H5         -0.8748    1.6351    0.9668 H         1 <0>         0.0636
     28 H6         -0.9405   -0.5903   -0.1248 H         1 <0>         0.0637
     29 H7          0.6243   -0.2545   -0.9037 H         1 <0>         0.0650
     30 H8          0.1450   -2.2839   -0.7090 H         1 <0>         0.1386
     31 H9          0.7114   -4.6767   -0.6025 H         1 <0>         0.1326
     32 H10         1.8835   -5.5820    1.3619 H         1 <0>         0.1314
     33 H11         2.4939   -4.0986    3.2286 H         1 <0>         0.1347
     34 H12         4.3130   -0.4340    3.3190 H         1 <0>         0.1240
     35 H13         6.7352   -0.7278    2.9878 H         1 <0>         0.1266
     36 H14         7.8426   -2.7871    3.7599 H         1 <0>         0.1273
     37 H15         6.5293   -4.5489    4.8710 H         1 <0>         0.1280
     38 H16         4.1085   -4.2515    5.2097 H         1 <0>         0.1226
     39 H17         0.4100   -0.5448    5.0715 H         1 <0>         0.1536
     40 H18         0.3642   -2.0394    6.0385 H         1 <0>         0.1408
     41 H19         1.0557   -0.3121    9.2006 H         1 <0>         0.1467
     42 H20         0.7434   -1.9027    8.4634 H         1 <0>         0.1410
     43 H21         3.1891   -0.1387    7.9850 H         1 <0>         0.0834
     44 H22         3.1497   -1.6535    8.9197 H         1 <0>         0.1457
     45 N1          0.6093   -0.2620    7.1460 N.4       1 <0>        -0.5152
     46 H23        -0.4007   -0.1567    7.2979 H         1 <0>         0.4418
     47 H24         1.0359    0.6643    7.0270 H         1 <0>         0.4344
@<TRIPOS>BOND
     1    1    2 1
     2    1   25 1
     3    1   26 1
     4    1   27 1
     5    2    3 1
     6    2   28 1
     7    2   29 1
     8    3    4 1
     9    4    9 ar
    10    4    5 ar
    11    5    6 ar
    12    5   30 1
    13    6    7 ar
    14    6   31 1
    15    7    8 ar
    16    7   32 1
    17    8    9 ar
    18    8   33 1
    19    9   10 1
    20   10   11 1
    21   11   12 1
    22   11   13 1
    23   11   19 1
    24   13   18 ar
    25   13   14 ar
    26   14   15 ar
    27   14   34 1
    28   15   16 ar
    29   15   35 1
    30   16   17 ar
    31   16   36 1
    32   17   18 ar
    33   17   37 1
    34   18   38 1
    35   19   20 1
    36   19   24 1
    37   19   21 1
    38   21   39 1
    39   21   40 1
    40   21   45 1
    41   22   23 1
    42   22   41 1
    43   22   42 1
    44   22   45 1
    45   23   24 1
    46   23   43 1
    47   23   44 1
    48   45   46 1
    49   45   47 1
@<TRIPOS>MOLECULE
ZINC00006016
   48    49     0     0     0
SMALL
USER_CHARGES

@<TRIPOS>ATOM
      1 C1         -0.0431    0.8944    0.4822 C.3       1 <0>        -0.0460
      2 N1          0.2923   -0.5243    0.3012 N.4       1 <0>        -0.3822
      3 C2         -0.9152   -1.3403    0.4858 C.3       1 <0>        -0.0491
      4 C3          0.8222   -0.7333   -1.0529 C.3       1 <0>        -0.0098
      5 C4          2.1250    0.0518   -1.2175 C.3       1 <0>        -0.0437
      6 H1          1.9501    1.1005   -0.9774 H         1 <0>         0.1096
      7 C5          2.6050   -0.0643   -2.6413 C.ar      1 <0>        -0.1365
      8 C6          2.6097   -1.2959   -3.2697 C.ar      1 <0>        -0.0779
      9 C7          3.0496   -1.4050   -4.5747 C.ar      1 <0>        -0.1472
     10 C8          3.4865   -0.2776   -5.2548 C.ar      1 <0>         0.1482
     11 C9          3.4804    0.9571   -4.6221 C.ar      1 <0>        -0.2035
     12 C10         3.0347    1.0618   -3.3187 C.ar      1 <0>        -0.0577
     13 O1          3.9202   -0.3824   -6.5385 O.3       1 <0>        -0.3119
     14 C11         4.3554    0.8199   -7.1765 C.3       1 <0>         0.0231
     15 C12         3.1862   -0.5174   -0.2735 C.3       1 <0>         0.1312
     16 C13         3.2983   -2.0287   -0.4841 C.3       1 <0>        -0.1634
     17 C14         4.3594   -2.5978    0.4598 C.3       1 <0>        -0.1239
     18 C15         5.7092   -1.9403    0.1655 C.3       1 <0>        -0.1284
     19 C16         5.5971   -0.4290    0.3761 C.3       1 <0>        -0.1259
     20 C17         4.5360    0.1401   -0.5679 C.3       1 <0>        -0.1395
     21 O2          2.8118   -0.2515    1.0797 O.3       1 <0>        -0.5839
     22 H2          0.8529    1.4999    0.3452 H         1 <0>         0.1236
     23 H3         -0.7947    1.1866   -0.2512 H         1 <0>         0.1168
     24 H4         -0.4363    1.0495    1.4869 H         1 <0>         0.1214
     25 H5         -1.6668   -1.0481   -0.2476 H         1 <0>         0.1201
     26 H6         -0.6664   -2.3929    0.3516 H         1 <0>         0.1194
     27 H7         -1.3084   -1.1852    1.4906 H         1 <0>         0.1235
     28 H8          1.0156   -1.7948   -1.2075 H         1 <0>         0.1314
     29 H9          0.0938   -0.3862   -1.7857 H         1 <0>         0.1331
     30 H10         2.2695   -2.1733   -2.7399 H         1 <0>         0.1307
     31 H11         3.0538   -2.3674   -5.0649 H         1 <0>         0.1378
     32 H12         3.8201    1.8363   -5.1494 H         1 <0>         0.1360
     33 H13         3.0256    2.0234   -2.8272 H         1 <0>         0.1286
     34 H14         3.5336    1.5354   -7.2025 H         1 <0>         0.0600
     35 H15         5.1900    1.2454   -6.6192 H         1 <0>         0.0601
     36 H16         4.6747    0.5961   -8.1943 H         1 <0>         0.1081
     37 H17         2.3367   -2.4971   -0.2745 H         1 <0>         0.0631
     38 H18         3.5838   -2.2315   -1.5163 H         1 <0>         0.0963
     39 H19         4.0739   -2.3950    1.4920 H         1 <0>         0.0628
     40 H20         4.4393   -3.6745    0.3097 H         1 <0>         0.0756
     41 H21         6.4652   -2.3458    0.8379 H         1 <0>         0.0716
     42 H22         5.9948   -2.1431   -0.8667 H         1 <0>         0.0685
     43 H23         5.3115   -0.2262    1.4083 H         1 <0>         0.0633
     44 H24         6.5587    0.0394    0.1664 H         1 <0>         0.0749
     45 H25         4.8215   -0.0627   -1.6000 H         1 <0>         0.0842
     46 H26         4.4561    1.2168   -0.4178 H         1 <0>         0.0748
     47 H27         3.4404   -0.5850    1.7345 H         1 <0>         0.4019
     48 H28         0.9880   -0.7947    0.9801 H         1 <0>         0.4309
@<TRIPOS>BOND
     1    1    2 1
     2    1   22 1
     3    1   23 1
     4    1   24 1
     5    2    3 1
     6    2    4 1
     7    2   48 1
     8    3   25 1
     9    3   26 1
    10    3   27 1
    11    4    5 1
    12    4   28 1
    13    4   29 1
    14    5    6 1
    15    5    7 1
    16    5   15 1
    17    7   12 ar
    18    7    8 ar
    19    8    9 ar
    20    8   30 1
    21    9   10 ar
    22    9   31 1
    23   10   11 ar
    24   10   13 1
    25   11   12 ar
    26   11   32 1
    27   12   33 1
    28   13   14 1
    29   14   34 1
    30   14   35 1
    31   14   36 1
    32   15   20 1
    33   15   16 1
    34   15   21 1
    35   16   17 1
    36   16   37 1
    37   16   38 1
    38   17   18 1
    39   17   39 1
    40   17   40 1
    41   18   19 1
    42   18   41 1
    43   18   42 1
    44   19   20 1
    45   19   43 1
    46   19   44 1
    47   20   45 1
    48   20   46 1
    49   21   47 1
@<TRIPOS>MOLECULE
ZINC00896698
   48    49     0     0     0
SMALL
USER_CHARGES

@<TRIPOS>ATOM
      1 C1         -0.1373    1.5249   -0.3559 C.3       1 <0>        -0.0537
      2 N1         -0.1036    0.0620   -0.2268 N.4       1 <0>        -0.3875
      3 C2         -1.4713   -0.4682   -0.3061 C.3       1 <0>        -0.0472
      4 C3          0.7059   -0.5070   -1.3126 C.3       1 <0>        -0.0057
      5 C4          2.1588   -0.0534   -1.1571 C.3       1 <0>        -0.0442
      6 H1          2.1967    1.0350   -1.1111 H         1 <0>         0.1073
      7 C5          2.7320   -0.6300    0.1118 C.ar      1 <0>        -0.1694
      8 C6          2.6846   -1.9940    0.3330 C.ar      1 <0>        -0.0555
      9 C7          3.2089   -2.5250    1.4955 C.ar      1 <0>        -0.1523
     10 C8          3.7838   -1.6885    2.4412 C.ar      1 <0>         0.1489
     11 C9          3.8306   -0.3203    2.2167 C.ar      1 <0>        -0.2091
     12 C10         3.3095    0.2053    1.0502 C.ar      1 <0>        -0.0701
     13 O1          4.2999   -2.2084    3.5859 O.3       1 <0>        -0.3118
     14 C11         4.8761   -1.2877    4.5145 C.3       1 <0>         0.0235
     15 C12         2.9765   -0.5420   -2.3543 C.3       1 <0>         0.1523
     16 C13         4.4538   -0.2116   -2.1319 C.3       1 <0>        -0.1413
     17 C14         5.2715   -0.7003   -3.3291 C.3       1 <0>        -0.1258
     18 C15         4.7794   -0.0058   -4.6005 C.3       1 <0>        -0.1275
     19 C16         3.3022   -0.3362   -4.8229 C.3       1 <0>        -0.1247
     20 C17         2.4844    0.1524   -3.6257 C.3       1 <0>        -0.1501
     21 O2          2.8203   -1.9557   -2.4928 O.3       1 <0>        -0.5597
     22 H2          0.8775    1.9183   -0.2970 H         1 <0>         0.1214
     23 H3         -0.5765    1.7948   -1.3163 H         1 <0>         0.1235
     24 H4         -0.7380    1.9470    0.4497 H         1 <0>         0.1248
     25 H5         -1.9105   -0.1983   -1.2665 H         1 <0>         0.1223
     26 H6         -1.4463   -1.5537   -0.2103 H         1 <0>         0.1235
     27 H7         -2.0720   -0.0461    0.4996 H         1 <0>         0.1240
     28 H8          0.6583   -1.5951   -1.2694 H         1 <0>         0.1408
     29 H9          0.3189   -0.1642   -2.2722 H         1 <0>         0.1333
     30 H10         2.2369   -2.6448   -0.4035 H         1 <0>         0.1428
     31 H11         3.1710   -3.5905    1.6682 H         1 <0>         0.1367
     32 H12         4.2776    0.3330    2.9514 H         1 <0>         0.1345
     33 H13         3.3496    1.2699    0.8729 H         1 <0>         0.1261
     34 H14         5.6995   -0.7570    4.0365 H         1 <0>         0.0602
     35 H15         4.1188   -0.5716    4.8335 H         1 <0>         0.0589
     36 H16         5.2495   -1.8322    5.3818 H         1 <0>         0.1082
     37 H17         4.5730    0.8667   -2.0263 H         1 <0>         0.0718
     38 H18         4.8044   -0.7063   -1.2261 H         1 <0>         0.0779
     39 H19         6.3240   -0.4648   -3.1707 H         1 <0>         0.0723
     40 H20         5.1523   -1.7786   -3.4347 H         1 <0>         0.0650
     41 H21         4.8986    1.0725   -4.4949 H         1 <0>         0.0659
     42 H22         5.3620   -0.3539   -5.4534 H         1 <0>         0.0703
     43 H23         2.9515    0.1585   -5.7287 H         1 <0>         0.0729
     44 H24         3.1829   -1.4145   -4.9285 H         1 <0>         0.0661
     45 H25         1.4320   -0.0830   -3.7841 H         1 <0>         0.0688
     46 H26         2.6036    1.2307   -3.5201 H         1 <0>         0.0762
     47 H27         3.3122   -2.3351   -3.2338 H         1 <0>         0.3886
     48 H28         0.3029   -0.1879    0.6623 H         1 <0>         0.4263
@<TRIPOS>BOND
     1    1    2 1
     2    1   22 1
     3    1   23 1
     4    1   24 1
     5    2    3 1
     6    2    4 1
     7    2   48 1
     8    3   25 1
     9    3   26 1
    10    3   27 1
    11    4    5 1
    12    4   28 1
    13    4   29 1
    14    5    6 1
    15    5    7 1
    16    5   15 1
    17    7   12 ar
    18    7    8 ar
    19    8    9 ar
    20    8   30 1
    21    9   10 ar
    22    9   31 1
    23   10   11 ar
    24   10   13 1
    25   11   12 ar
    26   11   32 1
    27   12   33 1
    28   13   14 1
    29   14   34 1
    30   14   35 1
    31   14   36 1
    32   15   20 1
    33   15   16 1
    34   15   21 1
    35   16   17 1
    36   16   37 1
    37   16   38 1
    38   17   18 1
    39   17   39 1
    40   17   40 1
    41   18   19 1
    42   18   41 1
    43   18   42 1
    44   19   20 1
    45   19   43 1
    46   19   44 1
    47   20   45 1
    48   20   46 1
    49   21   47 1
@<TRIPOS>MOLECULE
ZINC01842633
   41    42     0     0     0
SMALL
USER_CHARGES

@<TRIPOS>ATOM
      1 C1          0.0943    1.4874    0.0010 C.3       1 <0>        -0.1118
      2 C2          0.2588   -0.0106    0.0133 C.ar      1 <0>        -0.1080
      3 C3          0.4584   -0.6940   -1.1708 C.ar      1 <0>        -0.0766
      4 C4          0.6089   -2.0681   -1.1602 C.ar      1 <0>        -0.1439
      5 C5          0.5606   -2.7622    0.0349 C.ar      1 <0>        -0.0842
      6 C6          0.3617   -2.0836    1.2214 C.ar      1 <0>        -0.2263
      7 C7          0.2157   -0.7038    1.2140 C.ar      1 <0>         0.1132
      8 O1          0.0255   -0.0332    2.3806 O.3       1 <0>        -0.2959
      9 C8         -0.0636   -0.8168    3.5723 C.3       1 <0>         0.1358
     10 H1          0.4733   -1.7549    3.4312 H         1 <0>         0.0962
     11 C9         -1.5330   -1.1114    3.8803 C.3       1 <0>        -0.1666
     12 C10        -2.1199   -1.9897    2.7735 C.3       1 <0>        -0.0209
     13 N1         -3.5308   -2.2726    3.0692 N.4       1 <0>        -0.5077
     14 C11        -4.0943   -3.1158    2.0066 C.3       1 <0>        -0.0479
     15 C12         0.5477   -0.0561    4.7206 C.ar      1 <0>        -0.1113
     16 C13         0.3309    1.3037    4.8422 C.ar      1 <0>        -0.0896
     17 C14         0.8915    2.0015    5.8956 C.ar      1 <0>        -0.1188
     18 C15         1.6687    1.3395    6.8276 C.ar      1 <0>        -0.1021
     19 C16         1.8848   -0.0205    6.7065 C.ar      1 <0>        -0.1166
     20 C17         1.3206   -0.7191    5.6555 C.ar      1 <0>        -0.1047
     21 H2          1.0711    1.9610    0.0995 H         1 <0>         0.0741
     22 H3         -0.3654    1.7947   -0.9383 H         1 <0>         0.0693
     23 H4         -0.5417    1.7899    0.8329 H         1 <0>         0.0691
     24 H5          0.4965   -0.1542   -2.1055 H         1 <0>         0.1347
     25 H6          0.7641   -2.6006   -2.0870 H         1 <0>         0.1297
     26 H7          0.6780   -3.8358    0.0405 H         1 <0>         0.1279
     27 H8          0.3240   -2.6261    2.1545 H         1 <0>         0.1274
     28 H9         -1.6067   -1.6323    4.8350 H         1 <0>         0.1068
     29 H10        -2.0879   -0.1748    3.9336 H         1 <0>         0.1028
     30 H11        -2.0462   -1.4689    1.8188 H         1 <0>         0.1357
     31 H12        -1.5650   -2.9264    2.7202 H         1 <0>         0.1344
     32 H13        -3.5991   -2.7547    3.9530 H         1 <0>         0.4300
     33 H14        -5.1412   -3.3257    2.2260 H         1 <0>         0.1285
     34 H15        -4.0206   -2.5950    1.0519 H         1 <0>         0.1237
     35 H16        -3.5394   -4.0525    1.9533 H         1 <0>         0.1240
     36 H17        -0.2763    1.8210    4.1141 H         1 <0>         0.1266
     37 H18         0.7227    3.0641    5.9902 H         1 <0>         0.1289
     38 H19         2.1073    1.8848    7.6502 H         1 <0>         0.1293
     39 H20         2.4922   -0.5377    7.4344 H         1 <0>         0.1300
     40 H21         1.4863   -1.7823    5.5629 H         1 <0>         0.1236
     41 H22        -4.0445   -1.4055    3.1186 H         1 <0>         0.4310
@<TRIPOS>BOND
     1    1    2 1
     2    1   21 1
     3    1   22 1
     4    1   23 1
     5    2    7 ar
     6    2    3 ar
     7    3    4 ar
     8    3   24 1
     9    4    5 ar
    10    4   25 1
    11    5    6 ar
    12    5   26 1
    13    6    7 ar
    14    6   27 1
    15    7    8 1
    16    8    9 1
    17    9   10 1
    18    9   11 1
    19    9   15 1
    20   11   12 1
    21   11   28 1
    22   11   29 1
    23   12   13 1
    24   12   30 1
    25   12   31 1
    26   13   14 1
    27   13   32 1
    28   13   41 1
    29   14   33 1
    30   14   34 1
    31   14   35 1
    32   15   20 ar
    33   15   16 ar
    34   16   17 ar
    35   16   36 1
    36   17   18 ar
    37   17   37 1
    38   18   19 ar
    39   18   38 1
    40   19   20 ar
    41   19   39 1
    42   20   40 1
@<TRIPOS>MOLECULE
ZINC00538550
   50    54     0     0     0
SMALL
USER_CHARGES

@<TRIPOS>ATOM
      1 C1          2.6263   -1.6012    3.5769 C.ar      1 <0>        -0.1190
      2 C2          3.6377   -0.6760    3.3483 C.ar      1 <0>        -0.0682
      3 C3          3.9136   -0.2683    2.0698 C.ar      1 <0>        -0.0729
      4 C4          3.1814   -0.7831    1.0209 C.ar      1 <0>        -0.1315
      5 C5          2.1473   -1.7252    1.2248 C.ar      1 <0>        -0.1451
      6 C6          1.8930   -2.1204    2.5550 C.ar      1 <0>        -0.0442
      7 C7          1.5160   -2.1252   -0.0237 C.2       1 <0>         0.3651
      8 N1          1.9319   -1.6135   -1.1449 N.2       1 <0>        -0.4432
      9 S1          3.1728   -0.5662   -0.7370 S.3       1 <0>         0.2466
     10 N2          0.4719   -3.0515   -0.0182 N.pl3     1 <0>        -0.6548
     11 C8         -0.9273   -2.6134    0.1017 C.3       1 <0>         0.1241
     12 C9         -1.7410   -3.2754   -1.0152 C.3       1 <0>        -0.0227
     13 N3         -1.5546   -4.7307   -0.9586 N.4       1 <0>        -0.3801
     14 C10        -0.1529   -5.0667   -1.2386 C.3       1 <0>        -0.0285
     15 C11         0.7391   -4.4931   -0.1384 C.3       1 <0>         0.1238
     16 C12        -2.4192   -5.3726   -1.9578 C.3       1 <0>        -0.0095
     17 C13        -2.3203   -6.8928   -1.8166 C.3       1 <0>        -0.0983
     18 C14        -3.2073   -7.5513   -2.8417 C.ar      1 <0>        -0.1206
     19 C15        -2.6615   -8.0596   -4.0078 C.ar      1 <0>        -0.0388
     20 C16        -3.4747   -8.6603   -4.9418 C.ar      1 <0>        -0.1333
     21 C17        -4.8442   -8.7652   -4.7313 C.ar      1 <0>         0.1797
     22 C18        -5.3873   -8.2514   -3.5560 C.ar      1 <0>        -0.1298
     23 C19        -4.5688   -7.6545   -2.6174 C.ar      1 <0>         0.0073
     24 Cl1        -5.2527   -7.0236   -1.1518 Cl        1 <0>        -0.0525
     25 N4         -5.4502   -9.4084   -5.8111 N.am      1 <0>        -0.6604
     26 C20        -4.5639   -9.7540   -6.7601 C.2       1 <0>         0.5283
     27 O1         -4.8099  -10.3226   -7.8028 O.2       1 <0>        -0.4792
     28 C21        -3.2006   -9.3003   -6.2833 C.3       1 <0>        -0.1183
     29 H1          2.4206   -1.9188    4.5884 H         1 <0>         0.1364
     30 H2          4.2049   -0.2788    4.1770 H         1 <0>         0.1435
     31 H3          4.6980    0.4507    1.8851 H         1 <0>         0.1419
     32 H4          1.1130   -2.8379    2.7631 H         1 <0>         0.1277
     33 H5         -1.3236   -2.9146    1.0714 H         1 <0>         0.0880
     34 H6         -0.9816   -1.5294    0.0013 H         1 <0>         0.1163
     35 H7         -2.7970   -3.0388   -0.8847 H         1 <0>         0.1402
     36 H8         -1.4017   -2.9028   -1.9818 H         1 <0>         0.1340
     37 H9         -0.0387   -6.1502   -1.2728 H         1 <0>         0.1418
     38 H10         0.1383   -4.6400   -2.1984 H         1 <0>         0.1345
     39 H11         1.7859   -4.6512   -0.3976 H         1 <0>         0.1162
     40 H12         0.5139   -4.9874    0.8066 H         1 <0>         0.0875
     41 H13        -3.4513   -5.0594   -1.8001 H         1 <0>         0.1319
     42 H14        -2.0991   -5.0789   -2.9575 H         1 <0>         0.1342
     43 H15        -1.2883   -7.2060   -1.9743 H         1 <0>         0.1020
     44 H16        -2.6404   -7.1865   -0.8169 H         1 <0>         0.1015
     45 H17        -1.5987   -7.9846   -4.1847 H         1 <0>         0.1440
     46 H18        -6.4498   -8.3241   -3.3763 H         1 <0>         0.1460
     47 H19        -6.4019   -9.5862   -5.8697 H         1 <0>         0.4209
     48 H20        -2.7771   -8.5717   -6.9747 H         1 <0>         0.1320
     49 H21        -2.5322  -10.1538   -6.1698 H         1 <0>         0.1330
     50 H22        -1.8020   -5.0647   -0.0391 H         1 <0>         0.4224
@<TRIPOS>BOND
     1    1    6 ar
     2    1    2 ar
     3    1   29 1
     4    2    3 ar
     5    2   30 1
     6    3    4 ar
     7    3   31 1
     8    4    9 1
     9    4    5 ar
    10    5    6 ar
    11    5    7 1
    12    6   32 1
    13    7    8 2
    14    7   10 1
    15    8    9 1
    16   10   15 1
    17   10   11 1
    18   11   12 1
    19   11   33 1
    20   11   34 1
    21   12   13 1
    22   12   35 1
    23   12   36 1
    24   13   14 1
    25   13   16 1
    26   13   50 1
    27   14   15 1
    28   14   37 1
    29   14   38 1
    30   15   39 1
    31   15   40 1
    32   16   17 1
    33   16   41 1
    34   16   42 1
    35   17   18 1
    36   17   43 1
    37   17   44 1
    38   18   23 ar
    39   18   19 ar
    40   19   20 ar
    41   19   45 1
    42   20   28 1
    43   20   21 ar
    44   21   22 ar
    45   21   25 1
    46   22   23 ar
    47   22   46 1
    48   23   24 1
    49   25   26 am
    50   25   47 1
    51   26   27 2
    52   26   28 1
    53   28   48 1
    54   28   49 1
@<TRIPOS>MOLECULE
ZINC00538550
   49    53     0     0     0
SMALL
USER_CHARGES

@<TRIPOS>ATOM
      1 C1          2.6265   -1.6014    3.5768 C.ar      1 <0>        -0.1277
      2 C2          3.6378   -0.6762    3.3482 C.ar      1 <0>        -0.0756
      3 C3          3.9137   -0.2684    2.0698 C.ar      1 <0>        -0.0789
      4 C4          3.1814   -0.7831    1.0209 C.ar      1 <0>        -0.1286
      5 C5          2.1474   -1.7253    1.2248 C.ar      1 <0>        -0.1409
      6 C6          1.8931   -2.1205    2.5549 C.ar      1 <0>        -0.0356
      7 C7          1.5160   -2.1252   -0.0237 C.2       1 <0>         0.3892
      8 N1          1.9318   -1.6135   -1.1448 N.2       1 <0>        -0.4422
      9 S1          3.1728   -0.5662   -0.7370 S.3       1 <0>         0.1982
     10 N2          0.4719   -3.0515   -0.0182 N.pl3     1 <0>        -0.6554
     11 C8         -0.9266   -2.6120    0.1018 C.3       1 <0>         0.1547
     12 C9         -1.7384   -3.2579   -1.0260 C.3       1 <0>         0.0408
     13 N3         -1.5399   -4.7132   -0.9964 N.3       1 <0>        -0.5317
     14 C10        -0.1365   -5.0648   -1.2509 C.3       1 <0>         0.0356
     15 C11         0.7405   -4.4925   -0.1385 C.3       1 <0>         0.1543
     16 C12        -2.4324   -5.3857   -1.9498 C.3       1 <0>         0.0614
     17 C13        -2.3803   -6.8972   -1.7181 C.3       1 <0>        -0.0762
     18 C14        -3.2960   -7.5871   -2.6961 C.ar      1 <0>        -0.0908
     19 C15        -2.7761   -8.1815   -3.8330 C.ar      1 <0>        -0.0501
     20 C16        -3.6154   -8.8107   -4.7241 C.ar      1 <0>        -0.1350
     21 C17        -4.9858   -8.8591   -4.4990 C.ar      1 <0>         0.1527
     22 C18        -5.5028   -8.2587   -3.3533 C.ar      1 <0>        -0.1290
     23 C19        -4.6582   -7.6332   -2.4574 C.ar      1 <0>         0.0011
     24 Cl1        -5.3098   -6.8941   -1.0281 Cl        1 <0>        -0.0490
     25 N4         -5.6206   -9.5461   -5.5344 N.am      1 <0>        -0.6589
     26 C20        -4.7535   -9.9760   -6.4664 C.2       1 <0>         0.5295
     27 O1         -5.0259  -10.5979   -7.4715 O.2       1 <0>        -0.4966
     28 C21        -3.3726   -9.5384   -6.0263 C.3       1 <0>        -0.1158
     29 H1          2.4208   -1.9190    4.5884 H         1 <0>         0.1325
     30 H2          4.2051   -0.2790    4.1770 H         1 <0>         0.1377
     31 H3          4.6981    0.4506    1.8851 H         1 <0>         0.1363
     32 H4          1.1132   -2.8380    2.7630 H         1 <0>         0.1314
     33 H5         -1.3270   -2.9242    1.0664 H         1 <0>         0.0687
     34 H6         -0.9781   -1.5267    0.0148 H         1 <0>         0.0714
     35 H7         -2.7958   -3.0322   -0.8883 H         1 <0>         0.0841
     36 H8         -1.4041   -2.8647   -1.9860 H         1 <0>         0.0388
     37 H9         -0.0322   -6.1495   -1.2765 H         1 <0>         0.0869
     38 H10         0.1755   -4.6464   -2.2079 H         1 <0>         0.0384
     39 H11         1.7907   -4.6499   -0.3844 H         1 <0>         0.0710
     40 H12         0.5035   -4.9890    0.8025 H         1 <0>         0.0681
     41 H13        -3.4528   -5.0309   -1.8047 H         1 <0>         0.0802
     42 H14        -2.1115   -5.1628   -2.9673 H         1 <0>         0.0353
     43 H15        -1.3600   -7.2520   -1.8632 H         1 <0>         0.0779
     44 H16        -2.7013   -7.1201   -0.7005 H         1 <0>         0.0914
     45 H17        -1.7129   -8.1512   -4.0207 H         1 <0>         0.1394
     46 H18        -6.5655   -8.2866   -3.1629 H         1 <0>         0.1391
     47 H19        -6.5779   -9.6966   -5.5762 H         1 <0>         0.4161
     48 H20        -2.9322   -8.8664   -6.7629 H         1 <0>         0.1276
     49 H21        -2.7306  -10.4045   -5.8659 H         1 <0>         0.1281
@<TRIPOS>BOND
     1    1    6 ar
     2    1    2 ar
     3    1   29 1
     4    2    3 ar
     5    2   30 1
     6    3    4 ar
     7    3   31 1
     8    4    9 1
     9    4    5 ar
    10    5    6 ar
    11    5    7 1
    12    6   32 1
    13    7    8 2
    14    7   10 1
    15    8    9 1
    16   10   15 1
    17   10   11 1
    18   11   12 1
    19   11   33 1
    20   11   34 1
    21   12   13 1
    22   12   35 1
    23   12   36 1
    24   13   14 1
    25   13   16 1
    26   14   15 1
    27   14   37 1
    28   14   38 1
    29   15   39 1
    30   15   40 1
    31   16   17 1
    32   16   41 1
    33   16   42 1
    34   17   18 1
    35   17   43 1
    36   17   44 1
    37   18   23 ar
    38   18   19 ar
    39   19   20 ar
    40   19   45 1
    41   20   28 1
    42   20   21 ar
    43   21   22 ar
    44   21   25 1
    45   22   23 ar
    46   22   46 1
    47   23   24 1
    48   25   26 am
    49   25   47 1
    50   26   27 2
    51   26   28 1
    52   28   48 1
    53   28   49 1
@<TRIPOS>MOLECULE
ZINC52957434
   42    45     0     0     0
SMALL
USER_CHARGES

@<TRIPOS>ATOM
      1 C1         -0.0944    1.5263   -0.1201 C.3       1 <0>        -0.0688
      2 C2         -0.0505    0.0202   -0.0907 C.2       1 <0>        -0.1748
      3 C3         -1.0807   -0.8454   -0.0644 C.2       1 <0>        -0.1163
      4 C4         -0.7418   -2.2563   -0.0406 C.2       1 <0>        -0.2133
      5 C5          0.6238   -2.5293   -0.0718 C.2       1 <0>         0.0879
      6 S1          1.3770   -1.0447   -0.0901 S.3       1 <0>         0.1606
      7 N1          1.1872   -3.7946   -0.1169 N.pl3     1 <0>        -0.6680
      8 C6          0.7759   -4.6303   -1.1815 C.ar      1 <0>         0.0944
      9 C7          1.7302   -5.1445   -2.0382 C.ar      1 <0>        -0.1117
     10 C8          1.3513   -5.9441   -3.1053 C.ar      1 <0>        -0.1309
     11 C9          0.0149   -6.2253   -3.3132 C.ar      1 <0>        -0.1055
     12 C10        -0.9459   -5.7252   -2.4574 C.ar      1 <0>        -0.1158
     13 C11        -0.5794   -4.9262   -1.3671 C.ar      1 <0>         0.1690
     14 N2         -1.5605   -4.5108   -0.5207 N.2       1 <0>        -0.6205
     15 C12        -1.7264   -3.3603    0.0396 C.2       1 <0>         0.5341
     16 N3         -2.8842   -3.1467    0.7528 N.pl3     1 <0>        -0.5932
     17 C13        -3.9636   -4.1457    0.7567 C.3       1 <0>         0.1269
     18 C14        -4.3489   -4.4403    2.2103 C.3       1 <0>         0.0398
     19 N4         -4.6668   -3.1798    2.8945 N.3       1 <0>        -0.5426
     20 C15        -3.4950   -2.2959    2.9543 C.3       1 <0>         0.0389
     21 C16        -3.0721   -1.9161    1.5361 C.3       1 <0>         0.1148
     22 C17        -5.2057   -3.4313    4.2377 C.3       1 <0>         0.0244
     23 H1          0.9222    1.9190   -0.1423 H         1 <0>         0.0737
     24 H2         -0.6310    1.8568   -1.0094 H         1 <0>         0.0816
     25 H3         -0.6060    1.8924    0.7700 H         1 <0>         0.0802
     26 H4         -2.1065   -0.5075   -0.0608 H         1 <0>         0.1456
     27 H5          1.8293   -4.0917    0.5466 H         1 <0>         0.4180
     28 H6          2.7746   -4.9225   -1.8762 H         1 <0>         0.1231
     29 H7          2.0991   -6.3460   -3.7728 H         1 <0>         0.1261
     30 H8         -0.2801   -6.8405   -4.1504 H         1 <0>         0.1258
     31 H9         -1.9878   -5.9514   -2.6300 H         1 <0>         0.1270
     32 H10        -4.8280   -3.7529    0.2212 H         1 <0>         0.0711
     33 H11        -3.6171   -5.0610    0.2770 H         1 <0>         0.1044
     34 H12        -5.2205   -5.0947    2.2301 H         1 <0>         0.0873
     35 H13        -3.5156   -4.9284    2.7157 H         1 <0>         0.0374
     36 H14        -3.7472   -1.3950    3.5137 H         1 <0>         0.0889
     37 H15        -2.6736   -2.8139    3.4494 H         1 <0>         0.0369
     38 H16        -2.1365   -1.3580    1.5715 H         1 <0>         0.0997
     39 H17        -3.8491   -1.3049    1.0770 H         1 <0>         0.0767
     40 H18        -4.4683   -3.9738    4.8294 H         1 <0>         0.0253
     41 H19        -5.4324   -2.4814    4.7219 H         1 <0>         0.0703
     42 H20        -6.1163   -4.0252    4.1585 H         1 <0>         0.0713
@<TRIPOS>BOND
     1    1    2 1
     2    1   23 1
     3    1   24 1
     4    1   25 1
     5    2    6 1
     6    2    3 2
     7    3    4 1
     8    3   26 1
     9    4   15 1
    10    4    5 2
    11    5    6 1
    12    5    7 1
    13    7    8 1
    14    7   27 1
    15    8   13 ar
    16    8    9 ar
    17    9   10 ar
    18    9   28 1
    19   10   11 ar
    20   10   29 1
    21   11   12 ar
    22   11   30 1
    23   12   13 ar
    24   12   31 1
    25   13   14 1
    26   14   15 2
    27   15   16 1
    28   16   21 1
    29   16   17 1
    30   17   18 1
    31   17   32 1
    32   17   33 1
    33   18   19 1
    34   18   34 1
    35   18   35 1
    36   19   20 1
    37   19   22 1
    38   20   21 1
    39   20   36 1
    40   20   37 1
    41   21   38 1
    42   21   39 1
    43   22   40 1
    44   22   41 1
    45   22   42 1
@<TRIPOS>MOLECULE
ZINC19632628
   52    55     0     0     0
SMALL
USER_CHARGES

@<TRIPOS>ATOM
      1 C1         -0.4222    1.1482    0.6028 C.ar      1 <0>        -0.1079
      2 C2          0.6601    2.0108    0.6026 C.ar      1 <0>        -0.0952
      3 C3          1.9368    1.5210    0.3963 C.ar      1 <0>        -0.0793
      4 C4          2.1340    0.1654    0.1908 C.ar      1 <0>        -0.0873
      5 C5          1.0452   -0.7167    0.1927 C.ar      1 <0>        -0.0908
      6 C6         -0.2395   -0.2037    0.4004 C.ar      1 <0>        -0.0870
      7 C7          1.2251   -2.1556   -0.0120 C.2       1 <0>         0.5212
      8 N1          2.0971   -2.9363    0.4789 N.2       1 <0>        -0.6117
      9 C8          3.1087   -2.7110    1.3539 C.ar      1 <0>         0.2104
     10 C9          3.2947   -3.6064    2.4136 C.ar      1 <0>        -0.1316
     11 C10         4.3181   -3.4115    3.3191 C.ar      1 <0>        -0.0780
     12 C11         5.1704   -2.3312    3.1890 C.ar      1 <0>        -0.1476
     13 C12         4.9978   -1.4353    2.1471 C.ar      1 <0>        -0.0510
     14 C13         3.9732   -1.6184    1.2348 C.ar      1 <0>        -0.1819
     15 S1          3.7601   -0.4608   -0.0781 S.3       1 <0>        -0.0275
     16 N2          0.3163   -2.7473   -0.8595 N.pl3     1 <0>        -0.5971
     17 C14        -0.6501   -1.9363   -1.6155 C.3       1 <0>         0.1142
     18 C15        -0.5734   -2.3385   -3.0921 C.3       1 <0>         0.0413
     19 N3         -0.7548   -3.7915   -3.2106 N.3       1 <0>        -0.5271
     20 C16         0.3255   -4.5204   -2.5327 C.3       1 <0>         0.0377
     21 C17         0.2897   -4.2071   -1.0378 C.3       1 <0>         0.1287
     22 C18        -0.8596   -4.1958   -4.6190 C.3       1 <0>         0.0576
     23 C19        -1.2935   -5.6609   -4.6980 C.3       1 <0>         0.0650
     24 O1         -2.6131   -5.7962   -4.1666 O.3       1 <0>        -0.3622
     25 C20        -3.1162   -7.1334   -4.1936 C.3       1 <0>         0.0601
     26 C21        -4.5277   -7.1593   -3.6039 C.3       1 <0>         0.0791
     27 O2         -5.4078   -6.4072   -4.4416 O.3       1 <0>        -0.5670
     28 H1         -1.4167    1.5359    0.7671 H         1 <0>         0.1359
     29 H2          0.5074    3.0678    0.7633 H         1 <0>         0.1366
     30 H3          2.7802    2.1956    0.3949 H         1 <0>         0.1400
     31 H4         -1.0908   -0.8682    0.4022 H         1 <0>         0.1365
     32 H5          2.6340   -4.4536    2.5234 H         1 <0>         0.1290
     33 H6          4.4539   -4.1074    4.1338 H         1 <0>         0.1290
     34 H7          5.9705   -2.1856    3.8997 H         1 <0>         0.1292
     35 H8          5.6644   -0.5916    2.0462 H         1 <0>         0.1310
     36 H9         -1.6561   -2.1191   -1.2380 H         1 <0>         0.0794
     37 H10        -0.4029   -0.8799   -1.5104 H         1 <0>         0.0944
     38 H11        -1.3582   -1.8273   -3.6496 H         1 <0>         0.0896
     39 H12         0.4003   -2.0595   -3.4950 H         1 <0>         0.0388
     40 H13         0.1926   -5.5915   -2.6845 H         1 <0>         0.0867
     41 H14         1.2866   -4.2109   -2.9434 H         1 <0>         0.0380
     42 H15         1.1579   -4.6513   -0.5510 H         1 <0>         0.1050
     43 H16        -0.6243   -4.6124   -0.6037 H         1 <0>         0.0706
     44 H17        -1.5972   -3.5708   -5.1225 H         1 <0>         0.0867
     45 H18         0.1092   -4.0770   -5.1042 H         1 <0>         0.0497
     46 H19        -1.2855   -5.9865   -5.7382 H         1 <0>         0.0526
     47 H20        -0.6040   -6.2757   -4.1195 H         1 <0>         0.0489
     48 H21        -3.1461   -7.4897   -5.2233 H         1 <0>         0.0532
     49 H22        -2.4645   -7.7788   -3.6046 H         1 <0>         0.0607
     50 H23        -4.8770   -8.1899   -3.5424 H         1 <0>         0.0590
     51 H24        -4.5127   -6.7206   -2.6061 H         1 <0>         0.0550
     52 H25        -6.3221   -6.3804   -4.1280 H         1 <0>         0.3794
@<TRIPOS>BOND
     1    1    6 ar
     2    1    2 ar
     3    1   28 1
     4    2    3 ar
     5    2   29 1
     6    3    4 ar
     7    3   30 1
     8    4   15 1
     9    4    5 ar
    10    5    6 ar
    11    5    7 1
    12    6   31 1
    13    7    8 2
    14    7   16 1
    15    8    9 1
    16    9   14 ar
    17    9   10 ar
    18   10   11 ar
    19   10   32 1
    20   11   12 ar
    21   11   33 1
    22   12   13 ar
    23   12   34 1
    24   13   14 ar
    25   13   35 1
    26   14   15 1
    27   16   21 1
    28   16   17 1
    29   17   18 1
    30   17   36 1
    31   17   37 1
    32   18   19 1
    33   18   38 1
    34   18   39 1
    35   19   20 1
    36   19   22 1
    37   20   21 1
    38   20   40 1
    39   20   41 1
    40   21   42 1
    41   21   43 1
    42   22   23 1
    43   22   44 1
    44   22   45 1
    45   23   24 1
    46   23   46 1
    47   23   47 1
    48   24   25 1
    49   25   26 1
    50   25   48 1
    51   25   49 1
    52   26   27 1
    53   26   50 1
    54   26   51 1
    55   27   52 1
@<TRIPOS>MOLECULE
ZINC01530611
   43    45     0     0     0
SMALL
USER_CHARGES

@<TRIPOS>ATOM
      1 C1         -5.6811    1.3607   -0.3895 C.3       1 <0>        -0.0475
      2 N1         -5.6577   -0.0983   -0.2206 N.4       1 <0>        -0.5096
      3 C2         -4.2653   -0.5656   -0.1914 C.3       1 <0>        -0.0084
      4 C3         -4.2409   -2.0853   -0.0155 C.3       1 <0>        -0.1794
      5 C4         -2.7907   -2.5720    0.0149 C.3       1 <0>         0.1487
      6 N2         -2.7680   -4.0325    0.1272 N.pl3     1 <0>        -0.6107
      7 C5         -2.6913   -4.8424   -1.0108 C.ar      1 <0>         0.1751
      8 C6         -1.6220   -4.6466   -1.8788 C.ar      1 <0>        -0.1410
      9 C7         -1.4736   -5.4397   -2.9971 C.ar      1 <0>        -0.1023
     10 C8         -2.4002   -6.4363   -3.2444 C.ar      1 <0>        -0.1264
     11 C9         -3.4660   -6.6200   -2.3938 C.ar      1 <0>        -0.1102
     12 C10        -3.6460   -5.8156   -1.2664 C.ar      1 <0>        -0.0994
     13 C11        -4.9119   -6.0915   -0.4880 C.3       1 <0>        -0.0689
     14 C12        -5.1138   -5.1475    0.6844 C.3       1 <0>        -0.0774
     15 C13        -4.0023   -5.2798    1.6948 C.ar      1 <0>        -0.0996
     16 C14        -2.8165   -4.6605    1.3756 C.ar      1 <0>         0.1518
     17 C15        -1.7436   -4.6795    2.2507 C.ar      1 <0>        -0.1184
     18 C16        -1.8773   -5.3599    3.4502 C.ar      1 <0>        -0.1095
     19 C17        -3.0600   -6.0057    3.7614 C.ar      1 <0>        -0.1164
     20 C18        -4.1454   -5.9689    2.8764 C.ar      1 <0>        -0.1028
     21 H1         -6.7143    1.7075   -0.4111 H         1 <0>         0.1266
     22 H2         -5.1573    1.8313    0.4426 H         1 <0>         0.1238
     23 H3         -5.1891    1.6261   -1.3252 H         1 <0>         0.1238
     24 H4         -6.1131   -0.3440    0.6456 H         1 <0>         0.4303
     25 H5         -3.7733   -0.3002   -1.1272 H         1 <0>         0.1329
     26 H6         -3.7415   -0.0951    0.6406 H         1 <0>         0.1330
     27 H7         -4.7329   -2.3506    0.9203 H         1 <0>         0.0915
     28 H8         -4.7647   -2.5558   -0.8475 H         1 <0>         0.0913
     29 H9         -2.2869   -2.2703   -0.9034 H         1 <0>         0.0828
     30 H10        -2.2782   -2.1337    0.8713 H         1 <0>         0.0803
     31 H11        -0.9026   -3.8672   -1.6754 H         1 <0>         0.1215
     32 H12        -0.6444   -5.2844   -3.6715 H         1 <0>         0.1277
     33 H13        -2.2869   -7.0730   -4.1093 H         1 <0>         0.1251
     34 H14        -4.1790   -7.4039   -2.6024 H         1 <0>         0.1223
     35 H15        -5.7638   -5.9997   -1.1617 H         1 <0>         0.0796
     36 H16        -4.8754   -7.1138   -0.1117 H         1 <0>         0.0764
     37 H17        -5.1407   -4.1220    0.3160 H         1 <0>         0.0728
     38 H18        -6.0638   -5.3767    1.1673 H         1 <0>         0.0709
     39 H19        -0.8216   -4.1746    2.0032 H         1 <0>         0.1257
     40 H20        -1.0526   -5.3858    4.1470 H         1 <0>         0.1276
     41 H21        -3.1485   -6.5434    4.6939 H         1 <0>         0.1270
     42 H22        -5.0720   -6.4709    3.1123 H         1 <0>         0.1291
     43 H23        -6.1426   -0.5339   -0.9908 H         1 <0>         0.4303
@<TRIPOS>BOND
     1    1    2 1
     2    1   21 1
     3    1   22 1
     4    1   23 1
     5    2    3 1
     6    2   24 1
     7    2   43 1
     8    3    4 1
     9    3   25 1
    10    3   26 1
    11    4    5 1
    12    4   27 1
    13    4   28 1
    14    5    6 1
    15    5   29 1
    16    5   30 1
    17    6   16 1
    18    6    7 1
    19    7   12 ar
    20    7    8 ar
    21    8    9 ar
    22    8   31 1
    23    9   10 ar
    24    9   32 1
    25   10   11 ar
    26   10   33 1
    27   11   12 ar
    28   11   34 1
    29   12   13 1
    30   13   14 1
    31   13   35 1
    32   13   36 1
    33   14   15 1
    34   14   37 1
    35   14   38 1
    36   15   20 ar
    37   15   16 ar
    38   16   17 ar
    39   17   18 ar
    40   17   39 1
    41   18   19 ar
    42   18   40 1
    43   19   20 ar
    44   19   41 1
    45   20   42 1
