@<TRIPOS>MOLECULE
ZINC14951858
   26    25     0     0     0
SMALL
USER_CHARGES

@<TRIPOS>ATOM
      1 C1         -0.0356    1.4899   -0.0266 C.3       1 <0>        -0.1112
      2 C2         -0.0021   -0.0163    0.0097 C.2       1 <0>         0.2570
      3 N1          0.0278   -0.6392    1.1519 N.2       1 <0>        -0.2768
      4 N2         -0.0530   -2.0373    1.1897 N.pl3     1 <0>        -0.5626
      5 C3         -0.1284   -2.6869    2.3936 C.cat     1 <0>         0.7713
      6 N3         -0.2052   -4.0166    2.4296 N.pl3     1 <0>        -0.7948
      7 N4         -0.1250   -1.9888    3.5286 N.pl3     1 <0>        -0.7732
      8 C4         -0.0032   -0.7780   -1.2388 C.2       1 <0>        -0.0359
      9 N5          0.0705   -0.1569   -2.3801 N.2       1 <0>        -0.0870
     10 N6          0.0694   -0.8866   -3.5761 N.pl3     1 <0>        -0.5493
     11 C5          0.1474   -0.2297   -4.7832 C.2       1 <0>         0.6342
     12 N7          0.2222    1.0714   -4.8136 N.2       1 <0>        -0.7665
     13 N8          0.1464   -0.9463   -5.9575 N.pl3     1 <0>        -0.8887
     14 H1          0.9836    1.8755   -0.0500 H         1 <0>         0.1069
     15 H2         -0.5695    1.8201   -0.9177 H         1 <0>         0.1093
     16 H3         -0.5451    1.8635    0.8616 H         1 <0>         0.0954
     17 H4         -0.0691   -1.0208    3.5024 H         1 <0>         0.4500
     18 H5         -0.1784   -2.4487    4.3810 H         1 <0>         0.4394
     19 H6         -0.0652   -1.8560   -1.2136 H         1 <0>         0.1172
     20 H7          0.0138   -1.8548   -3.5535 H         1 <0>         0.3992
     21 H8          0.2771    1.5343   -5.6642 H         1 <0>         0.3519
     22 H9          0.0907   -1.9144   -5.9349 H         1 <0>         0.3931
     23 H10         0.2013   -0.4833   -6.8082 H         1 <0>         0.4201
     24 H11        -0.2077   -4.5248    1.6034 H         1 <0>         0.4393
     25 H12        -0.0555   -2.5455    0.3634 H         1 <0>         0.4161
     26 H13        -0.2586   -4.4765    3.2820 H         1 <0>         0.4456
@<TRIPOS>BOND
     1    1    2 1
     2    1   14 1
     3    1   15 1
     4    1   16 1
     5    2    3 2
     6    2    8 1
     7    3    4 1
     8    4    5 1
     9    4   25 1
    10    5    6 2
    11    5    7 1
    12    6   24 1
    13    6   26 1
    14    7   17 1
    15    7   18 1
    16    8    9 2
    17    8   19 1
    18    9   10 1
    19   10   11 1
    20   10   20 1
    21   11   12 2
    22   11   13 1
    23   12   21 1
    24   13   22 1
    25   13   23 1
@<TRIPOS>MOLECULE
ZINC14951858
   26    25     0     0     0
SMALL
USER_CHARGES

@<TRIPOS>ATOM
      1 C1         -0.0184    1.5028    0.0103 C.3       1 <0>        -0.1635
      2 C2          0.0021   -0.0041    0.0020 C.2       1 <0>         0.2245
      3 N1          0.0217   -0.6607    1.1254 N.2       1 <0>        -0.2509
      4 N2          0.0237    0.0332    2.3424 N.pl3     1 <0>        -0.5614
      5 C3          0.0444   -0.6582    3.5251 C.cat     1 <0>         0.7717
      6 N3          0.0463    0.0018    4.6827 N.pl3     1 <0>        -0.7949
      7 N4          0.0624   -1.9905    3.5178 N.pl3     1 <0>        -0.7710
      8 C4         -0.0001   -0.7284   -1.2685 C.2       1 <0>         0.0408
      9 N5          0.0175   -2.0298   -1.2756 N.2       1 <0>        -0.1161
     10 N6          0.0155   -2.7237   -2.4927 N.pl3     1 <0>        -0.5531
     11 C5          0.0341   -4.1000   -2.5003 C.2       1 <0>         0.6413
     12 N7          0.0537   -4.7578   -1.3750 N.2       1 <0>        -0.7786
     13 N8          0.0321   -4.7814   -3.6953 N.pl3     1 <0>        -0.8897
     14 H1          1.0042    1.8801    0.0026 H         1 <0>         0.1082
     15 H2         -0.5455    1.8639   -0.8728 H         1 <0>         0.1098
     16 H3         -0.5286    1.8543    0.9071 H         1 <0>         0.0780
     17 H4          0.0610   -2.4709    2.6752 H         1 <0>         0.4532
     18 H5          0.0770   -2.4799    4.3551 H         1 <0>         0.4385
     19 H6         -0.0164   -0.1835   -2.2007 H         1 <0>         0.1513
     20 H7          0.0009   -2.2342   -3.3300 H         1 <0>         0.4007
     21 H8          0.0669   -5.7277   -1.3803 H         1 <0>         0.3468
     22 H9          0.0175   -4.2919   -4.5327 H         1 <0>         0.3944
     23 H10         0.0452   -5.7513   -3.7007 H         1 <0>         0.4184
     24 H11         0.0332    0.9717    4.6880 H         1 <0>         0.4397
     25 H12         0.0106    1.0031    2.3478 H         1 <0>         0.4169
     26 H13         0.0609   -0.4877    5.5200 H         1 <0>         0.4451
@<TRIPOS>BOND
     1    1    2 1
     2    1   14 1
     3    1   15 1
     4    1   16 1
     5    2    3 2
     6    2    8 1
     7    3    4 1
     8    4    5 1
     9    4   25 1
    10    5    6 2
    11    5    7 1
    12    6   24 1
    13    6   26 1
    14    7   17 1
    15    7   18 1
    16    8    9 2
    17    8   19 1
    18    9   10 1
    19   10   11 1
    20   10   20 1
    21   11   12 2
    22   11   13 1
    23   12   21 1
    24   13   22 1
    25   13   23 1
@<TRIPOS>MOLECULE
ZINC14951858
   25    24     0     0     0
SMALL
USER_CHARGES

@<TRIPOS>ATOM
      1 C1         -0.0184    1.5028    0.0103 C.3       1 <0>        -0.1185
      2 C2          0.0021   -0.0041    0.0020 C.2       1 <0>         0.1030
      3 N1          0.0218   -0.6648    1.1323 N.2       1 <0>        -0.2615
      4 N2          0.0237   -0.0258    2.2529 N.2       1 <0>        -0.5157
      5 C3          0.0435   -0.6914    3.3914 C.2       1 <0>         0.6622
      6 N3          0.0621   -2.0625    3.3839 N.pl3     1 <0>        -0.8597
      7 N4          0.0456   -0.0122    4.5827 N.pl3     1 <0>        -0.8311
      8 C4         -0.0000   -0.7048   -1.2270 C.2       1 <0>         0.0961
      9 N5          0.0176   -2.0082   -1.2341 N.2       1 <0>        -0.1659
     10 N6          0.0156   -2.7021   -2.4512 N.pl3     1 <0>        -0.5741
     11 C5          0.0342   -4.0777   -2.4588 C.2       1 <0>         0.6447
     12 N7          0.0538   -4.7357   -1.3332 N.2       1 <0>        -0.7825
     13 N8          0.0322   -4.7592   -3.6540 N.pl3     1 <0>        -0.8981
     14 H1          1.0042    1.8801    0.0026 H         1 <0>         0.0653
     15 H2         -0.5455    1.8639   -0.8728 H         1 <0>         0.0598
     16 H3         -0.5286    1.8543    0.9071 H         1 <0>         0.0763
     17 H4          0.0324    0.9577    4.5880 H         1 <0>         0.4226
     18 H5         -0.0163   -0.1598   -2.1592 H         1 <0>         0.1202
     19 H6          0.0010   -2.2126   -3.2885 H         1 <0>         0.3856
     20 H7          0.0670   -5.7056   -1.3386 H         1 <0>         0.3357
     21 H8          0.0176   -4.2697   -4.4913 H         1 <0>         0.3890
     22 H9          0.0453   -5.7291   -3.6593 H         1 <0>         0.4114
     23 H10         0.0607   -2.5429    2.5412 H         1 <0>         0.4306
     24 H11         0.0767   -2.5520    4.2212 H         1 <0>         0.3937
     25 H12         0.0602   -0.5016    5.4200 H         1 <0>         0.4108
@<TRIPOS>BOND
     1    1    2 1
     2    1   14 1
     3    1   15 1
     4    1   16 1
     5    2    3 2
     6    2    8 1
     7    3    4 1
     8    4    5 2
     9    5    6 1
    10    5    7 1
    11    6   23 1
    12    6   24 1
    13    7   17 1
    14    7   25 1
    15    8    9 2
    16    8   18 1
    17    9   10 1
    18   10   11 1
    19   10   19 1
    20   11   12 2
    21   11   13 1
    22   12   20 1
    23   13   21 1
    24   13   22 1
@<TRIPOS>MOLECULE
ZINC14951858
   25    24     0     0     0
SMALL
USER_CHARGES

@<TRIPOS>ATOM
      1 C1         -0.0375    1.4836   -0.0413 C.3       1 <0>        -0.0852
      2 C2         -0.0029   -0.0221    0.0133 C.2       1 <0>         0.1484
      3 N1          0.0290   -0.6319    1.1649 N.2       1 <0>        -0.2291
      4 N2         -0.0508   -2.0296    1.2199 N.pl3     1 <0>        -0.6147
      5 C3         -0.1247   -2.6670    2.4369 C.2       1 <0>         0.6453
      6 N3         -0.2030   -4.0395    2.4909 N.pl3     1 <0>        -0.8497
      7 N4         -0.1205   -1.9704    3.5391 N.2       1 <0>        -0.8029
      8 C4         -0.0051   -0.7736   -1.1853 C.2       1 <0>         0.0304
      9 N5          0.0679   -0.1628   -2.3411 N.2       1 <0>        -0.2586
     10 N6          0.0659   -0.8481   -3.4340 N.2       1 <0>        -0.5206
     11 C5          0.1394   -0.2328   -4.5983 C.2       1 <0>         0.6699
     12 N7          0.2179    1.1353   -4.6471 N.pl3     1 <0>        -0.8594
     13 N8          0.1372   -0.9613   -5.7601 N.pl3     1 <0>        -0.8260
     14 H1          0.9815    1.8695   -0.0708 H         1 <0>         0.0791
     15 H2         -0.5728    1.8025   -0.9356 H         1 <0>         0.0829
     16 H3         -0.5461    1.8676    0.8429 H         1 <0>         0.0763
     17 H4         -0.0653   -1.0027    3.5010 H         1 <0>         0.3541
     18 H5         -0.0670   -1.8511   -1.1469 H         1 <0>         0.0965
     19 H6          0.2194    1.6506   -3.8252 H         1 <0>         0.4262
     20 H7          0.0817   -1.9291   -5.7256 H         1 <0>         0.4250
     21 H8          0.1913   -0.5088   -6.6164 H         1 <0>         0.4136
     22 H9         -0.2061   -4.5578    1.6710 H         1 <0>         0.4006
     23 H10        -0.2551   -4.4890    3.3489 H         1 <0>         0.4213
     24 H11        -0.0539   -2.5478    0.4000 H         1 <0>         0.3786
     25 H12         0.2719    1.5878   -5.5033 H         1 <0>         0.3980
@<TRIPOS>BOND
     1    1    2 1
     2    1   14 1
     3    1   15 1
     4    1   16 1
     5    2    3 2
     6    2    8 1
     7    3    4 1
     8    4    5 1
     9    4   24 1
    10    5    6 1
    11    5    7 2
    12    6   22 1
    13    6   23 1
    14    7   17 1
    15    8    9 2
    16    8   18 1
    17    9   10 1
    18   10   11 2
    19   11   12 1
    20   11   13 1
    21   12   19 1
    22   12   25 1
    23   13   20 1
    24   13   21 1
@<TRIPOS>MOLECULE
ZINC14951858
   25    24     0     0     0
SMALL
USER_CHARGES

@<TRIPOS>ATOM
      1 C1         -0.0184    1.5028    0.0103 C.3       1 <0>        -0.0784
      2 C2          0.0021   -0.0041    0.0020 C.2       1 <0>         0.0973
      3 N1          0.0218   -0.6648    1.1323 N.2       1 <0>        -0.2889
      4 N2          0.0393   -1.9546    1.1252 N.2       1 <0>        -0.4534
      5 C3          0.0591   -2.6201    2.2637 C.2       1 <0>         0.6545
      6 N3          0.0612   -1.9409    3.4550 N.pl3     1 <0>        -0.8699
      7 N4          0.0777   -3.9913    2.2562 N.pl3     1 <0>        -0.8263
      8 C4         -0.0000   -0.7048   -1.2270 C.2       1 <0>         0.0314
      9 N5          0.0176   -2.0082   -1.2341 N.2       1 <0>        -0.1176
     10 N6          0.0156   -2.7021   -2.4512 N.pl3     1 <0>        -0.5826
     11 C5          0.0342   -4.0777   -2.4588 C.2       1 <0>         0.6482
     12 N7          0.0538   -4.7357   -1.3332 N.2       1 <0>        -0.7818
     13 N8          0.0322   -4.7592   -3.6540 N.pl3     1 <0>        -0.9003
     14 H1          1.0042    1.8801    0.0026 H         1 <0>         0.0688
     15 H2         -0.5455    1.8639   -0.8728 H         1 <0>         0.0687
     16 H3         -0.5286    1.8543    0.9071 H         1 <0>         0.0711
     17 H4          0.0763   -4.4717    1.4135 H         1 <0>         0.4332
     18 H5         -0.0163   -0.1598   -2.1592 H         1 <0>         0.1027
     19 H6          0.0010   -2.2126   -3.2885 H         1 <0>         0.3776
     20 H7          0.0670   -5.7056   -1.3386 H         1 <0>         0.3304
     21 H8          0.0176   -4.2697   -4.4913 H         1 <0>         0.3879
     22 H9          0.0453   -5.7291   -3.6593 H         1 <0>         0.4099
     23 H10         0.0480   -0.9710    3.4603 H         1 <0>         0.4222
     24 H11         0.0758   -2.4304    4.2923 H         1 <0>         0.3907
     25 H12         0.0923   -4.4807    3.0935 H         1 <0>         0.4045
@<TRIPOS>BOND
     1    1    2 1
     2    1   14 1
     3    1   15 1
     4    1   16 1
     5    2    3 2
     6    2    8 1
     7    3    4 1
     8    4    5 2
     9    5    6 1
    10    5    7 1
    11    6   23 1
    12    6   24 1
    13    7   17 1
    14    7   25 1
    15    8    9 2
    16    8   18 1
    17    9   10 1
    18   10   11 1
    19   10   19 1
    20   11   12 2
    21   11   13 1
    22   12   20 1
    23   13   21 1
    24   13   22 1
@<TRIPOS>MOLECULE
ZINC14951858
   25    24     0     0     0
SMALL
USER_CHARGES

@<TRIPOS>ATOM
      1 C1         -0.0184    1.5028    0.0103 C.3       1 <0>        -0.1452
      2 C2          0.0021   -0.0041    0.0020 C.2       1 <0>         0.0720
      3 N1          0.0217   -0.6618    1.1273 N.2       1 <0>        -0.1661
      4 N2          0.0238    0.0321    2.3443 N.pl3     1 <0>        -0.6247
      5 C3          0.0445   -0.6622    3.5320 C.2       1 <0>         0.6477
      6 N3          0.0465    0.0193    4.7272 N.pl3     1 <0>        -0.8514
      7 N4          0.0622   -1.9659    3.5248 N.2       1 <0>        -0.8103
      8 C4         -0.0000   -0.7048   -1.2270 C.2       1 <0>         0.0817
      9 N5          0.0177   -2.0140   -1.2342 N.2       1 <0>        -0.2824
     10 N6          0.0371   -2.6649   -0.1206 N.2       1 <0>        -0.4741
     11 C5          0.0550   -3.9837   -0.1279 C.2       1 <0>         0.6573
     12 N7          0.0530   -4.6629   -1.3192 N.pl3     1 <0>        -0.8637
     13 N8          0.0757   -4.6756    1.0559 N.pl3     1 <0>        -0.8272
     14 H1          1.0042    1.8801    0.0026 H         1 <0>         0.0778
     15 H2         -0.5455    1.8639   -0.8728 H         1 <0>         0.0837
     16 H3         -0.5286    1.8543    0.9071 H         1 <0>         0.0593
     17 H4          0.0607   -2.4463    2.6821 H         1 <0>         0.3538
     18 H5         -0.0163   -0.1598   -2.1592 H         1 <0>         0.1692
     19 H6          0.0384   -4.1734   -2.1565 H         1 <0>         0.4244
     20 H7          0.0771   -4.1952    1.8985 H         1 <0>         0.4244
     21 H8          0.0888   -5.6455    1.0505 H         1 <0>         0.4105
     22 H9          0.0334    0.9892    4.7325 H         1 <0>         0.3998
     23 H10         0.0611   -0.4702    5.5645 H         1 <0>         0.4200
     24 H11         0.0106    1.0020    2.3497 H         1 <0>         0.3693
     25 H12         0.0661   -5.6328   -1.3245 H         1 <0>         0.3939
@<TRIPOS>BOND
     1    1    2 1
     2    1   14 1
     3    1   15 1
     4    1   16 1
     5    2    3 2
     6    2    8 1
     7    3    4 1
     8    4    5 1
     9    4   24 1
    10    5    6 1
    11    5    7 2
    12    6   22 1
    13    6   23 1
    14    7   17 1
    15    8    9 2
    16    8   18 1
    17    9   10 1
    18   10   11 2
    19   11   12 1
    20   11   13 1
    21   12   19 1
    22   12   25 1
    23   13   20 1
    24   13   21 1
@<TRIPOS>MOLECULE
ZINC14951858
   25    24     0     0     0
SMALL
USER_CHARGES

@<TRIPOS>ATOM
      1 C1         -1.0163    1.3354   -0.0428 C.3       1 <0>        -0.1298
      2 C2         -0.7810   -0.1524   -0.0904 C.2       1 <0>         0.1027
      3 N1         -1.0990   -0.8987    0.9373 N.2       1 <0>        -0.3286
      4 N2         -1.6139   -0.3605    1.9906 N.2       1 <0>        -0.5018
      5 C3         -1.9343   -1.1123    3.0258 C.2       1 <0>         0.6537
      6 N3         -1.7201   -2.4661    2.9825 N.pl3     1 <0>        -0.8702
      7 N4         -2.4815   -0.5401    4.1455 N.pl3     1 <0>        -0.8259
      8 C4         -0.2164   -0.7426   -1.2455 C.2       1 <0>         0.0770
      9 N5          0.1160   -2.0031   -1.2372 N.2       1 <0>        -0.1661
     10 N6          0.1373   -2.7140   -0.0301 N.pl3     1 <0>        -0.5529
     11 C5          0.3626   -4.0712   -0.0350 C.2       1 <0>         0.6315
     12 N7          0.5564   -4.6959   -1.1631 N.2       1 <0>        -0.7815
     13 N8          0.3836   -4.7694    1.1503 N.pl3     1 <0>        -0.8992
     14 H1         -0.1321    1.8304    0.3589 H         1 <0>         0.0718
     15 H2         -1.2136    1.7044   -1.0493 H         1 <0>         0.0694
     16 H3         -1.8733    1.5474    0.5964 H         1 <0>         0.0764
     17 H4         -2.6330    0.4175    4.1761 H         1 <0>         0.4251
     18 H5         -0.0607   -0.1490   -2.1341 H         1 <0>         0.1923
     19 H6         -0.0069   -2.2493    0.8090 H         1 <0>         0.4016
     20 H7          0.7153   -5.6527   -1.1665 H         1 <0>         0.3357
     21 H8          0.2394   -4.3047    1.9895 H         1 <0>         0.3806
     22 H9          0.5425   -5.7263    1.1469 H         1 <0>         0.4126
     23 H10        -1.3330   -2.8708    2.1905 H         1 <0>         0.4148
     24 H11        -1.9558   -3.0190    3.7439 H         1 <0>         0.3981
     25 H12        -2.7172   -1.0930    4.9068 H         1 <0>         0.4125
@<TRIPOS>BOND
     1    1    2 1
     2    1   14 1
     3    1   15 1
     4    1   16 1
     5    2    3 2
     6    2    8 1
     7    3    4 1
     8    4    5 2
     9    5    6 1
    10    5    7 1
    11    6   23 1
    12    6   24 1
    13    7   17 1
    14    7   25 1
    15    8    9 2
    16    8   18 1
    17    9   10 1
    18   10   11 1
    19   10   19 1
    20   11   12 2
    21   11   13 1
    22   12   20 1
    23   13   21 1
    24   13   22 1
@<TRIPOS>MOLECULE
ZINC14951858
   25    24     0     0     0
SMALL
USER_CHARGES

@<TRIPOS>ATOM
      1 C1         -0.1488    1.4758    0.0012 C.3       1 <0>        -0.0695
      2 C2         -0.0663   -0.0288   -0.0210 C.2       1 <0>         0.1129
      3 N1          0.0727   -0.6905    1.0935 N.2       1 <0>        -0.2399
      4 N2          0.2793   -2.0758    1.0646 N.pl3     1 <0>        -0.6159
      5 C3          0.5242   -2.7594    2.2332 C.2       1 <0>         0.6454
      6 N3          0.8320   -4.0998    2.1945 N.pl3     1 <0>        -0.8505
      7 N4          0.4647   -2.1369    3.3773 N.2       1 <0>        -0.8035
      8 C4         -0.1399   -0.7232   -1.2514 C.2       1 <0>         0.0286
      9 N5         -0.1658   -0.0572   -2.3784 N.2       1 <0>        -0.2643
     10 N6          0.0348    1.2171   -2.3794 N.2       1 <0>        -0.5058
     11 C5         -0.0830    1.9024   -3.5001 C.2       1 <0>         0.6627
     12 N7         -0.5229    1.2810   -4.6407 N.pl3     1 <0>        -0.8601
     13 N8          0.2344    3.2362   -3.5248 N.pl3     1 <0>        -0.8259
     14 H1          0.8385    1.8966   -0.1891 H         1 <0>         0.0803
     15 H2         -0.8422    1.8131   -0.7692 H         1 <0>         0.0928
     16 H3         -0.5023    1.8059    0.9780 H         1 <0>         0.0556
     17 H4          0.2477   -1.1918    3.4046 H         1 <0>         0.3538
     18 H5         -0.1746   -1.8026   -1.2610 H         1 <0>         0.1472
     19 H6         -0.7474    0.3375   -4.6232 H         1 <0>         0.4254
     20 H7          0.6144    3.6590   -2.7388 H         1 <0>         0.4254
     21 H8          0.0789    3.7570   -4.3282 H         1 <0>         0.4129
     22 H9          0.9482   -4.5463    1.3413 H         1 <0>         0.4004
     23 H10         0.9328   -4.5982    3.0205 H         1 <0>         0.4207
     24 H11         0.2497   -2.5531    0.2206 H         1 <0>         0.3746
     25 H12        -0.6095    1.7850   -5.4649 H         1 <0>         0.3968
@<TRIPOS>BOND
     1    1    2 1
     2    1   14 1
     3    1   15 1
     4    1   16 1
     5    2    3 2
     6    2    8 1
     7    3    4 1
     8    4    5 1
     9    4   24 1
    10    5    6 1
    11    5    7 2
    12    6   22 1
    13    6   23 1
    14    7   17 1
    15    8    9 2
    16    8   18 1
    17    9   10 1
    18   10   11 2
    19   11   12 1
    20   11   13 1
    21   12   19 1
    22   12   25 1
    23   13   20 1
    24   13   21 1
@<TRIPOS>MOLECULE
ZINC14951858
   25    24     0     0     0
SMALL
USER_CHARGES

@<TRIPOS>ATOM
      1 C1         -0.7940    1.4279   -0.0250 C.3       1 <0>        -0.1143
      2 C2         -0.3504   -0.0122   -0.0027 C.2       1 <0>         0.0578
      3 N1         -0.1669   -0.6230    1.1408 N.2       1 <0>        -0.2775
      4 N2          0.3123   -1.8205    1.1628 N.2       1 <0>        -0.5151
      5 C3          0.5893   -2.3988    2.3153 C.2       1 <0>         0.6645
      6 N3          0.2691   -1.7714    3.4918 N.pl3     1 <0>        -0.8621
      7 N4          1.1976   -3.6277    2.3370 N.pl3     1 <0>        -0.8280
      8 C4         -0.1323   -0.7041   -1.2172 C.2       1 <0>         0.0701
      9 N5         -0.1412   -0.0551   -2.3477 N.2       1 <0>        -0.1846
     10 N6          0.0609    1.3312   -2.3612 N.pl3     1 <0>        -0.5740
     11 C5         -0.0625    2.0329   -3.5382 C.2       1 <0>         0.6368
     12 N7         -0.4642    1.4260   -4.6200 N.2       1 <0>        -0.7850
     13 N8          0.2380    3.3750   -3.5736 N.pl3     1 <0>        -0.8983
     14 H1          0.0778    2.0778    0.0502 H         1 <0>         0.0725
     15 H2         -1.3197    1.6317   -0.9579 H         1 <0>         0.0834
     16 H3         -1.4609    1.6158    0.8164 H         1 <0>         0.0800
     17 H4          1.4901   -4.0388    1.5086 H         1 <0>         0.4248
     18 H5          0.0415   -1.7700   -1.2078 H         1 <0>         0.1842
     19 H6          0.2878    1.7962   -1.5408 H         1 <0>         0.3964
     20 H7         -0.5512    1.9207   -5.4498 H         1 <0>         0.3361
     21 H8          0.6061    3.8105   -2.7889 H         1 <0>         0.3883
     22 H9          0.0818    3.8858   -4.3833 H         1 <0>         0.4112
     23 H10        -0.1611   -0.9022    3.4765 H         1 <0>         0.4248
     24 H11         0.4729   -2.1967    4.3394 H         1 <0>         0.3960
     25 H12         1.3354   -4.0858    3.1809 H         1 <0>         0.4120
@<TRIPOS>BOND
     1    1    2 1
     2    1   14 1
     3    1   15 1
     4    1   16 1
     5    2    3 2
     6    2    8 1
     7    3    4 1
     8    4    5 2
     9    5    6 1
    10    5    7 1
    11    6   23 1
    12    6   24 1
    13    7   17 1
    14    7   25 1
    15    8    9 2
    16    8   18 1
    17    9   10 1
    18   10   11 1
    19   10   19 1
    20   11   12 2
    21   11   13 1
    22   12   20 1
    23   13   21 1
    24   13   22 1
@<TRIPOS>MOLECULE
ZINC14951858
   25    24     0     0     0
SMALL
USER_CHARGES

@<TRIPOS>ATOM
      1 C1         -0.0184    1.5028    0.0103 C.3       1 <0>        -0.1446
      2 C2          0.0021   -0.0041    0.0020 C.2       1 <0>         0.1363
      3 N1          0.0217   -0.6618    1.1273 N.2       1 <0>        -0.2137
      4 N2          0.0238    0.0321    2.3443 N.pl3     1 <0>        -0.6167
      5 C3          0.0445   -0.6622    3.5320 C.2       1 <0>         0.6448
      6 N3          0.0465    0.0193    4.7272 N.pl3     1 <0>        -0.8504
      7 N4          0.0622   -1.9659    3.5248 N.2       1 <0>        -0.8030
      8 C4         -0.0000   -0.7048   -1.2270 C.2       1 <0>         0.0808
      9 N5          0.0177   -2.0140   -1.2342 N.2       1 <0>        -0.2612
     10 N6          0.0158   -2.6529   -2.3548 N.2       1 <0>        -0.5200
     11 C5          0.0337   -3.9717   -2.3620 C.2       1 <0>         0.6672
     12 N7          0.0543   -4.6636   -1.1783 N.pl3     1 <0>        -0.8590
     13 N8          0.0317   -4.6509   -3.5533 N.pl3     1 <0>        -0.8283
     14 H1          1.0042    1.8801    0.0026 H         1 <0>         0.0840
     15 H2         -0.5455    1.8639   -0.8728 H         1 <0>         0.0875
     16 H3         -0.5286    1.8543    0.9071 H         1 <0>         0.0660
     17 H4          0.0607   -2.4463    2.6821 H         1 <0>         0.3541
     18 H5         -0.0163   -0.1598   -2.1592 H         1 <0>         0.1187
     19 H6          0.0558   -4.1832   -0.3356 H         1 <0>         0.4283
     20 H7          0.0171   -4.1614   -4.3907 H         1 <0>         0.4240
     21 H8          0.0448   -5.6208   -3.5587 H         1 <0>         0.4123
     22 H9          0.0334    0.9892    4.7325 H         1 <0>         0.4004
     23 H10         0.0611   -0.4702    5.5645 H         1 <0>         0.4210
     24 H11         0.0106    1.0020    2.3497 H         1 <0>         0.3749
     25 H12         0.0675   -5.6335   -1.1836 H         1 <0>         0.3962
@<TRIPOS>BOND
     1    1    2 1
     2    1   14 1
     3    1   15 1
     4    1   16 1
     5    2    3 2
     6    2    8 1
     7    3    4 1
     8    4    5 1
     9    4   24 1
    10    5    6 1
    11    5    7 2
    12    6   22 1
    13    6   23 1
    14    7   17 1
    15    8    9 2
    16    8   18 1
    17    9   10 1
    18   10   11 2
    19   11   12 1
    20   11   13 1
    21   12   19 1
    22   12   25 1
    23   13   20 1
    24   13   21 1
@<TRIPOS>MOLECULE
ZINC14951858
   26    25     0     0     0
SMALL
USER_CHARGES

@<TRIPOS>ATOM
      1 C1         -0.8496    1.4586   -0.0728 C.3       1 <0>        -0.1206
      2 C2         -0.4003    0.0228    0.0143 C.2       1 <0>        -0.0140
      3 N1         -0.2324   -0.5381    1.1790 N.2       1 <0>        -0.0828
      4 N2          0.2982   -1.8320    1.2634 N.pl3     1 <0>        -0.5502
      5 C3          0.5695   -2.3853    2.4935 C.2       1 <0>         0.6334
      6 N3          0.2425   -1.7466    3.5821 N.2       1 <0>        -0.7639
      7 N4          1.1859   -3.6127    2.5748 N.pl3     1 <0>        -0.8888
      8 C4         -0.1607   -0.7164   -1.1679 C.2       1 <0>         0.1440
      9 N5         -0.1555   -0.1109   -2.3288 N.2       1 <0>        -0.2764
     10 N6          0.0315    1.1640   -2.3905 N.pl3     1 <0>        -0.4829
     11 C5         -0.0775    1.7913   -3.5455 C.cat     1 <0>         0.7494
     12 N7         -0.4914    1.1084   -4.6603 N.pl3     1 <0>        -0.7813
     13 N8          0.2230    3.1265   -3.6316 N.pl3     1 <0>        -0.8012
     14 H1          0.0194    2.1148   -0.0254 H         1 <0>         0.0918
     15 H2         -1.3747    1.6185   -1.0145 H         1 <0>         0.0775
     16 H3         -1.5186    1.6810    0.7586 H         1 <0>         0.1146
     17 H4          0.4338   -2.1367    4.4494 H         1 <0>         0.3523
     18 H5          1.4947   -4.0547    1.7685 H         1 <0>         0.3934
     19 H6          1.3117   -4.0359    3.4385 H         1 <0>         0.4203
     20 H7          0.0180   -1.7801   -1.1128 H         1 <0>         0.1913
     21 H8         -0.7039    0.1639   -4.5995 H         1 <0>         0.4481
     22 H9         -0.5716    1.5698   -5.5098 H         1 <0>         0.4392
     23 H10         0.5848    3.5928   -2.8619 H         1 <0>         0.4402
     24 H11         0.0737    3.6047   -4.4623 H         1 <0>         0.4459
     25 H12         0.4742   -2.3377    0.4546 H         1 <0>         0.3969
     26 H13         0.2523    1.6612   -1.5875 H         1 <0>         0.4239
@<TRIPOS>BOND
     1    1    2 1
     2    1   14 1
     3    1   15 1
     4    1   16 1
     5    2    3 2
     6    2    8 1
     7    3    4 1
     8    4    5 1
     9    4   25 1
    10    5    6 2
    11    5    7 1
    12    6   17 1
    13    7   18 1
    14    7   19 1
    15    8    9 2
    16    8   20 1
    17    9   10 1
    18   10   11 2
    19   10   26 1
    20   11   12 1
    21   11   13 1
    22   12   21 1
    23   12   22 1
    24   13   23 1
    25   13   24 1
