@<TRIPOS>MOLECULE
ZINC03941496
  103   105     0     0     0
SMALL
USER_CHARGES
methyl N-[(1S)-1-[[[(2S,3S)-2-hydroxy-3-[[(2S)-2-(methoxycarbonylamino)-3,3-dimethyl-butanoyl]amino]-4-phenyl-butyl]-[[4-(2-pyridyl)phenyl]methyl]amino]carbamoyl]-2,2-dimethyl-propyl]carbamate
@<TRIPOS>ATOM
      1 C1          4.7837    3.1462    2.5549 C.3       1 <0>        -0.1494
      2 C2          6.1707    3.7555    2.7690 C.3       1 <0>        -0.0727
      3 C3          6.7668    3.2212    4.0729 C.3       1 <0>        -0.1325
      4 C4          6.0517    5.2788    2.8492 C.3       1 <0>        -0.1434
      5 C5          7.0806    3.3759    1.5990 C.3       1 <0>         0.1581
      6 H1          7.1098    2.2910    1.4986 H         1 <0>         0.1078
      7 C6          6.5449    3.9837    0.3283 C.2       1 <0>         0.5231
      8 O1          6.9108    5.0871   -0.0174 O.2       1 <0>        -0.5041
      9 N1          5.6592    3.3010   -0.4240 N.am      1 <0>        -0.7238
     10 C7          5.2102    3.8500   -1.7059 C.3       1 <0>         0.1223
     11 H2          5.1447    4.9356   -1.6333 H         1 <0>         0.0999
     12 C8          6.2096    3.4716   -2.8008 C.3       1 <0>        -0.0870
     13 C9          7.5335    4.1363   -2.5242 C.ar      1 <0>        -0.0669
     14 C10         7.7997    5.3893   -3.0438 C.ar      1 <0>        -0.1069
     15 C11         9.0122    6.0011   -2.7860 C.ar      1 <0>        -0.1114
     16 C12         9.9625    5.3554   -2.0174 C.ar      1 <0>        -0.1199
     17 C13         9.6984    4.1002   -1.5021 C.ar      1 <0>        -0.1115
     18 C14         8.4838    3.4906   -1.7556 C.ar      1 <0>        -0.1116
     19 C15         3.8339    3.2780   -2.0517 C.3       1 <0>         0.1057
     20 H3          3.4999    3.6865   -3.0055 H         1 <0>         0.1149
     21 C16         2.8346    3.6565   -0.9568 C.3       1 <0>        -0.0004
     22 N2          1.5132    3.1073   -1.2888 N.3       1 <0>        -0.2696
     23 C17         0.5544    3.3492   -0.2024 C.3       1 <0>         0.0734
     24 C18        -0.7201    2.5944   -0.4798 C.ar      1 <0>        -0.0682
     25 C19        -0.8245    1.2628   -0.1200 C.ar      1 <0>        -0.0901
     26 C20        -1.9893    0.5667   -0.3717 C.ar      1 <0>        -0.0769
     27 C21        -3.0594    1.2061   -0.9947 C.ar      1 <0>        -0.0449
     28 C22        -2.9503    2.5491   -1.3506 C.ar      1 <0>        -0.1002
     29 C23        -1.7809    3.2356   -1.0937 C.ar      1 <0>        -0.1106
     30 C24        -4.3118    0.4614   -1.2733 C.ar      1 <0>         0.1685
     31 C25        -5.3765    1.1089   -1.8966 C.ar      1 <0>        -0.1632
     32 C26        -6.5383    0.4010   -2.1504 C.ar      1 <0>        -0.0715
     33 C27        -6.5973   -0.9330   -1.7721 C.ar      1 <0>        -0.1760
     34 C28        -5.5029   -1.5124   -1.1574 C.ar      1 <0>         0.1058
     35 N3         -4.4067   -0.8169   -0.9320 N.ar      1 <0>        -0.4777
     36 N4          1.0537    3.6174   -2.4698 N.am      1 <0>        -0.5816
     37 C29         0.7379    2.7884   -3.4844 C.2       1 <0>         0.5369
     38 O2          0.9601    1.6000   -3.3881 O.2       1 <0>        -0.4712
     39 C30         0.1086    3.3381   -4.7386 C.3       1 <0>         0.1579
     40 H4         -0.7050    2.6846   -5.0533 H         1 <0>         0.1351
     41 C31         1.1609    3.4124   -5.8467 C.3       1 <0>        -0.0688
     42 C32         1.6088    1.9980   -6.2205 C.3       1 <0>        -0.1466
     43 C33         0.5602    4.0985   -7.0753 C.3       1 <0>        -0.1375
     44 C34         2.3661    4.2151   -5.3526 C.3       1 <0>        -0.1548
     45 N5         -0.4171    4.6795   -4.4736 N.am      1 <0>        -0.7057
     46 C35        -1.6376    5.0269   -4.9278 C.2       1 <0>         0.6507
     47 O3         -2.3018    4.2274   -5.5572 O.2       1 <0>        -0.5575
     48 O4         -2.1208    6.2597   -4.6843 O.3       1 <0>        -0.3717
     49 C36        -3.4420    6.5644   -5.2037 C.3       1 <0>         0.0561
     50 O5          3.9198    1.8548   -2.1469 O.3       1 <0>        -0.5227
     51 N6          8.4333    3.8799    1.8489 N.am      1 <0>        -0.6897
     52 C37         9.2968    3.1549    2.5873 C.2       1 <0>         0.6510
     53 O6          8.9533    2.0833    3.0458 O.2       1 <0>        -0.5656
     54 O7         10.5399    3.6181    2.8170 O.3       1 <0>        -0.3702
     55 C38        11.4160    2.7844    3.6205 C.3       1 <0>         0.0567
     56 H5          4.8826    2.0797    2.3529 H         1 <0>         0.0621
     57 H6          4.1806    3.2918    3.4511 H         1 <0>         0.0687
     58 H7          4.2997    3.6330    1.7083 H         1 <0>         0.0565
     59 H8          7.7549    3.6553    4.2254 H         1 <0>         0.0512
     60 H9          6.1185    3.4917    4.9064 H         1 <0>         0.0541
     61 H10         6.8515    2.1360    4.0157 H         1 <0>         0.0699
     62 H11         5.6270    5.6595    1.9203 H         1 <0>         0.0598
     63 H12         5.4034    5.5492    3.6827 H         1 <0>         0.0583
     64 H13         7.0398    5.7129    3.0017 H         1 <0>         0.0582
     65 H14         5.3190    2.4462   -0.1167 H         1 <0>         0.3969
     66 H15         6.3419    2.3897   -2.8138 H         1 <0>         0.0833
     67 H16         5.8317    3.8030   -3.7680 H         1 <0>         0.0815
     68 H17         7.0589    5.8919   -3.6480 H         1 <0>         0.1136
     69 H18         9.2187    6.9816   -3.1889 H         1 <0>         0.1161
     70 H19        10.9116    5.8315   -1.8197 H         1 <0>         0.1158
     71 H20        10.4410    3.5956   -0.9019 H         1 <0>         0.1124
     72 H21         8.2776    2.5098   -1.3533 H         1 <0>         0.1079
     73 H22         2.7690    4.7421   -0.8841 H         1 <0>         0.0539
     74 H23         3.1686    3.2480   -0.0030 H         1 <0>         0.0970
     75 H24         0.3386    4.4158   -0.1390 H         1 <0>         0.0520
     76 H25         0.9807    3.0081    0.7410 H         1 <0>         0.0991
     77 H26         0.0069    0.7672    0.3590 H         1 <0>         0.1260
     78 H27        -2.0698   -0.4729   -0.0904 H         1 <0>         0.1346
     79 H28        -3.7779    3.0506   -1.8303 H         1 <0>         0.1219
     80 H29        -1.6941    4.2754   -1.3722 H         1 <0>         0.1153
     81 H30        -5.2965    2.1487   -2.1773 H         1 <0>         0.1350
     82 H31        -7.3804    0.8761   -2.6318 H         1 <0>         0.1365
     83 H32        -7.4897   -1.5129   -1.9559 H         1 <0>         0.1367
     84 H33        -5.5453   -2.5504   -0.8621 H         1 <0>         0.1589
     85 H34         0.9547    4.5762   -2.5781 H         1 <0>         0.3691
     86 H35         0.7406    1.4073   -6.5129 H         1 <0>         0.0598
     87 H36         2.3115    2.0473   -7.0522 H         1 <0>         0.0610
     88 H37         2.0932    1.5317   -5.3626 H         1 <0>         0.0751
     89 H38         0.2411    5.1062   -6.8090 H         1 <0>         0.0521
     90 H39         1.3099    4.1515   -7.8647 H         1 <0>         0.0618
     91 H40        -0.2984    3.5267   -7.4273 H         1 <0>         0.0628
     92 H41         2.7941    3.7263   -4.4774 H         1 <0>         0.0623
     93 H42         3.1158    4.2681   -6.1421 H         1 <0>         0.0681
     94 H43         2.0470    5.2228   -5.0863 H         1 <0>         0.0544
     95 H44         0.1131    5.3178   -3.9712 H         1 <0>         0.4012
     96 H45        -3.4389    6.4601   -6.2887 H         1 <0>         0.0656
     97 H46        -4.1690    5.8749   -4.7745 H         1 <0>         0.0647
     98 H47        -3.7101    7.5869   -4.9377 H         1 <0>         0.1046
     99 H48         4.2119    1.4230   -1.3325 H         1 <0>         0.3656
    100 H49         8.7075    4.7353    1.4829 H         1 <0>         0.4159
    101 H50        11.5487    1.8194    3.1312 H         1 <0>         0.0645
    102 H51        12.3843    3.2732    3.7286 H         1 <0>         0.1037
    103 H52        10.9728    2.6346    4.6050 H         1 <0>         0.0644
@<TRIPOS>BOND
     1    1    2 1
     2    1   56 1
     3    1   57 1
     4    1   58 1
     5    2    3 1
     6    2    4 1
     7    2    5 1
     8    3   59 1
     9    3   60 1
    10    3   61 1
    11    4   62 1
    12    4   63 1
    13    4   64 1
    14    5    6 1
    15    5    7 1
    16    5   51 1
    17    7    8 2
    18    7    9 am
    19    9   10 1
    20    9   65 1
    21   10   11 1
    22   10   12 1
    23   10   19 1
    24   12   13 1
    25   12   66 1
    26   12   67 1
    27   13   18 ar
    28   13   14 ar
    29   14   15 ar
    30   14   68 1
    31   15   16 ar
    32   15   69 1
    33   16   17 ar
    34   16   70 1
    35   17   18 ar
    36   17   71 1
    37   18   72 1
    38   19   20 1
    39   19   21 1
    40   19   50 1
    41   21   22 1
    42   21   73 1
    43   21   74 1
    44   22   23 1
    45   22   36 1
    46   23   24 1
    47   23   75 1
    48   23   76 1
    49   24   29 ar
    50   24   25 ar
    51   25   26 ar
    52   25   77 1
    53   26   27 ar
    54   26   78 1
    55   27   28 ar
    56   27   30 1
    57   28   29 ar
    58   28   79 1
    59   29   80 1
    60   30   35 ar
    61   30   31 ar
    62   31   32 ar
    63   31   81 1
    64   32   33 ar
    65   32   82 1
    66   33   34 ar
    67   33   83 1
    68   34   35 ar
    69   34   84 1
    70   36   37 am
    71   36   85 1
    72   37   38 2
    73   37   39 1
    74   39   40 1
    75   39   41 1
    76   39   45 1
    77   41   42 1
    78   41   43 1
    79   41   44 1
    80   42   86 1
    81   42   87 1
    82   42   88 1
    83   43   89 1
    84   43   90 1
    85   43   91 1
    86   44   92 1
    87   44   93 1
    88   44   94 1
    89   45   46 am
    90   45   95 1
    91   46   47 2
    92   46   48 1
    93   48   49 1
    94   49   96 1
    95   49   97 1
    96   49   98 1
    97   50   99 1
    98   51   52 am
    99   51  100 1
   100   52   53 2
   101   52   54 1
   102   54   55 1
   103   55  101 1
   104   55  102 1
   105   55  103 1
@<TRIPOS>MOLECULE
ZINC13588931
   37    38     0     0     0
SMALL
USER_CHARGES

@<TRIPOS>ATOM
      1 C1         -0.0170    1.4058    0.0098 C.2       1 <0>        -0.3223
      2 C2          1.1585    2.0778    0.0022 C.2       1 <0>         0.2252
      3 N1          2.3268    1.3767   -0.0128 N.am      1 <0>        -0.5269
      4 C3          2.3121    0.0311   -0.0199 C.2       1 <0>         0.6655
      5 O1          3.3676   -0.5804   -0.0328 O.2       1 <0>        -0.5521
      6 N2          1.1640   -0.6440   -0.0125 N.2       1 <0>        -0.6223
      7 C4          0.0021   -0.0041    0.0020 C.2       1 <0>         0.5079
      8 N3         -1.1774   -0.7119    0.0095 N.pl3     1 <0>        -0.8195
      9 C5          3.6056    2.0915   -0.0216 C.3       1 <0>         0.3015
     10 H1          4.1614    1.8359   -0.9238 H         1 <0>         0.1064
     11 C6          4.4374    1.6928    1.2367 C.3       1 <0>        -0.0901
     12 S1          5.5741    3.1480    1.2841 S.3       1 <0>        -0.2844
     13 C7          4.5621    4.2850    0.2459 C.3       1 <0>         0.1557
     14 H2          5.0706    4.5098   -0.6917 H         1 <0>         0.1180
     15 O2          3.3674    3.5045    0.0129 O.3       1 <0>        -0.3696
     16 C8          4.2354    5.5713    1.0071 C.3       1 <0>         0.1392
     17 O3          3.5294    5.2485    2.2069 O.3       1 <0>        -0.7502
     18 P1          3.0262    6.3623    3.2549 P.3       1 <0>         2.2919
     19 O4          4.2233    7.2349    3.6936 O.2       1 <0>        -1.1050
     20 O5          1.9571    7.2541    2.5849 O.3       1 <0>        -1.1187
     21 O6          2.3894    5.6376    4.5438 O.3       1 <0>        -1.0974
     22 P2          2.0019    6.1308    6.0266 P.3       1 <0>         2.3467
     23 O7          3.0909    7.0936    6.5502 O.2       1 <0>        -1.1165
     24 O8          0.6424    6.8637    5.9867 O.3       1 <0>        -1.1412
     25 O9          1.8963    4.8569    7.0054 O.3       1 <0>        -1.1052
     26 P3          1.8542    4.6756    8.6047 P.3       1 <0>         2.2215
     27 O10         2.8621    5.6735    9.2700 O.2       1 <0>        -1.1973
     28 O11         0.4064    4.9707    9.1257 O.3       1 <0>        -1.2119
     29 O12         2.2529    3.2064    8.9744 O.3       1 <0>        -1.2131
     30 H3         -0.9547    1.9414    0.0261 H         1 <0>         0.1581
     31 H4          1.1700    3.1577    0.0075 H         1 <0>         0.1905
     32 H5         -2.0255   -0.2412    0.0201 H         1 <0>         0.4139
     33 H6         -1.1611   -1.6818    0.0041 H         1 <0>         0.4070
     34 H7          3.8142    1.6414    2.1296 H         1 <0>         0.1107
     35 H8          4.9831    0.7626    1.0785 H         1 <0>         0.1334
     36 H9          5.1606    6.0899    1.2583 H         1 <0>         0.0808
     37 H10         3.6158    6.2154    0.3831 H         1 <0>         0.0697
@<TRIPOS>BOND
     1    1    7 1
     2    1    2 2
     3    1   30 1
     4    2    3 1
     5    2   31 1
     6    3    4 am
     7    3    9 1
     8    4    5 2
     9    4    6 1
    10    6    7 2
    11    7    8 1
    12    8   32 1
    13    8   33 1
    14    9   10 1
    15    9   15 1
    16    9   11 1
    17   11   12 1
    18   11   34 1
    19   11   35 1
    20   12   13 1
    21   13   14 1
    22   13   15 1
    23   13   16 1
    24   16   17 1
    25   16   36 1
    26   16   37 1
    27   17   18 1
    28   18   19 2
    29   18   20 1
    30   18   21 1
    31   21   22 1
    32   22   23 2
    33   22   24 1
    34   22   25 1
    35   25   26 1
    36   26   27 2
    37   26   28 1
    38   26   29 1
@<TRIPOS>MOLECULE
ZINC13588931
   38    39     0     0     0
SMALL
USER_CHARGES

@<TRIPOS>ATOM
      1 C1         -0.0170    1.4058    0.0098 C.2       1 <0>        -0.3219
      2 C2          1.1585    2.0778    0.0022 C.2       1 <0>         0.2232
      3 N1          2.3268    1.3767   -0.0128 N.am      1 <0>        -0.5277
      4 C3          2.3121    0.0311   -0.0199 C.2       1 <0>         0.6647
      5 O1          3.3676   -0.5804   -0.0328 O.2       1 <0>        -0.5499
      6 N2          1.1640   -0.6440   -0.0125 N.2       1 <0>        -0.6213
      7 C4          0.0021   -0.0041    0.0020 C.2       1 <0>         0.5075
      8 N3         -1.1774   -0.7119    0.0095 N.pl3     1 <0>        -0.8188
      9 C5          3.6056    2.0915   -0.0216 C.3       1 <0>         0.3008
     10 H1          4.1614    1.8359   -0.9238 H         1 <0>         0.1080
     11 C6          4.4374    1.6928    1.2367 C.3       1 <0>        -0.0890
     12 S1          5.5741    3.1480    1.2841 S.3       1 <0>        -0.2850
     13 C7          4.5621    4.2850    0.2459 C.3       1 <0>         0.1559
     14 H2          5.0706    4.5098   -0.6917 H         1 <0>         0.1207
     15 O2          3.3674    3.5045    0.0129 O.3       1 <0>        -0.3697
     16 C8          4.2354    5.5713    1.0071 C.3       1 <0>         0.1399
     17 O3          3.5294    5.2485    2.2069 O.3       1 <0>        -0.7527
     18 P1          3.0262    6.3623    3.2549 P.3       1 <0>         2.2901
     19 O4          4.2233    7.2349    3.6936 O.2       1 <0>        -1.0999
     20 O5          1.9571    7.2541    2.5849 O.3       1 <0>        -1.1117
     21 O6          2.3894    5.6376    4.5438 O.3       1 <0>        -1.0976
     22 P2          2.0019    6.1308    6.0266 P.3       1 <0>         2.3548
     23 O7          3.0909    7.0936    6.5502 O.2       1 <0>        -1.1057
     24 O8          0.6424    6.8637    5.9867 O.3       1 <0>        -1.1163
     25 O9          1.8963    4.8569    7.0054 O.3       1 <0>        -1.0987
     26 P3          1.8542    4.6756    8.6047 P.3       1 <0>         2.2758
     27 O10         0.8812    5.7092    9.2146 O.2       1 <0>        -1.1170
     28 O11         1.3516    3.1887    8.9632 O.3       1 <0>        -0.9092
     29 O12         3.2690    4.8951    9.1853 O.3       1 <0>        -1.1162
     30 H3         -0.9547    1.9414    0.0261 H         1 <0>         0.1581
     31 H4          1.1700    3.1577    0.0075 H         1 <0>         0.1899
     32 H5         -2.0255   -0.2412    0.0201 H         1 <0>         0.4143
     33 H6         -1.1611   -1.6818    0.0041 H         1 <0>         0.4082
     34 H7          3.8142    1.6414    2.1296 H         1 <0>         0.1070
     35 H8          4.9831    0.7626    1.0785 H         1 <0>         0.1339
     36 H9          5.1606    6.0899    1.2583 H         1 <0>         0.0829
     37 H10         3.6158    6.2154    0.3831 H         1 <0>         0.0729
     38 H11         1.3018    3.0085    9.9120 H         1 <0>         0.3998
@<TRIPOS>BOND
     1    1    7 1
     2    1    2 2
     3    1   30 1
     4    2    3 1
     5    2   31 1
     6    3    4 am
     7    3    9 1
     8    4    5 2
     9    4    6 1
    10    6    7 2
    11    7    8 1
    12    8   32 1
    13    8   33 1
    14    9   10 1
    15    9   15 1
    16    9   11 1
    17   11   12 1
    18   11   34 1
    19   11   35 1
    20   12   13 1
    21   13   14 1
    22   13   15 1
    23   13   16 1
    24   16   17 1
    25   16   36 1
    26   16   37 1
    27   17   18 1
    28   18   19 2
    29   18   20 1
    30   18   21 1
    31   21   22 1
    32   22   23 2
    33   22   24 1
    34   22   25 1
    35   25   26 1
    36   26   27 2
    37   26   28 1
    38   26   29 1
    39   28   38 1
@<TRIPOS>MOLECULE
ZINC00021246
   26    27     0     0     0
SMALL
USER_CHARGES
2-benzylsulfanyl-6-chloro-pyrimidin-4-amine
@<TRIPOS>ATOM
      1 C1         -0.0167    1.3781    0.0096 C.ar      1 <0>        -0.1110
      2 C2          1.1709    2.0855    0.0021 C.ar      1 <0>        -0.1195
      3 C3          2.3773    1.4107   -0.0136 C.ar      1 <0>        -0.0997
      4 C4          2.3960    0.0285   -0.0217 C.ar      1 <0>        -0.0847
      5 C5          1.2084   -0.6789   -0.0136 C.ar      1 <0>        -0.0997
      6 C6          0.0021   -0.0041    0.0020 C.ar      1 <0>        -0.1194
      7 C7          3.7112   -0.7071   -0.0387 C.3       1 <0>        -0.0690
      8 S1          4.2207   -0.9925   -1.7519 S.3       1 <0>         0.0320
      9 C8          5.7403   -1.8424   -1.4817 C.ar      1 <0>         0.3564
     10 N1          6.4523   -2.2409   -2.5260 N.ar      1 <0>        -0.5601
     11 C9          7.6030   -2.8841   -2.3558 C.ar      1 <0>         0.4677
     12 C10         8.0537   -3.1354   -1.0587 C.ar      1 <0>        -0.2868
     13 C11         7.2809   -2.7029    0.0036 C.ar      1 <0>         0.2658
     14 N2          6.1454   -2.0625   -0.2392 N.ar      1 <0>        -0.5634
     15 Cl1         7.7949   -2.9895    1.6368 Cl        1 <0>        -0.0089
     16 N3          8.3443   -3.2995   -3.4501 N.pl3     1 <0>        -0.8255
     17 H1         -0.9592    1.9054    0.0170 H         1 <0>         0.1245
     18 H2          1.1563    3.1654    0.0081 H         1 <0>         0.1259
     19 H3          3.3051    1.9634   -0.0195 H         1 <0>         0.1258
     20 H4          1.2231   -1.7587   -0.0199 H         1 <0>         0.1258
     21 H5         -0.9258   -0.5567    0.0079 H         1 <0>         0.1259
     22 H6          4.4678   -0.1105    0.4708 H         1 <0>         0.1068
     23 H7          3.5989   -1.6640    0.4711 H         1 <0>         0.1067
     24 H8          8.9849   -3.6554   -0.8886 H         1 <0>         0.1544
     25 H9          8.0245   -3.1215   -4.3484 H         1 <0>         0.4132
     26 H10         9.1832   -3.7683   -3.3179 H         1 <0>         0.4166
@<TRIPOS>BOND
     1    1    6 ar
     2    1    2 ar
     3    1   17 1
     4    2    3 ar
     5    2   18 1
     6    3    4 ar
     7    3   19 1
     8    4    5 ar
     9    4    7 1
    10    5    6 ar
    11    5   20 1
    12    6   21 1
    13    7    8 1
    14    7   22 1
    15    7   23 1
    16    8    9 1
    17    9   14 ar
    18    9   10 ar
    19   10   11 ar
    20   11   12 ar
    21   11   16 1
    22   12   13 ar
    23   12   24 1
    24   13   14 ar
    25   13   15 1
    26   16   25 1
    27   16   26 1
@<TRIPOS>MOLECULE
ZINC03779042
   32    33     0     0     0
SMALL
USER_CHARGES

@<TRIPOS>ATOM
      1 C1         -0.0184    1.5028    0.0103 C.3       1 <0>        -0.0871
      2 C2          0.0021   -0.0041    0.0020 C.2       1 <0>        -0.2505
      3 C3         -1.1526   -0.7039    0.0037 C.2       1 <0>         0.1638
      4 N1         -1.1160   -2.0718   -0.0039 N.am      1 <0>        -0.5289
      5 C4          0.0598   -2.7257   -0.0125 C.2       1 <0>         0.6982
      6 O1          0.0693   -3.9416   -0.0187 O.2       1 <0>        -0.5214
      7 N2          1.2256   -2.0531   -0.0148 N.am      1 <0>        -0.6592
      8 H1          2.0644   -2.5402   -0.0217 H         1 <0>         0.4323
      9 C5          1.2322   -0.7047   -0.0135 C.2       1 <0>         0.5527
     10 O2          2.2865   -0.0953   -0.0208 O.2       1 <0>        -0.5056
     11 C6         -2.3687   -2.8312   -0.0021 C.3       1 <0>         0.3096
     12 H2         -3.2193   -2.1584    0.1071 H         1 <0>         0.1252
     13 C7         -2.4992   -3.6565   -1.3014 C.3       1 <0>        -0.1823
     14 C8         -3.1605   -4.9757   -0.8435 C.3       1 <0>         0.0822
     15 H3         -2.5046   -5.8223   -1.0463 H         1 <0>         0.1042
     16 C9         -3.3514   -4.7913    0.6783 C.3       1 <0>         0.1102
     17 H4         -4.3537   -4.4206    0.8929 H         1 <0>         0.1060
     18 O3         -2.3620   -3.8096    1.0602 O.3       1 <0>        -0.3416
     19 C10        -3.1055   -6.1124    1.4099 C.3       1 <0>         0.0840
     20 O4         -3.3996   -5.9498    2.7988 O.3       1 <0>        -0.5643
     21 N3         -4.4535   -5.1591   -1.5074 N.2       1 <0>        -0.3983
     22 N4         -4.4962   -5.3273   -2.6179 N.1       1 <0>         0.3002
     23 N5         -4.5380   -5.4918   -3.7047 N.1       1 <0>        -0.1548
     24 H5          1.0042    1.8801    0.0026 H         1 <0>         0.0822
     25 H6         -0.5455    1.8639   -0.8728 H         1 <0>         0.0726
     26 H7         -0.5286    1.8543    0.9071 H         1 <0>         0.0733
     27 H8         -2.1006   -0.1866    0.0113 H         1 <0>         0.1811
     28 H9         -3.1353   -3.1397   -2.0199 H         1 <0>         0.0946
     29 H10        -1.5163   -3.8510   -1.7306 H         1 <0>         0.1046
     30 H11        -3.7492   -6.8855    0.9903 H         1 <0>         0.0692
     31 H12        -2.0621   -6.4046    1.2913 H         1 <0>         0.0616
     32 H13        -3.2657   -6.7496    3.3255 H         1 <0>         0.3863
@<TRIPOS>BOND
     1    1    2 1
     2    1   24 1
     3    1   25 1
     4    1   26 1
     5    2    9 1
     6    2    3 2
     7    3    4 1
     8    3   27 1
     9    4    5 am
    10    4   11 1
    11    5    6 2
    12    5    7 am
    13    7    8 1
    14    7    9 am
    15    9   10 2
    16   11   12 1
    17   11   18 1
    18   11   13 1
    19   13   14 1
    20   13   28 1
    21   13   29 1
    22   14   15 1
    23   14   16 1
    24   14   21 1
    25   16   17 1
    26   16   18 1
    27   16   19 1
    28   19   20 1
    29   19   30 1
    30   19   31 1
    31   20   32 1
    32   21   22 2
    33   22   23 2
@<TRIPOS>MOLECULE
ZINC06524414
   31    33     0     0     0
SMALL
USER_CHARGES
8-chloro-5-(2-cyclopropylethynyl)-10-hydroxy-5-(trifluoromethyl)-4-oxa-2-azabicyclo[4.4.0]deca-6,8,10-trien-3-one
@<TRIPOS>ATOM
      1 C1          0.8649   -1.7017   -1.6342 C.ar      1 <0>        -0.0365
      2 C2          1.8031   -2.1239   -2.5610 C.ar      1 <0>        -0.0441
      3 C3          2.8856   -1.3201   -2.8711 C.ar      1 <0>        -0.0751
      4 C4          3.0324   -0.0855   -2.2581 C.ar      1 <0>         0.0950
      5 C5          2.0867    0.3404   -1.3315 C.ar      1 <0>         0.1679
      6 C6          1.0081   -0.4755   -1.0181 C.ar      1 <0>        -0.1622
      7 C7          0.0021   -0.0041    0.0020 C.3       1 <0>         0.2835
      8 O1         -0.0176    1.4492    0.0100 O.3       1 <0>        -0.3094
      9 C8          1.1703    2.0828    0.0021 C.2       1 <0>         0.6592
     10 O2          1.3126    3.1048    0.6438 O.2       1 <0>        -0.4685
     11 N1          2.2028    1.5926   -0.7119 N.am      1 <0>        -0.6528
     12 C9         -1.3332   -0.5129   -0.3513 C.1       1 <0>        -0.2283
     13 C10        -2.3982   -0.9188   -0.6331 C.1       1 <0>        -0.0118
     14 C11        -3.7335   -1.4276   -0.9864 C.3       1 <0>        -0.0747
     15 C12        -4.5582   -0.6135   -1.9854 C.3       1 <0>        -0.1549
     16 C13        -4.9449   -0.6269   -0.5044 C.3       1 <0>        -0.1562
     17 C14         0.3958   -0.5184    1.3881 C.3       1 <0>         0.4463
     18 F1         -0.5337   -0.0708    2.3330 F         1 <0>        -0.1570
     19 F2          1.6669   -0.0376    1.7203 F         1 <0>        -0.1685
     20 F3          0.4142   -1.9173    1.3785 F         1 <0>        -0.1561
     21 O3          4.0964    0.7053   -2.5610 O.3       1 <0>        -0.4789
     22 Cl1         1.6204   -3.6664   -3.3363 Cl        1 <0>        -0.0403
     23 H1          0.0216   -2.3322   -1.3935 H         1 <0>         0.1533
     24 H2          3.6169   -1.6548   -3.5919 H         1 <0>         0.1591
     25 H3          3.0226    2.1040   -0.7970 H         1 <0>         0.4403
     26 H4         -3.8290   -2.5129   -1.0211 H         1 <0>         0.1413
     27 H5         -4.1119    0.2988   -2.3811 H         1 <0>         0.1030
     28 H6         -5.1965   -1.1632   -2.6772 H         1 <0>         0.1123
     29 H7         -5.8375   -1.1854   -0.2224 H         1 <0>         0.1122
     30 H8         -4.7531    0.2764    0.0746 H         1 <0>         0.1032
     31 H9          4.8696    0.5562   -1.9998 H         1 <0>         0.3988
@<TRIPOS>BOND
     1    1    6 ar
     2    1    2 ar
     3    1   23 1
     4    2    3 ar
     5    2   22 1
     6    3    4 ar
     7    3   24 1
     8    4    5 ar
     9    4   21 1
    10    5   11 1
    11    5    6 ar
    12    6    7 1
    13    7    8 1
    14    7   12 1
    15    7   17 1
    16    8    9 1
    17    9   10 2
    18    9   11 am
    19   11   25 1
    20   12   13 3
    21   13   14 1
    22   14   16 1
    23   14   15 1
    24   14   26 1
    25   15   16 1
    26   15   27 1
    27   15   28 1
    28   16   29 1
    29   16   30 1
    30   17   18 1
    31   17   19 1
    32   17   20 1
    33   21   31 1
@<TRIPOS>MOLECULE
ZINC00586605
   49    51     0     0     0
SMALL
USER_CHARGES
1-(benzyloxymethyl)-5-isopropyl-6-phenylsulfanyl-2-thioxo-pyrimidin-4-one
@<TRIPOS>ATOM
      1 C1         -4.3415   -0.0586   -4.0628 C.3       1 <0>        -0.1498
      2 C2         -2.8198   -0.1226   -3.9175 C.3       1 <0>        -0.0399
      3 C3         -2.1652    0.1891   -5.2648 C.3       1 <0>        -0.1499
      4 C4         -2.3699    0.8886   -2.8946 C.2       1 <0>        -0.1408
      5 C5         -2.6292    2.2550   -3.0826 C.2       1 <0>         0.5405
      6 O1         -3.2225    2.6353   -4.0776 O.2       1 <0>        -0.4745
      7 N1         -2.2191    3.1441   -2.1568 N.am      1 <0>        -0.6119
      8 H1         -2.4029    4.1181   -2.2895 H         1 <0>         0.4523
      9 C6         -1.5646    2.7333   -1.0555 C.2       1 <0>         0.5190
     10 S1         -1.0568    3.8870    0.1029 S.2       1 <0>        -0.5047
     11 N2         -1.3035    1.4291   -0.8505 N.pl3     1 <0>        -0.4847
     12 C7         -1.6986    0.4881   -1.7716 C.2       1 <0>         0.0935
     13 S2         -1.3500   -1.2184   -1.5050 S.3       1 <0>         0.0775
     14 C8          0.3984   -1.2112   -1.7233 C.ar      1 <0>        -0.1340
     15 C9          1.0407   -0.0596   -2.1605 C.ar      1 <0>        -0.1187
     16 C10         2.4118   -0.0558   -2.3250 C.ar      1 <0>        -0.0962
     17 C11         3.1441   -1.1999   -2.0656 C.ar      1 <0>        -0.1044
     18 C12         2.5071   -2.3499   -1.6362 C.ar      1 <0>        -0.0981
     19 C13         1.1370   -2.3590   -1.4641 C.ar      1 <0>        -0.0851
     20 C14        -0.5890    1.0105    0.3580 C.3       1 <0>         0.2586
     21 O2         -1.4678    1.0886    1.4821 O.3       1 <0>        -0.3378
     22 C15        -2.3858   -0.0022    1.5791 C.3       1 <0>         0.0911
     23 C16        -3.2586    0.1822    2.7937 C.ar      1 <0>        -0.0932
     24 C17        -2.8699   -0.3457    4.0107 C.ar      1 <0>        -0.0954
     25 C18        -3.6682   -0.1723    5.1259 C.ar      1 <0>        -0.1218
     26 C19        -4.8600    0.5203    5.0219 C.ar      1 <0>        -0.1096
     27 C20        -5.2515    1.0432    3.8036 C.ar      1 <0>        -0.1212
     28 C21        -4.4507    0.8744    2.6896 C.ar      1 <0>        -0.0951
     29 H2         -4.6339    0.9404   -4.3864 H         1 <0>         0.0724
     30 H3         -4.6669   -0.7899   -4.8027 H         1 <0>         0.0696
     31 H4         -4.8079   -0.2806   -3.1030 H         1 <0>         0.0527
     32 H5         -2.5274   -1.1215   -3.5939 H         1 <0>         0.1039
     33 H6         -1.0811    0.1435   -5.1613 H         1 <0>         0.0521
     34 H7         -2.4906   -0.5423   -6.0047 H         1 <0>         0.0690
     35 H8         -2.4576    1.1880   -5.5884 H         1 <0>         0.0721
     36 H9          0.4689    0.8330   -2.3675 H         1 <0>         0.1147
     37 H10         2.9123    0.8404   -2.6609 H         1 <0>         0.1313
     38 H11         4.2159   -1.1955   -2.1990 H         1 <0>         0.1324
     39 H12         3.0820   -3.2418   -1.4349 H         1 <0>         0.1356
     40 H13         0.6402   -3.2574   -1.1288 H         1 <0>         0.1339
     41 H14        -0.2427   -0.0161    0.2381 H         1 <0>         0.1047
     42 H15         0.2668    1.6660    0.5196 H         1 <0>         0.1491
     43 H16        -3.0089   -0.0332    0.6852 H         1 <0>         0.0538
     44 H17        -1.8317   -0.9366    1.6683 H         1 <0>         0.0708
     45 H18        -1.9408   -0.8903    4.0911 H         1 <0>         0.1243
     46 H19        -3.3625   -0.5812    6.0776 H         1 <0>         0.1257
     47 H20        -5.4855    0.6525    5.8923 H         1 <0>         0.1245
     48 H21        -6.1828    1.5840    3.7223 H         1 <0>         0.1243
     49 H22        -4.7565    1.2830    1.7378 H         1 <0>         0.1169
@<TRIPOS>BOND
     1    1    2 1
     2    1   29 1
     3    1   30 1
     4    1   31 1
     5    2    3 1
     6    2    4 1
     7    2   32 1
     8    3   33 1
     9    3   34 1
    10    3   35 1
    11    4   12 2
    12    4    5 1
    13    5    6 2
    14    5    7 am
    15    7    8 1
    16    7    9 1
    17    9   10 2
    18    9   11 1
    19   11   12 1
    20   11   20 1
    21   12   13 1
    22   13   14 1
    23   14   19 ar
    24   14   15 ar
    25   15   16 ar
    26   15   36 1
    27   16   17 ar
    28   16   37 1
    29   17   18 ar
    30   17   38 1
    31   18   19 ar
    32   18   39 1
    33   19   40 1
    34   20   21 1
    35   20   41 1
    36   20   42 1
    37   21   22 1
    38   22   23 1
    39   22   43 1
    40   22   44 1
    41   23   28 ar
    42   23   24 ar
    43   24   25 ar
    44   24   45 1
    45   25   26 ar
    46   25   46 1
    47   26   27 ar
    48   26   47 1
    49   27   28 ar
    50   27   48 1
    51   28   49 1
@<TRIPOS>MOLECULE
ZINC00586596
   46    48     0     0     0
SMALL
USER_CHARGES
1-(benzyloxymethyl)-5-ethyl-6-phenylsulfanyl-2-thioxo-pyrimidin-4-one
@<TRIPOS>ATOM
      1 C1         -0.4171   -3.0348    1.7205 C.3       1 <0>        -0.1455
      2 C2         -0.8605   -2.7460    0.2849 C.3       1 <0>        -0.0680
      3 C3         -1.9438   -1.6984    0.2948 C.2       1 <0>        -0.1517
      4 C4         -3.2851   -2.0632    0.4883 C.2       1 <0>         0.5387
      5 O1         -3.5848   -3.2338    0.6511 O.2       1 <0>        -0.4769
      6 N1         -4.2397   -1.1122    0.4936 N.am      1 <0>        -0.6081
      7 H1         -5.1958   -1.3707    0.6314 H         1 <0>         0.4536
      8 C5         -3.9180    0.1819    0.3152 C.2       1 <0>         0.5208
      9 S1         -5.1535    1.3670    0.3265 S.2       1 <0>        -0.5363
     10 N2         -2.6392    0.5596    0.1333 N.pl3     1 <0>        -0.4791
     11 C6         -1.6338   -0.3779    0.1149 C.2       1 <0>         0.1095
     12 S2          0.0393    0.1172   -0.1309 S.3       1 <0>         0.0978
     13 C7          0.3572    0.8996    1.4155 C.ar      1 <0>        -0.1268
     14 C8         -0.5888    0.8439    2.4315 C.ar      1 <0>        -0.1260
     15 C9         -0.3342    1.4536    3.6440 C.ar      1 <0>        -0.0959
     16 C10         0.8564    2.1283    3.8440 C.ar      1 <0>        -0.1088
     17 C11         1.7978    2.1907    2.8329 C.ar      1 <0>        -0.0965
     18 C12         1.5519    1.5786    1.6197 C.ar      1 <0>        -0.0861
     19 C13        -2.3174    1.9767   -0.0523 C.3       1 <0>         0.2395
     20 O2         -2.0036    2.2180   -1.4254 O.3       1 <0>        -0.3511
     21 C14        -3.1488    2.3217   -2.2738 C.3       1 <0>         0.0961
     22 C15        -2.7018    2.5295   -3.6979 C.ar      1 <0>        -0.0928
     23 C16        -2.5190    3.8102   -4.1851 C.ar      1 <0>        -0.0951
     24 C17        -2.1043    4.0006   -5.4899 C.ar      1 <0>        -0.1216
     25 C18        -1.8820    2.9106   -6.3106 C.ar      1 <0>        -0.1107
     26 C19        -2.0702    1.6301   -5.8251 C.ar      1 <0>        -0.1219
     27 C20        -2.4799    1.4395   -4.5187 C.ar      1 <0>        -0.0980
     28 H2         -1.2678   -3.3973    2.2975 H         1 <0>         0.0583
     29 H3          0.3664   -3.7926    1.7132 H         1 <0>         0.0717
     30 H4         -0.0340   -2.1204    2.1733 H         1 <0>         0.0556
     31 H5         -1.2437   -3.6605   -0.1680 H         1 <0>         0.0941
     32 H6         -0.0098   -2.3836   -0.2922 H         1 <0>         0.0953
     33 H7         -1.5205    0.3207    2.2745 H         1 <0>         0.1128
     34 H8         -1.0674    1.4072    4.4357 H         1 <0>         0.1298
     35 H9          1.0512    2.6079    4.7919 H         1 <0>         0.1312
     36 H10         2.7265    2.7184    2.9924 H         1 <0>         0.1347
     37 H11         2.2874    1.6280    0.8303 H         1 <0>         0.1338
     38 H12        -3.1746    2.5848    0.2368 H         1 <0>         0.1390
     39 H13        -1.4602    2.2389    0.5678 H         1 <0>         0.1348
     40 H14        -3.7347    1.4050   -2.2070 H         1 <0>         0.0585
     41 H15        -3.7598    3.1673   -1.9577 H         1 <0>         0.0765
     42 H16        -2.6967    4.6618   -3.5452 H         1 <0>         0.1250
     43 H17        -1.9576    5.0011   -5.8694 H         1 <0>         0.1255
     44 H18        -1.5616    3.0595   -7.3312 H         1 <0>         0.1242
     45 H19        -1.8969    0.7786   -6.4663 H         1 <0>         0.1239
     46 H20        -2.6270    0.4391   -4.1393 H         1 <0>         0.1164
@<TRIPOS>BOND
     1    1    2 1
     2    1   28 1
     3    1   29 1
     4    1   30 1
     5    2    3 1
     6    2   31 1
     7    2   32 1
     8    3   11 2
     9    3    4 1
    10    4    5 2
    11    4    6 am
    12    6    7 1
    13    6    8 1
    14    8    9 2
    15    8   10 1
    16   10   11 1
    17   10   19 1
    18   11   12 1
    19   12   13 1
    20   13   18 ar
    21   13   14 ar
    22   14   15 ar
    23   14   33 1
    24   15   16 ar
    25   15   34 1
    26   16   17 ar
    27   16   35 1
    28   17   18 ar
    29   17   36 1
    30   18   37 1
    31   19   20 1
    32   19   38 1
    33   19   39 1
    34   20   21 1
    35   21   22 1
    36   21   40 1
    37   21   41 1
    38   22   27 ar
    39   22   23 ar
    40   23   24 ar
    41   23   42 1
    42   24   25 ar
    43   24   43 1
    44   25   26 ar
    45   25   44 1
    46   26   27 ar
    47   26   45 1
    48   27   46 1
@<TRIPOS>MOLECULE
ZINC02015928
   39    42     0     0     0
SMALL
USER_CHARGES

@<TRIPOS>ATOM
      1 C1         -0.2017    1.5139    0.3355 C.2       1 <0>         0.2295
      2 N1          0.9917    2.0299    0.2922 N.2       1 <0>        -0.4541
      3 C2          1.8979    1.0513    0.0489 C.ar      1 <0>        -0.1596
      4 C3          3.2954    1.0161   -0.1005 C.ar      1 <0>         0.5442
      5 N2          3.8794   -0.1524   -0.3403 N.ar      1 <0>        -0.6276
      6 C4          3.1671   -1.2679   -0.4384 C.ar      1 <0>         0.6256
      7 N3          1.8510   -1.2794   -0.3046 N.ar      1 <0>        -0.5991
      8 C5          1.1858   -0.1539   -0.0631 C.ar      1 <0>         0.3568
      9 N4         -0.1349    0.1679    0.1220 N.pl3     1 <0>        -0.4688
     10 C6         -1.2660   -0.7628    0.0952 C.3       1 <0>         0.1603
     11 H1         -2.0198   -0.4227   -0.6149 H         1 <0>         0.1043
     12 C7         -1.8808   -0.9041    1.5070 C.3       1 <0>        -0.1300
     13 C8         -1.1389   -2.1517    2.0402 C.3       1 <0>        -0.0733
     14 H2         -1.8068   -2.7580    2.6520 H         1 <0>         0.0907
     15 C9         -0.7254   -2.9114    0.8011 C.2       1 <0>        -0.1037
     16 C10        -0.7952   -2.1533   -0.2625 C.2       1 <0>        -0.1622
     17 C11         0.0916   -1.7353    2.8484 C.3       1 <0>         0.0906
     18 O1          0.7011   -2.8947    3.4195 O.3       1 <0>        -0.5686
     19 N5          3.8242   -2.4611   -0.6900 N.pl3     1 <0>        -0.8183
     20 N6          4.0462    2.1739   -0.0003 N.pl3     1 <0>        -0.6656
     21 C12         5.5016    2.1192   -0.1585 C.3       1 <0>         0.0878
     22 C13         6.1607    3.2045   -1.0121 C.3       1 <0>        -0.1944
     23 C14         6.3268    3.2214    0.5087 C.3       1 <0>        -0.1910
     24 H3         -1.1104    2.0682    0.5181 H         1 <0>         0.2168
     25 H4         -1.6628   -0.0283    2.1182 H         1 <0>         0.0845
     26 H5         -2.9547   -1.0820    1.4501 H         1 <0>         0.0994
     27 H6         -0.4134   -3.9453    0.7942 H         1 <0>         0.1317
     28 H7         -0.5499   -2.4766   -1.2633 H         1 <0>         0.1333
     29 H8          0.8047   -1.2354    2.1929 H         1 <0>         0.0468
     30 H9         -0.2099   -1.0540    3.6441 H         1 <0>         0.0421
     31 H10         1.4893   -2.7054    3.9469 H         1 <0>         0.3791
     32 H11         4.7889   -2.4715   -0.7913 H         1 <0>         0.4142
     33 H12         3.3198   -3.2862   -0.7649 H         1 <0>         0.4144
     34 H13         3.6090    3.0219    0.1748 H         1 <0>         0.4190
     35 H14         5.9333    1.1190   -0.1943 H         1 <0>         0.1433
     36 H15         7.0262    2.9184   -1.6098 H         1 <0>         0.1034
     37 H16         5.5115    3.9592   -1.4559 H         1 <0>         0.0965
     38 H17         5.7868    3.9872    1.0655 H         1 <0>         0.0971
     39 H18         7.3015    2.9463    0.9117 H         1 <0>         0.1048
@<TRIPOS>BOND
     1    1    9 1
     2    1    2 2
     3    1   24 1
     4    2    3 1
     5    3    8 ar
     6    3    4 ar
     7    4    5 ar
     8    4   20 1
     9    5    6 ar
    10    6    7 ar
    11    6   19 1
    12    7    8 ar
    13    8    9 1
    14    9   10 1
    15   10   11 1
    16   10   16 1
    17   10   12 1
    18   12   13 1
    19   12   25 1
    20   12   26 1
    21   13   14 1
    22   13   15 1
    23   13   17 1
    24   15   16 2
    25   15   27 1
    26   16   28 1
    27   17   18 1
    28   17   29 1
    29   17   30 1
    30   18   31 1
    31   19   32 1
    32   19   33 1
    33   20   21 1
    34   20   34 1
    35   21   23 1
    36   21   22 1
    37   21   35 1
    38   22   23 1
    39   22   36 1
    40   22   37 1
    41   23   38 1
    42   23   39 1
@<TRIPOS>MOLECULE
ZINC00012346
   26    27     0     0     0
SMALL
USER_CHARGES

@<TRIPOS>ATOM
      1 C1         -0.0170    1.4058    0.0098 C.2       1 <0>        -0.3117
      2 C2          1.1585    2.0778    0.0022 C.2       1 <0>         0.2100
      3 N1          2.3268    1.3767   -0.0128 N.am      1 <0>        -0.5321
      4 C3          2.3121    0.0311   -0.0199 C.2       1 <0>         0.6626
      5 O1          3.3676   -0.5804   -0.0328 O.2       1 <0>        -0.5390
      6 N2          1.1640   -0.6440   -0.0125 N.2       1 <0>        -0.6123
      7 C4          0.0021   -0.0041    0.0020 C.2       1 <0>         0.5069
      8 N3         -1.1774   -0.7119    0.0095 N.pl3     1 <0>        -0.8126
      9 C5          3.6056    2.0915   -0.0216 C.3       1 <0>         0.3029
     10 H1          4.1614    1.8359   -0.9238 H         1 <0>         0.1124
     11 C6          4.4374    1.6928    1.2367 C.3       1 <0>        -0.0817
     12 S1          5.5741    3.1480    1.2841 S.3       1 <0>        -0.2865
     13 C7          4.5621    4.2850    0.2459 C.3       1 <0>         0.1506
     14 H2          5.0706    4.5098   -0.6917 H         1 <0>         0.1260
     15 O2          3.3674    3.5045    0.0129 O.3       1 <0>        -0.3750
     16 C8          4.2354    5.5713    1.0071 C.3       1 <0>         0.0873
     17 O3          3.5294    5.2485    2.2069 O.3       1 <0>        -0.5549
     18 H3         -0.9547    1.9414    0.0261 H         1 <0>         0.1574
     19 H4          1.1700    3.1577    0.0075 H         1 <0>         0.1815
     20 H5         -2.0255   -0.2412    0.0201 H         1 <0>         0.4163
     21 H6         -1.1611   -1.6818    0.0041 H         1 <0>         0.4142
     22 H7          3.8142    1.6414    2.1296 H         1 <0>         0.1061
     23 H8          4.9831    0.7626    1.0785 H         1 <0>         0.1406
     24 H9          5.1606    6.0899    1.2583 H         1 <0>         0.0760
     25 H10         3.6158    6.2154    0.3831 H         1 <0>         0.0705
     26 H11         3.2893    6.0180    2.7411 H         1 <0>         0.3846
@<TRIPOS>BOND
     1    1    7 1
     2    1    2 2
     3    1   18 1
     4    2    3 1
     5    2   19 1
     6    3    4 am
     7    3    9 1
     8    4    5 2
     9    4    6 1
    10    6    7 2
    11    7    8 1
    12    8   20 1
    13    8   21 1
    14    9   10 1
    15    9   15 1
    16    9   11 1
    17   11   12 1
    18   11   22 1
    19   11   23 1
    20   12   13 1
    21   13   14 1
    22   13   15 1
    23   13   16 1
    24   16   17 1
    25   16   24 1
    26   16   25 1
    27   17   26 1
@<TRIPOS>MOLECULE
ZINC00080959
   27    28     0     0     0
SMALL
USER_CHARGES

@<TRIPOS>ATOM
      1 C1         -0.0167    1.3781    0.0096 C.ar      1 <0>        -0.1061
      2 C2          1.1709    2.0855    0.0021 C.ar      1 <0>        -0.1217
      3 C3          2.3773    1.4107   -0.0130 C.ar      1 <0>        -0.0972
      4 C4          2.3960    0.0285   -0.0201 C.ar      1 <0>        -0.1204
      5 C5          1.2084   -0.6789   -0.0117 C.ar      1 <0>        -0.0972
      6 C6          0.0021   -0.0041    0.0020 C.ar      1 <0>        -0.1216
      7 C7          3.7112   -0.7071   -0.0376 C.3       1 <0>         0.1684
      8 N1          4.1518   -0.9524    1.3379 N.pl3     1 <0>        -0.6744
      9 C8          5.3108   -1.6005    1.5688 C.2       1 <0>         0.5260
     10 S1          6.2680   -2.1370    0.2547 S.2       1 <0>        -0.5100
     11 N2          5.7161   -1.8261    2.8342 N.pl3     1 <0>        -0.5835
     12 C9          6.9109   -2.4942    3.0722 C.2       1 <0>         0.2547
     13 N3          7.7705   -2.9691    2.1968 N.2       1 <0>        -0.4552
     14 C10         8.8714   -3.5852    2.5868 C.2       1 <0>         0.0516
     15 C11         9.0711   -3.7035    3.9222 C.2       1 <0>        -0.2302
     16 S2          7.6135   -2.8860    4.5505 S.3       1 <0>         0.0982
     17 H1         -0.9591    1.9053    0.0259 H         1 <0>         0.1257
     18 H2          1.1563    3.1654    0.0076 H         1 <0>         0.1265
     19 H3          3.3051    1.9634   -0.0196 H         1 <0>         0.1257
     20 H4          1.2231   -1.7588   -0.0176 H         1 <0>         0.1257
     21 H5         -0.9258   -0.5567    0.0082 H         1 <0>         0.1265
     22 H6          3.5884   -1.6586   -0.5549 H         1 <0>         0.0984
     23 H7          4.4573   -0.1052   -0.5563 H         1 <0>         0.0984
     24 H8          3.6095   -0.6484    2.0824 H         1 <0>         0.3976
     25 H9          5.1738   -1.5221    3.5787 H         1 <0>         0.4164
     26 H10         9.5809   -3.9776    1.8734 H         1 <0>         0.1777
     27 H11         9.8887   -4.1623    4.4584 H         1 <0>         0.1998
@<TRIPOS>BOND
     1    1    6 ar
     2    1    2 ar
     3    1   17 1
     4    2    3 ar
     5    2   18 1
     6    3    4 ar
     7    3   19 1
     8    4    5 ar
     9    4    7 1
    10    5    6 ar
    11    5   20 1
    12    6   21 1
    13    7    8 1
    14    7   22 1
    15    7   23 1
    16    8    9 1
    17    8   24 1
    18    9   10 2
    19    9   11 1
    20   11   12 1
    21   11   25 1
    22   12   16 1
    23   12   13 2
    24   13   14 1
    25   14   15 2
    26   14   26 1
    27   15   16 1
    28   15   27 1
@<TRIPOS>MOLECULE
ZINC13744911
   36    38     0     0     0
SMALL
USER_CHARGES
3-(1,3-benzothiazol-2-yl)-1-phenethyl-thiourea
@<TRIPOS>ATOM
      1 C1          8.4280    2.9547   -0.0625 C.ar      1 <0>        -0.1161
      2 C2          7.8456    2.5945    1.1383 C.ar      1 <0>        -0.1172
      3 C3          6.6578    1.8875    1.1458 C.ar      1 <0>        -0.1109
      4 C4          6.0526    1.5402   -0.0475 C.ar      1 <0>        -0.0885
      5 C5          6.6379    1.8954   -1.2484 C.ar      1 <0>        -0.1109
      6 C6          7.8230    2.6070   -1.2559 C.ar      1 <0>        -0.1172
      7 C7          4.7579    0.7690   -0.0392 C.3       1 <0>        -0.0923
      8 C8          3.5816    1.7473   -0.0228 C.3       1 <0>         0.1214
      9 N1          2.3230    0.9976   -0.0148 N.pl3     1 <0>        -0.6634
     10 C9          1.1468    1.6555   -0.0000 C.2       1 <0>         0.5309
     11 S1          1.1236    3.3673    0.0094 S.2       1 <0>        -0.4960
     12 N2         -0.0111    0.9658    0.0074 N.pl3     1 <0>        -0.5679
     13 C10        -1.2192    1.6416    0.0168 C.2       1 <0>         0.3156
     14 N3         -2.4371    1.1512    0.0199 N.2       1 <0>        -0.5324
     15 C11        -3.5358    1.9367    0.0301 C.ar      1 <0>         0.0904
     16 C12        -4.8931    1.5396    0.0349 C.ar      1 <0>        -0.0679
     17 C13        -5.8958    2.4735    0.0463 C.ar      1 <0>        -0.1169
     18 C14        -5.6201    3.8333    0.0532 C.ar      1 <0>        -0.1029
     19 C15        -4.3040    4.2574    0.0483 C.ar      1 <0>        -0.0639
     20 C16        -3.2931    3.3292    0.0372 C.ar      1 <0>        -0.2246
     21 S2         -1.5179    3.4037    0.0357 S.3       1 <0>         0.2069
     22 H1          9.3558    3.5074   -0.0684 H         1 <0>         0.1237
     23 H2          8.3185    2.8658    2.0706 H         1 <0>         0.1244
     24 H3          6.2028    1.6061    2.0840 H         1 <0>         0.1228
     25 H4          6.1673    1.6203   -2.1807 H         1 <0>         0.1228
     26 H5          8.2781    2.8881   -2.1941 H         1 <0>         0.1244
     27 H6          4.7171    0.1368    0.8478 H         1 <0>         0.0831
     28 H7          4.7001    0.1464   -0.9321 H         1 <0>         0.0831
     29 H8          3.6224    2.3795   -0.9098 H         1 <0>         0.0976
     30 H9          3.6393    2.3699    0.8701 H         1 <0>         0.0976
     31 H10         2.3361    0.0277   -0.0201 H         1 <0>         0.4068
     32 H11         0.0021   -0.0041    0.0020 H         1 <0>         0.4210
     33 H12        -5.1421    0.4887    0.0298 H         1 <0>         0.1259
     34 H13        -6.9242    2.1436    0.0498 H         1 <0>         0.1292
     35 H14        -6.4252    4.5531    0.0625 H         1 <0>         0.1327
     36 H15        -4.0730    5.3124    0.0538 H         1 <0>         0.1287
@<TRIPOS>BOND
     1    1    6 ar
     2    1    2 ar
     3    1   22 1
     4    2    3 ar
     5    2   23 1
     6    3    4 ar
     7    3   24 1
     8    4    5 ar
     9    4    7 1
    10    5    6 ar
    11    5   25 1
    12    6   26 1
    13    7    8 1
    14    7   27 1
    15    7   28 1
    16    8    9 1
    17    8   29 1
    18    8   30 1
    19    9   10 1
    20    9   31 1
    21   10   11 2
    22   10   12 1
    23   12   13 1
    24   12   32 1
    25   13   21 1
    26   13   14 2
    27   14   15 1
    28   15   20 ar
    29   15   16 ar
    30   16   17 ar
    31   16   33 1
    32   17   18 ar
    33   17   34 1
    34   18   19 ar
    35   18   35 1
    36   19   20 ar
    37   19   36 1
    38   20   21 1
@<TRIPOS>MOLECULE
ZINC13438132
   34    35     0     0     0
SMALL
USER_CHARGES

@<TRIPOS>ATOM
      1 C1         -0.0167    1.3781    0.0096 C.ar      1 <0>        -0.1184
      2 C2          1.1709    2.0855    0.0021 C.ar      1 <0>        -0.1182
      3 C3          2.3773    1.4107   -0.0130 C.ar      1 <0>        -0.1127
      4 C4          2.3960    0.0285   -0.0201 C.ar      1 <0>        -0.0887
      5 C5          1.2084   -0.6789   -0.0117 C.ar      1 <0>        -0.1124
      6 C6          0.0021   -0.0041    0.0020 C.ar      1 <0>        -0.1179
      7 C7          3.7112   -0.7071   -0.0376 C.3       1 <0>        -0.0780
      8 C8          4.1714   -0.9633    1.3989 C.3       1 <0>         0.0717
      9 O1          5.4184   -1.6609    1.3824 O.3       1 <0>        -0.3462
     10 C9          5.9649   -1.9655    2.5758 C.2       1 <0>         0.5129
     11 O2          5.3980   -1.6475    3.6025 O.2       1 <0>        -0.4954
     12 C10         7.2509   -2.6848    2.6359 C.ar      1 <0>        -0.1029
     13 C11         7.9068   -3.0461    1.4559 C.ar      1 <0>        -0.0802
     14 C12         9.1119   -3.7202    1.5152 C.ar      1 <0>         0.0855
     15 C13         9.6724   -4.0398    2.7491 C.ar      1 <0>         0.0941
     16 C14         9.0209   -3.6815    3.9265 C.ar      1 <0>         0.0877
     17 C15         7.8188   -3.0014    3.8731 C.ar      1 <0>        -0.0739
     18 O3          9.5709   -3.9956    5.1300 O.3       1 <0>        -0.4780
     19 O4         10.8571   -4.7030    2.8045 O.3       1 <0>        -0.4728
     20 O5          9.7507   -4.0721    0.3672 O.3       1 <0>        -0.4788
     21 H1         -0.9591    1.9053    0.0259 H         1 <0>         0.1233
     22 H2          1.1563    3.1654    0.0076 H         1 <0>         0.1241
     23 H3          3.3051    1.9634   -0.0196 H         1 <0>         0.1233
     24 H4          1.2231   -1.7588   -0.0176 H         1 <0>         0.1237
     25 H5         -0.9258   -0.5567    0.0082 H         1 <0>         0.1243
     26 H6          3.5884   -1.6586   -0.5549 H         1 <0>         0.0864
     27 H7          4.4573   -0.1052   -0.5563 H         1 <0>         0.0860
     28 H8          4.2941   -0.0118    1.9163 H         1 <0>         0.0729
     29 H9          3.4252   -1.5652    1.9176 H         1 <0>         0.0730
     30 H10         7.4722   -2.7991    0.4985 H         1 <0>         0.1544
     31 H11         7.3163   -2.7195    4.7866 H         1 <0>         0.1536
     32 H12        10.1613   -3.3155    5.4821 H         1 <0>         0.3931
     33 H13        11.6314   -4.1241    2.8243 H         1 <0>         0.3919
     34 H14        10.3666   -3.4028    0.0388 H         1 <0>         0.3927
@<TRIPOS>BOND
     1    1    6 ar
     2    1    2 ar
     3    1   21 1
     4    2    3 ar
     5    2   22 1
     6    3    4 ar
     7    3   23 1
     8    4    5 ar
     9    4    7 1
    10    5    6 ar
    11    5   24 1
    12    6   25 1
    13    7    8 1
    14    7   26 1
    15    7   27 1
    16    8    9 1
    17    8   28 1
    18    8   29 1
    19    9   10 1
    20   10   11 2
    21   10   12 1
    22   12   17 ar
    23   12   13 ar
    24   13   14 ar
    25   13   30 1
    26   14   15 ar
    27   14   20 1
    28   15   16 ar
    29   15   19 1
    30   16   17 ar
    31   16   18 1
    32   17   31 1
    33   18   32 1
    34   19   33 1
    35   20   34 1
@<TRIPOS>MOLECULE
ZINC03993703
   60    64     0     0     0
SMALL
USER_CHARGES

@<TRIPOS>ATOM
      1 C1          0.0021   -0.0041    0.0020 C.ar      1 <0>        -0.1412
      2 C2         -0.0167    1.3835    0.0096 C.ar      1 <0>        -0.0719
      3 C3          1.1597    2.0985    0.0023 C.ar      1 <0>        -0.1350
      4 C4          2.3904    1.4307   -0.0206 C.ar      1 <0>        -0.1191
      5 C5          2.4094    0.0296   -0.0669 C.ar      1 <0>        -0.1333
      6 C6          1.1977   -0.6796   -0.0378 C.ar      1 <0>        -0.0768
      7 C7          3.6622   -0.7499   -0.1627 C.2       1 <0>         0.5459
      8 O1          4.7542   -0.2306   -0.2941 O.2       1 <0>        -0.4123
      9 N1          3.4878   -2.1091   -0.0914 N.am      1 <0>        -0.5560
     10 N2          4.4857   -2.9367   -0.6601 N.am      1 <0>        -0.5329
     11 C8          5.8048   -2.7490   -0.3478 C.2       1 <0>         0.5682
     12 O2          6.2752   -1.6713   -0.0368 O.2       1 <0>        -0.3810
     13 C9          6.5978   -3.9937   -0.4290 C.ar      1 <0>        -0.1542
     14 C10         5.9222   -5.1498    0.0300 C.ar      1 <0>        -0.0728
     15 C11         6.5061   -6.3864   -0.0540 C.ar      1 <0>        -0.1251
     16 C12         7.7730   -6.5176   -0.6052 C.ar      1 <0>        -0.0730
     17 C13         8.4587   -5.4113   -1.0338 C.ar      1 <0>        -0.1027
     18 C14         7.8995   -4.1184   -0.9180 C.ar      1 <0>         0.0013
     19 S1          8.9565   -2.7941   -1.3628 S.3       1 <0>        -0.1918
     20 S2          8.0408   -1.1674   -0.5063 S.3       1 <0>         0.2459
     21 C15         9.4704   -0.3780    0.1641 C.ar      1 <0>        -0.1193
     22 C16        10.7096   -1.0166    0.0437 C.ar      1 <0>        -0.1352
     23 C17        11.8411   -0.4426    0.5802 C.ar      1 <0>        -0.0717
     24 C18        11.7661    0.7719    1.2467 C.ar      1 <0>        -0.1419
     25 C19        10.5619    1.4216    1.3698 C.ar      1 <0>        -0.0747
     26 C20         9.4035    0.8689    0.8022 C.ar      1 <0>        -0.1345
     27 C21         8.1557    1.6582    0.8626 C.2       1 <0>         0.5464
     28 O3          7.1443    1.3234    0.2758 O.2       1 <0>        -0.4153
     29 N3          8.2188    2.7945    1.6263 N.am      1 <0>        -0.5545
     30 N4          7.3197    3.8420    1.3153 N.am      1 <0>        -0.5338
     31 C22         5.9704    3.6081    1.2804 C.2       1 <0>         0.5708
     32 O4          5.4827    2.5381    0.9699 O.2       1 <0>        -0.3821
     33 C23         5.1689    4.7901    1.6585 C.ar      1 <0>        -0.1563
     34 C24         5.7397    5.5795    2.6835 C.ar      1 <0>        -0.0713
     35 C25         5.1381    6.7396    3.0955 C.ar      1 <0>        -0.1260
     36 C26         3.9579    7.1579    2.4980 C.ar      1 <0>        -0.0720
     37 C27         3.3756    6.4041    1.5125 C.ar      1 <0>        -0.1031
     38 C28         3.9527    5.1815    1.0966 C.ar      1 <0>         0.0022
     39 S3          3.0212    4.2636   -0.0673 S.3       1 <0>        -0.1905
     40 S4          3.8692    2.3953    0.0264 S.3       1 <0>         0.2453
     41 H1         -0.9265   -0.5549    0.0271 H         1 <0>         0.1278
     42 H2         -0.9616    1.9065    0.0170 H         1 <0>         0.1279
     43 H3          1.1334    3.1781    0.0141 H         1 <0>         0.1439
     44 H4          1.2058   -1.7595   -0.0471 H         1 <0>         0.1231
     45 H5          2.7052   -2.4911    0.3357 H         1 <0>         0.4249
     46 H6          4.2325   -3.6420   -1.2760 H         1 <0>         0.4249
     47 H7          4.9327   -5.0558    0.4524 H         1 <0>         0.1332
     48 H8          5.9812   -7.2579    0.3085 H         1 <0>         0.1355
     49 H9          8.2204   -7.4963   -0.6970 H         1 <0>         0.1367
     50 H10         9.4410   -5.5292   -1.4669 H         1 <0>         0.1395
     51 H11        10.7792   -1.9632   -0.4715 H         1 <0>         0.1435
     52 H12        12.7936   -0.9419    0.4816 H         1 <0>         0.1278
     53 H13        12.6584    1.2088    1.6702 H         1 <0>         0.1275
     54 H14        10.5065    2.3584    1.9043 H         1 <0>         0.1236
     55 H15         8.8559    2.8774    2.3531 H         1 <0>         0.4253
     56 H16         7.6606    4.7301    1.1256 H         1 <0>         0.4249
     57 H17         6.6619    5.2634    3.1483 H         1 <0>         0.1335
     58 H18         5.5821    7.3277    3.8851 H         1 <0>         0.1355
     59 H19         3.4959    8.0826    2.8108 H         1 <0>         0.1367
     60 H20         2.4637    6.7482    1.0473 H         1 <0>         0.1398
@<TRIPOS>BOND
     1    1    6 ar
     2    1    2 ar
     3    1   41 1
     4    2    3 ar
     5    2   42 1
     6    3    4 ar
     7    3   43 1
     8    4   40 1
     9    4    5 ar
    10    5    6 ar
    11    5    7 1
    12    6   44 1
    13    7    8 2
    14    7    9 am
    15    9   10 1
    16    9   45 1
    17   10   11 am
    18   10   46 1
    19   11   12 2
    20   11   13 1
    21   13   18 ar
    22   13   14 ar
    23   14   15 ar
    24   14   47 1
    25   15   16 ar
    26   15   48 1
    27   16   17 ar
    28   16   49 1
    29   17   18 ar
    30   17   50 1
    31   18   19 1
    32   19   20 1
    33   20   21 1
    34   21   26 ar
    35   21   22 ar
    36   22   23 ar
    37   22   51 1
    38   23   24 ar
    39   23   52 1
    40   24   25 ar
    41   24   53 1
    42   25   26 ar
    43   25   54 1
    44   26   27 1
    45   27   28 2
    46   27   29 am
    47   29   30 1
    48   29   55 1
    49   30   31 am
    50   30   56 1
    51   31   32 2
    52   31   33 1
    53   33   38 ar
    54   33   34 ar
    55   34   35 ar
    56   34   57 1
    57   35   36 ar
    58   35   58 1
    59   36   37 ar
    60   36   59 1
    61   37   38 ar
    62   37   60 1
    63   38   39 1
    64   39   40 1
@<TRIPOS>MOLECULE
ZINC00026181
   30    31     0     0     0
SMALL
USER_CHARGES
2-sulfanyl-N'-(2-sulfanylbenzoyl)-benzohydrazide
@<TRIPOS>ATOM
      1 C1          0.0607    2.1000    8.5491 C.ar      1 <0>        -0.1967
      2 C2          0.0811    1.3939    9.7421 C.ar      1 <0>        -0.0858
      3 C3          0.0984    0.0150    9.7376 C.ar      1 <0>        -0.1601
      4 C4          0.0950   -0.6776    8.5319 C.ar      1 <0>         0.1699
      5 C5          0.0738    0.0349    7.3220 C.ar      1 <0>        -0.1724
      6 C6          0.0618    1.4321    7.3445 C.ar      1 <0>        -0.0652
      7 C7          0.0705   -0.6863    6.0366 C.2       1 <0>         0.5405
      8 O1          0.0861   -1.9022    6.0214 O.2       1 <0>        -0.4777
      9 N1          0.0501    0.0019    4.8779 N.am      1 <0>        -0.5360
     10 N2          0.0469   -0.6836    3.6560 N.am      1 <0>        -0.5359
     11 C8          0.0266    0.0046    2.4973 C.2       1 <0>         0.5405
     12 O2          0.0110    1.2205    2.5125 O.2       1 <0>        -0.4777
     13 C9          0.0232   -0.7166    1.2119 C.ar      1 <0>        -0.1724
     14 C10         0.0416   -2.1137    1.1894 C.ar      1 <0>        -0.0652
     15 C11         0.0388   -2.7817   -0.0152 C.ar      1 <0>        -0.1967
     16 C12         0.0178   -2.0756   -1.2082 C.ar      1 <0>        -0.0858
     17 C13        -0.0057   -0.6967   -1.2036 C.ar      1 <0>        -0.1602
     18 C14         0.0021   -0.0041    0.0020 C.ar      1 <0>         0.1699
     19 H1          0.0476    3.1798    8.5643 H         1 <0>         0.1087
     20 H2          0.0839    1.9273   10.6812 H         1 <0>         0.1061
     21 H3          0.1150   -0.5275   10.6713 H         1 <0>         0.1139
     22 H4          0.0497    1.9876    6.4184 H         1 <0>         0.1114
     23 H5          0.0377    0.9717    4.8899 H         1 <0>         0.4163
     24 H6          0.0594   -1.6534    3.6440 H         1 <0>         0.4163
     25 H7          0.0575   -2.6691    2.1154 H         1 <0>         0.1114
     26 H8          0.0526   -3.8615   -0.0305 H         1 <0>         0.1087
     27 H9          0.0158   -2.6090   -2.1473 H         1 <0>         0.1061
     28 H10        -0.0261   -0.1543   -2.1373 H         1 <0>         0.1139
     29 S1         -0.0218    1.7577    0.0117 S.3       1 <0>        -0.8730
     30 S2          0.1177   -2.4395    8.5222 S.3       1 <0>        -0.8731
@<TRIPOS>BOND
     1    1    6 ar
     2    1    2 ar
     3    1   19 1
     4    2    3 ar
     5    2   20 1
     6    3    4 ar
     7    3   21 1
     8    4    5 ar
     9    4   30 1
    10    5    6 ar
    11    5    7 1
    12    6   22 1
    13    7    8 2
    14    7    9 am
    15    9   10 1
    16    9   23 1
    17   10   11 am
    18   10   24 1
    19   11   12 2
    20   11   13 1
    21   13   18 ar
    22   13   14 ar
    23   14   15 ar
    24   14   25 1
    25   15   16 ar
    26   15   26 1
    27   16   17 ar
    28   16   27 1
    29   17   18 ar
    30   17   28 1
    31   18   29 1
@<TRIPOS>MOLECULE
ZINC05322871
   43    46     0     0     0
SMALL
USER_CHARGES
5-[5-[(E)-2-cyano-2-(5-methyl-1H-benzimidazol-2-yl)vinyl]-2-furyl]-2-hydroxy-benzoic acid
@<TRIPOS>ATOM
      1 C1          5.5650    2.1037   -0.0420 C.3       1 <0>        -0.1094
      2 C2          4.0629    1.9838   -0.0273 C.ar      1 <0>        -0.0957
      3 C3          3.2825    3.1311   -0.0133 C.ar      1 <0>        -0.1012
      4 C4          1.9060    3.0404   -0.0002 C.ar      1 <0>        -0.1063
      5 C5          1.2987    1.7929   -0.0007 C.ar      1 <0>         0.0495
      6 C6          2.0893    0.6300   -0.0145 C.ar      1 <0>         0.0595
      7 C7          3.4833    0.7468   -0.0272 C.ar      1 <0>        -0.0666
      8 N1          1.2449   -0.4298   -0.0121 N.2       1 <0>        -0.4827
      9 C8          0.0021   -0.0041    0.0020 C.2       1 <0>         0.3506
     10 N2         -0.0165    1.3669    0.0096 N.pl3     1 <0>        -0.5981
     11 H1         -0.8292    1.9495    0.0205 H         1 <0>         0.4323
     12 C9         -1.1898   -0.8679    0.0088 C.2       1 <0>        -0.0357
     13 C10        -1.0467   -2.2447   -0.0000 C.2       1 <0>         0.0786
     14 C11        -2.1856   -3.0702    0.0064 C.2       1 <0>        -0.0587
     15 C12        -2.1851   -4.4561   -0.0066 C.2       1 <0>        -0.1152
     16 C13        -3.5206   -4.8601    0.0085 C.2       1 <0>        -0.2230
     17 C14        -4.2883   -3.7158    0.0219 C.2       1 <0>         0.1103
     18 O1         -3.4686   -2.6494    0.0205 O.3       1 <0>        -0.1503
     19 C15        -5.7625   -3.6683    0.0364 C.ar      1 <0>        -0.0840
     20 C16        -6.5016   -4.8577    0.0368 C.ar      1 <0>        -0.0706
     21 C17        -7.8777   -4.8190    0.0512 C.ar      1 <0>        -0.1679
     22 C18        -8.5436   -3.6001    0.0644 C.ar      1 <0>         0.1612
     23 C19        -7.8137   -2.4014    0.0636 C.ar      1 <0>        -0.1446
     24 C20        -6.4200   -2.4398    0.0553 C.ar      1 <0>        -0.0285
     25 C21        -8.5181   -1.1063    0.0776 C.2       1 <0>         0.4869
     26 O2         -9.7327   -1.0754    0.0899 O.co2     1 <0>        -0.6143
     27 O3         -9.8988   -3.5684    0.0785 O.3       1 <0>        -0.4741
     28 C22        -2.4972   -0.2840    0.0244 C.1       1 <0>         0.2149
     29 N3         -3.5344    0.1792    0.0368 N.1       1 <0>        -0.3565
     30 H2          5.9376    2.1271    0.9821 H         1 <0>         0.0692
     31 H3          5.9927    1.2482   -0.5648 H         1 <0>         0.0663
     32 H4          5.8512    3.0225   -0.5538 H         1 <0>         0.0657
     33 H5          3.7560    4.1017   -0.0129 H         1 <0>         0.1294
     34 H6          1.3037    3.9368    0.0100 H         1 <0>         0.1243
     35 H7          4.1003   -0.1396   -0.0375 H         1 <0>         0.1301
     36 H8         -0.0607   -2.6851   -0.0118 H         1 <0>         0.1836
     37 H9         -1.3178   -5.0995   -0.0229 H         1 <0>         0.1640
     38 H10        -3.8839   -5.8772    0.0061 H         1 <0>         0.1593
     39 H11        -5.9901   -5.8089    0.0262 H         1 <0>         0.1288
     40 H12        -8.4416   -5.7401    0.0518 H         1 <0>         0.1327
     41 H13        -5.8523   -1.5211    0.0591 H         1 <0>         0.1433
     42 H14       -10.2829   -3.5639    0.9660 H         1 <0>         0.3900
     43 O4         -7.8149    0.0432    0.0768 O.co2     1 <0>        -0.7469
@<TRIPOS>BOND
     1    1    2 1
     2    1   30 1
     3    1   31 1
     4    1   32 1
     5    2    7 ar
     6    2    3 ar
     7    3    4 ar
     8    3   33 1
     9    4    5 ar
    10    4   34 1
    11    5   10 1
    12    5    6 ar
    13    6    7 ar
    14    6    8 1
    15    7   35 1
    16    8    9 2
    17    9   10 1
    18    9   12 1
    19   10   11 1
    20   12   13 2
    21   12   28 1
    22   13   14 1
    23   13   36 1
    24   14   18 1
    25   14   15 2
    26   15   16 1
    27   15   37 1
    28   16   17 2
    29   16   38 1
    30   17   18 1
    31   17   19 1
    32   19   24 ar
    33   19   20 ar
    34   20   21 ar
    35   20   39 1
    36   21   22 ar
    37   21   40 1
    38   22   23 ar
    39   22   27 1
    40   23   24 ar
    41   23   25 1
    42   24   41 1
    43   25   26 2
    44   25   43 1
    45   27   42 1
    46   28   29 3
@<TRIPOS>MOLECULE
ZINC13533762
   38    39     0     0     0
SMALL
USER_CHARGES

@<TRIPOS>ATOM
      1 C1          1.1174   -0.5677   -0.4689 C.2       1 <0>        -0.3136
      2 C2          2.2881    0.1051   -0.4765 C.2       1 <0>         0.1991
      3 N1          2.3333    1.3916   -0.0127 N.am      1 <0>        -0.5314
      4 C3          1.2224    1.9923    0.4511 C.2       1 <0>         0.7032
      5 O1          1.2852    3.1360    0.8589 O.2       1 <0>        -0.5512
      6 N2          0.0423    1.3452    0.4697 N.am      1 <0>        -0.6606
      7 H1         -0.7491    1.7933    0.8069 H         1 <0>         0.4239
      8 C4         -0.0441    0.0764    0.0215 C.2       1 <0>         0.5558
      9 O2         -1.1113   -0.5098    0.0380 O.2       1 <0>        -0.5337
     10 C5          3.6034    2.1217   -0.0210 C.3       1 <0>         0.2890
     11 H2          3.4200    3.1804   -0.2039 H         1 <0>         0.1252
     12 C6          4.3202    1.9409    1.3344 C.3       1 <0>        -0.1534
     13 C7          5.3332    0.8057    1.0226 C.3       1 <0>        -0.1545
     14 C8          5.6862    1.1234   -0.4522 C.3       1 <0>         0.0707
     15 H3          6.4499    1.8997   -0.4997 H         1 <0>         0.0982
     16 O3          4.4607    1.5938   -1.0398 O.3       1 <0>        -0.3440
     17 C9          6.1696   -0.1402   -1.1666 C.3       1 <0>         0.1325
     18 O4          6.5997    0.1944   -2.4877 O.3       1 <0>        -0.7600
     19 P1          7.1724   -0.8950   -3.5257 P.3       1 <0>         2.2889
     20 O5          8.3535   -1.6520   -2.8784 O.2       1 <0>        -1.1052
     21 O6          6.0546   -1.8980   -3.8885 O.3       1 <0>        -1.1161
     22 O7          7.6790   -0.1502   -4.8601 O.3       1 <0>        -1.0976
     23 P2          8.6017   -0.5894   -6.1043 P.3       1 <0>         2.3455
     24 O8          9.7858   -1.4396   -5.5925 O.2       1 <0>        -1.1160
     25 O9          7.7624   -1.4214   -7.0994 O.3       1 <0>        -1.1399
     26 O10         9.1650    0.7246   -6.8448 O.3       1 <0>        -1.1051
     27 P3         10.3383    0.9887   -7.9152 P.3       1 <0>         2.2210
     28 O11        11.5813    0.1054   -7.5561 O.2       1 <0>        -1.1972
     29 O12         9.8300    0.6166   -9.3496 O.3       1 <0>        -1.2114
     30 O13        10.7452    2.5012   -7.8814 O.3       1 <0>        -1.2131
     31 H4          1.0668   -1.5821   -0.8361 H         1 <0>         0.1752
     32 H5          3.1845   -0.3702   -0.8465 H         1 <0>         0.1890
     33 H6          4.8387    2.8548    1.6239 H         1 <0>         0.0977
     34 H7          3.6165    1.6314    2.1071 H         1 <0>         0.0837
     35 H8          6.2133    0.8782    1.6616 H         1 <0>         0.0979
     36 H9          4.8648   -0.1744    1.1121 H         1 <0>         0.0848
     37 H10         7.0018   -0.5749   -0.6128 H         1 <0>         0.0719
     38 H11         5.3538   -0.8611   -1.2218 H         1 <0>         0.0510
@<TRIPOS>BOND
     1    1    8 1
     2    1    2 2
     3    1   31 1
     4    2    3 1
     5    2   32 1
     6    3    4 am
     7    3   10 1
     8    4    5 2
     9    4    6 am
    10    6    7 1
    11    6    8 am
    12    8    9 2
    13   10   11 1
    14   10   16 1
    15   10   12 1
    16   12   13 1
    17   12   33 1
    18   12   34 1
    19   13   14 1
    20   13   35 1
    21   13   36 1
    22   14   15 1
    23   14   16 1
    24   14   17 1
    25   17   18 1
    26   17   37 1
    27   17   38 1
    28   18   19 1
    29   19   20 2
    30   19   21 1
    31   19   22 1
    32   22   23 1
    33   23   24 2
    34   23   25 1
    35   23   26 1
    36   26   27 1
    37   27   28 2
    38   27   29 1
    39   27   30 1
@<TRIPOS>MOLECULE
ZINC13533762
   39    40     0     0     0
SMALL
USER_CHARGES

@<TRIPOS>ATOM
      1 C1          1.1174   -0.5677   -0.4689 C.2       1 <0>        -0.3099
      2 C2          2.2881    0.1051   -0.4765 C.2       1 <0>         0.1953
      3 N1          2.3333    1.3916   -0.0127 N.am      1 <0>        -0.5328
      4 C3          1.2224    1.9923    0.4511 C.2       1 <0>         0.7034
      5 O1          1.2852    3.1360    0.8589 O.2       1 <0>        -0.5500
      6 N2          0.0423    1.3452    0.4697 N.am      1 <0>        -0.6603
      7 H1         -0.7491    1.7933    0.8069 H         1 <0>         0.4252
      8 C4         -0.0441    0.0764    0.0215 C.2       1 <0>         0.5546
      9 O2         -1.1113   -0.5098    0.0380 O.2       1 <0>        -0.5295
     10 C5          3.6034    2.1217   -0.0210 C.3       1 <0>         0.2908
     11 H2          3.4200    3.1804   -0.2039 H         1 <0>         0.1252
     12 C6          4.3202    1.9409    1.3344 C.3       1 <0>        -0.1543
     13 C7          5.3332    0.8057    1.0226 C.3       1 <0>        -0.1550
     14 C8          5.6862    1.1234   -0.4522 C.3       1 <0>         0.0715
     15 H3          6.4499    1.8997   -0.4997 H         1 <0>         0.0966
     16 O3          4.4607    1.5938   -1.0398 O.3       1 <0>        -0.3468
     17 C9          6.1696   -0.1402   -1.1666 C.3       1 <0>         0.1325
     18 O4          6.5997    0.1944   -2.4877 O.3       1 <0>        -0.7626
     19 P1          7.1724   -0.8950   -3.5257 P.3       1 <0>         2.2870
     20 O5          8.3535   -1.6520   -2.8784 O.2       1 <0>        -1.1001
     21 O6          6.0546   -1.8980   -3.8885 O.3       1 <0>        -1.1093
     22 O7          7.6790   -0.1502   -4.8601 O.3       1 <0>        -1.0978
     23 P2          8.6017   -0.5894   -6.1043 P.3       1 <0>         2.3536
     24 O8          9.7858   -1.4396   -5.5925 O.2       1 <0>        -1.1052
     25 O9          7.7624   -1.4214   -7.0994 O.3       1 <0>        -1.1152
     26 O10         9.1650    0.7246   -6.8448 O.3       1 <0>        -1.0987
     27 P3         10.3383    0.9887   -7.9152 P.3       1 <0>         2.2760
     28 O11        10.2686   -0.0790   -9.0297 O.2       1 <0>        -1.1169
     29 O12        10.1556    2.4519   -8.5616 O.3       1 <0>        -0.9090
     30 O13        11.7092    0.9058   -7.2075 O.3       1 <0>        -1.1166
     31 H4          1.0668   -1.5821   -0.8361 H         1 <0>         0.1754
     32 H5          3.1845   -0.3702   -0.8465 H         1 <0>         0.1875
     33 H6          4.8387    2.8548    1.6239 H         1 <0>         0.0981
     34 H7          3.6165    1.6314    2.1071 H         1 <0>         0.0856
     35 H8          6.2133    0.8782    1.6616 H         1 <0>         0.0986
     36 H9          4.8648   -0.1744    1.1121 H         1 <0>         0.0859
     37 H10         7.0018   -0.5749   -0.6128 H         1 <0>         0.0736
     38 H11         5.3538   -0.8611   -1.2218 H         1 <0>         0.0538
     39 H12        10.8292    2.6792   -9.2171 H         1 <0>         0.3998
@<TRIPOS>BOND
     1    1    8 1
     2    1    2 2
     3    1   31 1
     4    2    3 1
     5    2   32 1
     6    3    4 am
     7    3   10 1
     8    4    5 2
     9    4    6 am
    10    6    7 1
    11    6    8 am
    12    8    9 2
    13   10   11 1
    14   10   16 1
    15   10   12 1
    16   12   13 1
    17   12   33 1
    18   12   34 1
    19   13   14 1
    20   13   35 1
    21   13   36 1
    22   14   15 1
    23   14   16 1
    24   14   17 1
    25   17   18 1
    26   17   37 1
    27   17   38 1
    28   18   19 1
    29   19   20 2
    30   19   21 1
    31   19   22 1
    32   22   23 1
    33   23   24 2
    34   23   25 1
    35   23   26 1
    36   26   27 1
    37   27   28 2
    38   27   29 1
    39   27   30 1
    40   29   39 1
@<TRIPOS>MOLECULE
ZINC01591007
   43    46     0     0     0
SMALL
USER_CHARGES
dimethyl pyrrolidin-1-ylBLAHdicarboxylate
@<TRIPOS>ATOM
      1 C1         -2.9304    6.3217    3.0577 C.3       1 <0>         0.0382
      2 O1         -2.1961    5.6203    2.0523 O.3       1 <0>        -0.3465
      3 C2         -0.9082    5.3251    2.3279 C.2       1 <0>         0.5450
      4 O2         -0.4230    5.6552    3.3942 O.2       1 <0>        -0.5369
      5 C3         -0.1240    4.6334    1.3794 C.2       1 <0>        -0.3261
      6 C4          1.1632    4.2262    1.4103 C.2       1 <0>         0.3157
      7 C5          1.0043    3.6277    0.0336 C.3       1 <0>        -0.0126
      8 H1          1.6222    4.1218   -0.7162 H         1 <0>         0.1401
      9 C6         -0.4525    4.1105    0.0261 C.3       1 <0>         0.0340
     10 S1         -1.3733    2.5272    0.0211 S.3       1 <0>        -0.0591
     11 C7         -0.0167    1.3809    0.0096 C.ar      1 <0>        -0.0662
     12 C8          1.1515    2.1302    0.0025 C.ar      1 <0>        -0.1192
     13 C9          2.3602    1.4245   -0.0244 C.ar      1 <0>        -0.0803
     14 C10         2.3834    0.0487   -0.0353 C.ar      1 <0>        -0.1224
     15 C11         1.2076   -0.6788   -0.0203 C.ar      1 <0>        -0.0855
     16 C12         0.0021   -0.0041    0.0020 C.ar      1 <0>        -0.0862
     17 C13        -0.8698    5.1173   -1.0147 C.2       1 <0>         0.5181
     18 O3         -0.0317    5.7267   -1.6361 O.2       1 <0>        -0.4906
     19 O4         -2.1727    5.3371   -1.2515 O.3       1 <0>        -0.3331
     20 C14        -2.5012    6.3207   -2.2677 C.3       1 <0>         0.0348
     21 N1          2.1845    4.3175    2.3126 N.pl3     1 <0>        -0.5534
     22 C15         3.5402    3.7789    2.1297 C.3       1 <0>         0.0920
     23 C16         4.3370    4.0979    3.4122 C.3       1 <0>        -0.1323
     24 C17         3.2212    4.2912    4.4729 C.3       1 <0>        -0.1365
     25 C18         2.1082    4.9670    3.6338 C.3       1 <0>         0.0924
     26 H2         -2.9552    5.7271    3.9709 H         1 <0>         0.0584
     27 H3         -2.4476    7.2778    3.2597 H         1 <0>         0.0564
     28 H4         -3.9486    6.4953    2.7094 H         1 <0>         0.0994
     29 H5          3.2921    1.9702   -0.0369 H         1 <0>         0.1237
     30 H6          3.3310   -0.4689   -0.0554 H         1 <0>         0.1318
     31 H7          1.2312   -1.7586   -0.0257 H         1 <0>         0.1379
     32 H8         -0.9258   -0.5566    0.0132 H         1 <0>         0.1349
     33 H9         -2.0878    7.2885   -1.9838 H         1 <0>         0.0654
     34 H10        -2.0781    6.0111   -3.2233 H         1 <0>         0.0663
     35 H11        -3.5844    6.4010   -2.3590 H         1 <0>         0.1076
     36 H12         3.4933    2.7004    1.9788 H         1 <0>         0.0797
     37 H13         4.0157    4.2549    1.2721 H         1 <0>         0.0782
     38 H14         4.9177    5.0124    3.2923 H         1 <0>         0.0827
     39 H15         4.9849    3.2638    3.6816 H         1 <0>         0.0897
     40 H16         3.5562    4.9459    5.2774 H         1 <0>         0.0920
     41 H17         2.8855    3.3319    4.8669 H         1 <0>         0.0791
     42 H18         2.2985    6.0364    3.5424 H         1 <0>         0.0769
     43 H19         1.1324    4.7919    4.0868 H         1 <0>         0.1161
@<TRIPOS>BOND
     1    1    2 1
     2    1   26 1
     3    1   27 1
     4    1   28 1
     5    2    3 1
     6    3    4 2
     7    3    5 1
     8    5    9 1
     9    5    6 2
    10    6    7 1
    11    6   21 1
    12    7    8 1
    13    7   12 1
    14    7    9 1
    15    9   10 1
    16    9   17 1
    17   10   11 1
    18   11   16 ar
    19   11   12 ar
    20   12   13 ar
    21   13   14 ar
    22   13   29 1
    23   14   15 ar
    24   14   30 1
    25   15   16 ar
    26   15   31 1
    27   16   32 1
    28   17   18 2
    29   17   19 1
    30   19   20 1
    31   20   33 1
    32   20   34 1
    33   20   35 1
    34   21   25 1
    35   21   22 1
    36   22   23 1
    37   22   36 1
    38   22   37 1
    39   23   24 1
    40   23   38 1
    41   23   39 1
    42   24   25 1
    43   24   40 1
    44   24   41 1
    45   25   42 1
    46   25   43 1
@<TRIPOS>MOLECULE
ZINC04413474
   43    46     0     0     0
SMALL
USER_CHARGES
2-[1-(1-naphthyl)tetrazol-5-yl]sulfanyl-N-(2-nitrophenyl)-acetamide
@<TRIPOS>ATOM
      1 C1         -0.7664    2.6623   -2.4733 C.ar      1 <0>        -0.1075
      2 C2          0.4571    1.9956   -2.4970 C.ar      1 <0>        -0.0993
      3 C3          1.4838    2.3870   -1.6931 C.ar      1 <0>        -0.1070
      4 C4          1.3090    3.4743   -0.8224 C.ar      1 <0>        -0.0304
      5 C5          0.0637    4.1494   -0.7936 C.ar      1 <0>        -0.0438
      6 C6         -0.9735    3.7166   -1.6379 C.ar      1 <0>        -0.1005
      7 C7         -0.1125    5.2384    0.0766 C.ar      1 <0>        -0.0750
      8 C8          0.9099    5.6363    0.8831 C.ar      1 <0>        -0.1087
      9 C9          2.1374    4.9806    0.8632 C.ar      1 <0>        -0.0852
     10 C10         2.3500    3.9085    0.0247 C.ar      1 <0>         0.1183
     11 N1          3.5882    3.2565    0.0127 N.pl3     1 <0>        -0.3108
     12 C11         4.8225    3.8239   -0.0949 C.2       1 <0>         0.2000
     13 N2          5.6993    2.8432   -0.0619 N.2       1 <0>        -0.3272
     14 N3          5.1051    1.7114    0.0579 N.2       1 <0>        -0.0242
     15 N4          3.8280    1.8748    0.1152 N.2       1 <0>        -0.0632
     16 S1          5.1768    5.5430   -0.2495 S.3       1 <0>         0.1360
     17 C12         6.9838    5.4849   -0.3364 C.3       1 <0>        -0.1642
     18 C13         7.5253    6.8844   -0.4750 C.2       1 <0>         0.5428
     19 O1          6.7644    7.8282   -0.5115 O.2       1 <0>        -0.4984
     20 N5          8.8551    7.0872   -0.5585 N.am      1 <0>        -0.6621
     21 C14         9.3643    8.3904   -0.5748 C.ar      1 <0>         0.2207
     22 C15         8.7467    9.3883    0.1681 C.ar      1 <0>        -0.1261
     23 C16         9.2549   10.6722    0.1541 C.ar      1 <0>        -0.0423
     24 C17        10.3714   10.9673   -0.6069 C.ar      1 <0>        -0.1300
     25 C18        10.9852    9.9775   -1.3519 C.ar      1 <0>        -0.0357
     26 C19        10.4849    8.6900   -1.3381 C.ar      1 <0>        -0.0741
     27 N6         11.1422    7.6311   -2.1364 N.pl3     1 <0>         0.0379
     28 O2         12.0690    7.9121   -2.8750 O.2       1 <0>        -0.1413
     29 O3         10.7564    6.4787   -2.0546 O.3       1 <0>        -0.1827
     30 H1         -1.5635    2.3345   -3.1241 H         1 <0>         0.1309
     31 H2          0.5944    1.1591   -3.1662 H         1 <0>         0.1298
     32 H3          2.4279    1.8634   -1.7247 H         1 <0>         0.1267
     33 H4         -1.9283    4.2213   -1.6275 H         1 <0>         0.1368
     34 H5         -1.0582    5.7592    0.1061 H         1 <0>         0.1414
     35 H6          0.7661    6.4745    1.5487 H         1 <0>         0.1428
     36 H7          2.9321    5.3158    1.5132 H         1 <0>         0.1379
     37 H8          7.3769    5.0317    0.5736 H         1 <0>         0.1426
     38 H9          7.2871    4.8909   -1.1985 H         1 <0>         0.1433
     39 H10         9.4591    6.3298   -0.6073 H         1 <0>         0.4319
     40 H11         7.8723    9.1594    0.7593 H         1 <0>         0.1577
     41 H12         8.7775   11.4477    0.7347 H         1 <0>         0.1502
     42 H13        10.7645   11.9731   -0.6194 H         1 <0>         0.1522
     43 H14        11.8565   10.2112   -1.9457 H         1 <0>         0.1601
@<TRIPOS>BOND
     1    1    6 ar
     2    1    2 ar
     3    1   30 1
     4    2    3 ar
     5    2   31 1
     6    3    4 ar
     7    3   32 1
     8    4   10 ar
     9    4    5 ar
    10    5    6 ar
    11    5    7 ar
    12    6   33 1
    13    7    8 ar
    14    7   34 1
    15    8    9 ar
    16    8   35 1
    17    9   10 ar
    18    9   36 1
    19   10   11 1
    20   11   15 1
    21   11   12 1
    22   12   13 2
    23   12   16 1
    24   13   14 1
    25   14   15 2
    26   16   17 1
    27   17   18 1
    28   17   37 1
    29   17   38 1
    30   18   19 2
    31   18   20 am
    32   20   21 1
    33   20   39 1
    34   21   26 ar
    35   21   22 ar
    36   22   23 ar
    37   22   40 1
    38   23   24 ar
    39   23   41 1
    40   24   25 ar
    41   24   42 1
    42   25   26 ar
    43   25   43 1
    44   26   27 1
    45   27   28 2
    46   27   29 1
@<TRIPOS>MOLECULE
ZINC02020233
   30    32     0     0     0
SMALL
USER_CHARGES

@<TRIPOS>ATOM
      1 C1         -0.0167    1.3794    0.0096 C.ar      1 <0>        -0.0472
      2 C2          1.1694    2.0895    0.0021 C.ar      1 <0>        -0.1344
      3 C3          2.3774    1.4112   -0.0095 C.ar      1 <0>         0.1916
      4 C4          2.3932    0.0207   -0.0327 C.ar      1 <0>        -0.1788
      5 C5          1.2087   -0.6839   -0.0200 C.ar      1 <0>        -0.0282
      6 C6          0.0021   -0.0041    0.0020 C.ar      1 <0>        -0.0604
      7 Cl1        -1.4906   -0.8902    0.0208 Cl        1 <0>        -0.0482
      8 C7          3.7181   -0.6968   -0.0911 C.3       1 <0>         0.2846
      9 O1          4.7197    0.1214    0.5191 O.3       1 <0>        -0.3079
     10 C8          4.7428    1.4259    0.1890 C.2       1 <0>         0.6595
     11 O2          5.8081    1.9978    0.0682 O.2       1 <0>        -0.4692
     12 N1          3.5943    2.1036   -0.0087 N.am      1 <0>        -0.6583
     13 C9          3.6183   -1.9747    0.6326 C.1       1 <0>        -0.2259
     14 C10         3.5386   -2.9939    1.2097 C.1       1 <0>        -0.0161
     15 C11         3.4387   -4.2719    1.9334 C.3       1 <0>        -0.0739
     16 C12         4.2228   -4.4068    3.2403 C.3       1 <0>        -0.1553
     17 C13         4.6888   -5.1523    1.9882 C.3       1 <0>        -0.1565
     18 C14         4.0929   -0.9613   -1.5508 C.3       1 <0>         0.4425
     19 F1          4.1917    0.2551   -2.2346 F         1 <0>        -0.1685
     20 F2          5.3222   -1.6270   -1.6033 F         1 <0>        -0.1583
     21 F3          3.1074   -1.7539   -2.1490 F         1 <0>        -0.1572
     22 H1         -0.9597    1.9055    0.0260 H         1 <0>         0.1526
     23 H2          1.1544    3.1694    0.0050 H         1 <0>         0.1542
     24 H3          1.2213   -1.7638   -0.0270 H         1 <0>         0.1494
     25 H4          3.6108    3.0632   -0.1495 H         1 <0>         0.4395
     26 H5          2.4726   -4.7728    1.8717 H         1 <0>         0.1410
     27 H6          4.8126   -3.5493    3.5642 H         1 <0>         0.1025
     28 H7          3.7725   -4.9965    4.0388 H         1 <0>         0.1119
     29 H8          4.5451   -6.2325    1.9628 H         1 <0>         0.1120
     30 H9          5.5852   -4.7853    1.4883 H         1 <0>         0.1031
@<TRIPOS>BOND
     1    1    6 ar
     2    1    2 ar
     3    1   22 1
     4    2    3 ar
     5    2   23 1
     6    3   12 1
     7    3    4 ar
     8    4    5 ar
     9    4    8 1
    10    5    6 ar
    11    5   24 1
    12    6    7 1
    13    8    9 1
    14    8   13 1
    15    8   18 1
    16    9   10 1
    17   10   11 2
    18   10   12 am
    19   12   25 1
    20   13   14 3
    21   14   15 1
    22   15   17 1
    23   15   16 1
    24   15   26 1
    25   16   17 1
    26   16   27 1
    27   16   28 1
    28   17   29 1
    29   17   30 1
    30   18   19 1
    31   18   20 1
    32   18   21 1
@<TRIPOS>MOLECULE
ZINC13744891
   33    34     0     0     0
SMALL
USER_CHARGES

@<TRIPOS>ATOM
      1 C1         -0.0184    1.5028    0.0103 C.3       1 <0>        -0.0791
      2 C2          0.0021   -0.0041    0.0020 C.2       1 <0>         0.0688
      3 C3          0.0059   -0.7055   -1.1577 C.2       1 <0>        -0.3184
      4 S1          0.0324   -2.3786   -0.5348 S.3       1 <0>         0.3278
      5 C4          0.0358   -2.0151    1.1084 C.2       1 <0>         0.1934
      6 N1          0.0227   -0.6996    1.1243 N.2       1 <0>        -0.5414
      7 N2          0.0531   -2.8914    2.1865 N.pl3     1 <0>        -0.5642
      8 C5          0.0706   -4.2220    1.9731 C.2       1 <0>         0.5306
      9 S2          0.0715   -4.8325    0.3737 S.2       1 <0>        -0.5109
     10 N3          0.0875   -5.0720    3.0189 N.pl3     1 <0>        -0.6673
     11 C6          0.1065   -6.5184    2.7869 C.3       1 <0>         0.1228
     12 C7          0.1231   -7.2502    4.1305 C.3       1 <0>        -0.0924
     13 C8          0.1427   -8.7381    3.8919 C.ar      1 <0>        -0.0881
     14 C9         -1.0454   -9.4363    3.7825 C.ar      1 <0>        -0.1110
     15 C10        -1.0274  -10.8010    3.5637 C.ar      1 <0>        -0.1172
     16 C11         0.1786  -11.4676    3.4537 C.ar      1 <0>        -0.1164
     17 C12         1.3667  -10.7693    3.5621 C.ar      1 <0>        -0.1172
     18 C13         1.3487   -9.4038    3.7767 C.ar      1 <0>        -0.1111
     19 H1          1.0042    1.8801    0.0026 H         1 <0>         0.0697
     20 H2         -0.5455    1.8639   -0.8728 H         1 <0>         0.0733
     21 H3         -0.5286    1.8543    0.9071 H         1 <0>         0.0679
     22 H4         -0.0043   -0.3503   -2.1776 H         1 <0>         0.1812
     23 H5          0.0527   -2.5455    3.0927 H         1 <0>         0.4176
     24 H6          0.0870   -4.7261    3.9251 H         1 <0>         0.4059
     25 H7         -0.7822   -6.8082    2.2263 H         1 <0>         0.0964
     26 H8          0.9976   -6.7835    2.2178 H         1 <0>         0.0963
     27 H9          1.0119   -6.9605    4.6911 H         1 <0>         0.0827
     28 H10        -0.7679   -6.9852    4.6996 H         1 <0>         0.0828
     29 H11        -1.9876   -8.9155    3.8685 H         1 <0>         0.1227
     30 H12        -1.9556  -11.3466    3.4789 H         1 <0>         0.1243
     31 H13         0.1926  -12.5340    3.2834 H         1 <0>         0.1236
     32 H14         2.3089  -11.2902    3.4765 H         1 <0>         0.1243
     33 H15         2.2769   -8.8577    3.8577 H         1 <0>         0.1227
@<TRIPOS>BOND
     1    1    2 1
     2    1   19 1
     3    1   20 1
     4    1   21 1
     5    2    6 1
     6    2    3 2
     7    3    4 1
     8    3   22 1
     9    4    5 1
    10    5    6 2
    11    5    7 1
    12    7    8 1
    13    7   23 1
    14    8    9 2
    15    8   10 1
    16   10   11 1
    17   10   24 1
    18   11   12 1
    19   11   25 1
    20   11   26 1
    21   12   13 1
    22   12   27 1
    23   12   28 1
    24   13   18 ar
    25   13   14 ar
    26   14   15 ar
    27   14   29 1
    28   15   16 ar
    29   15   30 1
    30   16   17 ar
    31   16   31 1
    32   17   18 ar
    33   17   32 1
    34   18   33 1
@<TRIPOS>MOLECULE
ZINC01645454
   53    56     0     0     0
SMALL
USER_CHARGES
hydroxy-tetramethyl-propyl-BLAHone
@<TRIPOS>ATOM
      1 C1         -4.2062    0.1376    1.4359 C.3       1 <0>        -0.1491
      2 C2         -2.8720    0.8864    1.4362 C.3       1 <0>        -0.1110
      3 C3         -2.5585    1.3705    0.0191 C.3       1 <0>        -0.0950
      4 C4         -1.2443    2.1081    0.0194 C.2       1 <0>         0.0645
      5 C5         -1.2136    3.4659    0.0450 C.2       1 <0>        -0.2815
      6 C6          0.0239    4.1399    0.0388 C.2       1 <0>         0.5119
      7 O1          0.0430    5.3577    0.0575 O.2       1 <0>        -0.4615
      8 O2          1.1833    3.4609    0.0131 O.3       1 <0>        -0.2725
      9 C7          1.1969    2.1089   -0.0087 C.ar      1 <0>         0.2273
     10 C8         -0.0170    1.3966   -0.0012 C.ar      1 <0>        -0.2081
     11 C9          0.0020   -0.0038   -0.0198 C.ar      1 <0>         0.2420
     12 C10         1.2264   -0.6712   -0.0533 C.ar      1 <0>        -0.1953
     13 C11         2.4332    0.0478   -0.0666 C.ar      1 <0>         0.2655
     14 C12         2.4120    1.4299   -0.0386 C.ar      1 <0>        -0.2558
     15 C13         3.6812    2.2345   -0.0380 C.3       1 <0>         0.1706
     16 H1          3.5782    3.0564   -0.7464 H         1 <0>         0.0772
     17 C14         4.8868    1.3993   -0.4245 C.3       1 <0>        -0.1195
     18 H2          5.7897    1.8935   -0.0659 H         1 <0>         0.1097
     19 C15         4.8237    0.0012    0.1623 C.3       1 <0>         0.0969
     20 H3          5.6357   -0.5944   -0.2551 H         1 <0>         0.1237
     21 O3          3.5952   -0.6405   -0.1147 O.3       1 <0>        -0.2883
     22 C16         5.0049    0.0928    1.6788 C.3       1 <0>        -0.1815
     23 C17         4.9494    1.2959   -1.9497 C.3       1 <0>        -0.1509
     24 O4          3.8891    2.7724    1.2694 O.3       1 <0>        -0.5538
     25 C18         1.2217   -2.1497   -0.0733 C.2       1 <0>        -0.0697
     26 C19         0.0854   -2.7680   -0.3906 C.2       1 <0>        -0.1957
     27 C20        -1.1410   -1.9615   -0.7279 C.3       1 <0>         0.1425
     28 O5         -1.1429   -0.7286   -0.0066 O.3       1 <0>        -0.2773
     29 C21        -2.3903   -2.7642   -0.3593 C.3       1 <0>        -0.1384
     30 C22        -1.1551   -1.6680   -2.2294 C.3       1 <0>        -0.1749
     31 H4         -4.9978    0.8058    1.0968 H         1 <0>         0.0537
     32 H5         -4.1418   -0.7192    0.7652 H         1 <0>         0.0573
     33 H6         -4.4295   -0.2073    2.4455 H         1 <0>         0.0560
     34 H7         -2.0804    0.2182    1.7753 H         1 <0>         0.0711
     35 H8         -2.9363    1.7432    2.1069 H         1 <0>         0.0603
     36 H9         -3.3501    2.0387   -0.3200 H         1 <0>         0.0802
     37 H10        -2.4941    0.5137   -0.6516 H         1 <0>         0.1022
     38 H11        -2.1357    4.0278    0.0650 H         1 <0>         0.1627
     39 H12         5.0089   -0.9102    2.1055 H         1 <0>         0.0635
     40 H13         5.9505    0.5866    1.9025 H         1 <0>         0.0765
     41 H14         4.1844    0.6672    2.1087 H         1 <0>         0.0748
     42 H15         4.0602    0.7830   -2.3160 H         1 <0>         0.0588
     43 H16         4.9950    2.2963   -2.3801 H         1 <0>         0.0659
     44 H17         5.8378    0.7349   -2.2397 H         1 <0>         0.0690
     45 H18         3.1598    3.3207    1.5897 H         1 <0>         0.3814
     46 H19         2.1132   -2.7117    0.1627 H         1 <0>         0.1397
     47 H20         0.0437   -3.8471   -0.4063 H         1 <0>         0.1365
     48 H21        -3.2802   -2.1907   -0.6187 H         1 <0>         0.0721
     49 H22        -2.3921   -3.7059   -0.9081 H         1 <0>         0.0837
     50 H23        -2.3886   -2.9676    0.7116 H         1 <0>         0.0709
     51 H24        -0.2710   -1.0884   -2.4947 H         1 <0>         0.0610
     52 H25        -1.1537   -2.6069   -2.7831 H         1 <0>         0.0799
     53 H26        -2.0508   -1.0997   -2.4801 H         1 <0>         0.0712
@<TRIPOS>BOND
     1    1    2 1
     2    1   31 1
     3    1   32 1
     4    1   33 1
     5    2    3 1
     6    2   34 1
     7    2   35 1
     8    3    4 1
     9    3   36 1
    10    3   37 1
    11    4   10 1
    12    4    5 2
    13    5    6 1
    14    5   38 1
    15    6    7 2
    16    6    8 1
    17    8    9 1
    18    9   14 ar
    19    9   10 ar
    20   10   11 ar
    21   11   28 1
    22   11   12 ar
    23   12   13 ar
    24   12   25 1
    25   13   21 1
    26   13   14 ar
    27   14   15 1
    28   15   16 1
    29   15   17 1
    30   15   24 1
    31   17   18 1
    32   17   19 1
    33   17   23 1
    34   19   20 1
    35   19   21 1
    36   19   22 1
    37   22   39 1
    38   22   40 1
    39   22   41 1
    40   23   42 1
    41   23   43 1
    42   23   44 1
    43   24   45 1
    44   25   26 2
    45   25   46 1
    46   26   27 1
    47   26   47 1
    48   27   28 1
    49   27   29 1
    50   27   30 1
    51   29   48 1
    52   29   49 1
    53   29   50 1
    54   30   51 1
    55   30   52 1
    56   30   53 1
@<TRIPOS>MOLECULE
ZINC01842502
   49    50     0     0     0
SMALL
USER_CHARGES
6-(3,5-dimethylphenyl)sulfanyl-1-(2-hydroxyethoxymethyl)-5-isopropyl-2-thioxo-pyrimidin-4-one
@<TRIPOS>ATOM
      1 C1          0.7281   -4.3568    3.3575 C.3       1 <0>        -0.1207
      2 C2         -0.6953   -3.8628    3.3881 C.ar      1 <0>        -0.0553
      3 C3         -1.7399   -4.7683    3.4268 C.ar      1 <0>        -0.1086
      4 C4         -3.0477   -4.3194    3.4549 C.ar      1 <0>        -0.0585
      5 C5         -3.3146   -2.9645    3.4454 C.ar      1 <0>        -0.0940
      6 C6         -2.2676   -2.0522    3.4070 C.ar      1 <0>        -0.1240
      7 C7         -0.9552   -2.5067    3.3725 C.ar      1 <0>        -0.1273
      8 S1         -2.6036   -0.3225    3.3947 S.3       1 <0>         0.0762
      9 C8         -0.9652    0.3085    3.5425 C.2       1 <0>         0.0960
     10 C9         -0.3744    0.9496    2.4879 C.2       1 <0>        -0.1422
     11 C10         0.9295    1.4469    2.6365 C.2       1 <0>         0.5410
     12 O1          1.4742    2.0257    1.7119 O.2       1 <0>        -0.4753
     13 N1          1.5762    1.2807    3.8070 N.am      1 <0>        -0.6082
     14 H1          2.4773    1.6241    3.9113 H         1 <0>         0.4449
     15 C11         0.9830    0.6429    4.8324 C.2       1 <0>         0.5194
     16 S2          1.8308    0.4469    6.3069 S.2       1 <0>        -0.5014
     17 N2         -0.2663    0.1564    4.7166 N.pl3     1 <0>        -0.4830
     18 C12        -0.8873   -0.5337    5.8499 C.3       1 <0>         0.2594
     19 O2         -1.2681    0.4236    6.8400 O.3       1 <0>        -0.3366
     20 C13        -2.4791    1.1203    6.5395 C.3       1 <0>         0.0467
     21 C14        -2.7878    2.1137    7.6614 C.3       1 <0>         0.0792
     22 O3         -1.7730    3.1190    7.7001 O.3       1 <0>        -0.5644
     23 C15        -1.1156    1.1247    1.1875 C.3       1 <0>        -0.0393
     24 C16        -0.3366    0.4432    0.0607 C.3       1 <0>        -0.1496
     25 C17        -1.2587    2.6164    0.8788 C.3       1 <0>        -0.1498
     26 C18        -4.1827   -5.3098    3.4966 C.3       1 <0>        -0.1188
     27 H2          1.0741   -4.4045    2.3250 H         1 <0>         0.0761
     28 H3          1.3622   -3.6730    3.9219 H         1 <0>         0.0686
     29 H4          0.7777   -5.3501    3.8036 H         1 <0>         0.0743
     30 H5         -1.5339   -5.8285    3.4347 H         1 <0>         0.1313
     31 H6         -4.3361   -2.6146    3.4681 H         1 <0>         0.1327
     32 H7         -0.1391   -1.8002    3.3378 H         1 <0>         0.1153
     33 H8         -1.7704   -1.0730    5.5072 H         1 <0>         0.1032
     34 H9         -0.1757   -1.2383    6.2804 H         1 <0>         0.1476
     35 H10        -2.3646    1.6588    5.5987 H         1 <0>         0.0537
     36 H11        -3.2973    0.4055    6.4518 H         1 <0>         0.0755
     37 H12        -3.7552    2.5809    7.4770 H         1 <0>         0.0638
     38 H13        -2.8145    1.5875    8.6156 H         1 <0>         0.0593
     39 H14        -1.9045    3.7844    8.3894 H         1 <0>         0.3819
     40 H15        -2.1047    0.6741    1.2695 H         1 <0>         0.1035
     41 H16        -0.2346   -0.6195    0.2806 H         1 <0>         0.0520
     42 H17         0.6526    0.8937   -0.0213 H         1 <0>         0.0722
     43 H18        -0.8726    0.5698   -0.8798 H         1 <0>         0.0687
     44 H19        -1.7948    2.7430   -0.0617 H         1 <0>         0.0693
     45 H20        -1.8137    3.1019    1.6816 H         1 <0>         0.0528
     46 H21        -0.2696    3.0670    0.7968 H         1 <0>         0.0725
     47 H22        -4.4832   -5.5611    2.4794 H         1 <0>         0.0768
     48 H23        -3.8580   -6.2130    4.0132 H         1 <0>         0.0724
     49 H24        -5.0280   -4.8717    4.0273 H         1 <0>         0.0711
@<TRIPOS>BOND
     1    1    2 1
     2    1   27 1
     3    1   28 1
     4    1   29 1
     5    2    7 ar
     6    2    3 ar
     7    3    4 ar
     8    3   30 1
     9    4    5 ar
    10    4   26 1
    11    5    6 ar
    12    5   31 1
    13    6    7 ar
    14    6    8 1
    15    7   32 1
    16    8    9 1
    17    9   17 1
    18    9   10 2
    19   10   11 1
    20   10   23 1
    21   11   12 2
    22   11   13 am
    23   13   14 1
    24   13   15 1
    25   15   16 2
    26   15   17 1
    27   17   18 1
    28   18   19 1
    29   18   33 1
    30   18   34 1
    31   19   20 1
    32   20   21 1
    33   20   35 1
    34   20   36 1
    35   21   22 1
    36   21   37 1
    37   21   38 1
    38   22   39 1
    39   23   24 1
    40   23   25 1
    41   23   40 1
    42   24   41 1
    43   24   42 1
    44   24   43 1
    45   25   44 1
    46   25   45 1
    47   25   46 1
    48   26   47 1
    49   26   48 1
    50   26   49 1
@<TRIPOS>MOLECULE
ZINC00005691
   33    35     0     0     0
SMALL
USER_CHARGES

@<TRIPOS>ATOM
      1 C1          6.4689   -3.4761   -2.6365 C.ar      1 <0>        -0.0637
      2 C2          5.2654   -3.9439   -2.1429 C.ar      1 <0>        -0.1462
      3 C3          4.4819   -3.1300   -1.3463 C.ar      1 <0>        -0.0160
      4 C4          4.9022   -1.8485   -1.0429 C.ar      1 <0>        -0.6563
      5 C5          6.1062   -1.3811   -1.5357 C.ar      1 <0>        -0.0228
      6 C6          6.8890   -2.1945   -2.3335 C.ar      1 <0>        -0.1441
      7 S1          3.9031   -0.8106   -0.0283 S.o2      1 <0>         2.6010
      8 O1          4.2605    0.5286   -0.3411 O.2       1 <0>        -0.9382
      9 O2          2.5706   -1.2905   -0.1444 O.2       1 <0>        -0.9052
     10 C7          4.3938   -1.0860    1.6414 C.2       1 <0>        -0.6558
     11 C8          5.2568   -0.2628    2.4046 C.ar      1 <0>        -0.0367
     12 C9          5.9451    0.9259    2.1287 C.ar      1 <0>        -0.0663
     13 C10         6.7221    1.5001    3.0934 C.ar      1 <0>        -0.0435
     14 C11         6.8378    0.9154    4.3496 C.ar      1 <0>        -0.0794
     15 C12         6.1713   -0.2527    4.6437 C.ar      1 <0>        -0.1076
     16 C13         5.3722   -0.8564    3.6765 C.ar      1 <0>         0.1032
     17 N1          4.6024   -1.9960    3.6696 N.pl3     1 <0>        -0.5548
     18 H1          4.4923   -2.6077    4.4143 H         1 <0>         0.4261
     19 C14         4.0073   -2.1231    2.4294 C.2       1 <0>         0.1519
     20 C15         3.1027   -3.2099    2.0253 C.2       1 <0>         0.5636
     21 O3          2.7192   -3.2854    0.8733 O.2       1 <0>        -0.4670
     22 N2          2.6984   -4.1222    2.9313 N.am      1 <0>        -0.8422
     23 Cl1         7.5737    2.9730    2.7484 Cl        1 <0>        -0.0572
     24 H2          7.0831   -4.1136   -3.2553 H         1 <0>         0.1302
     25 H3          4.9370   -4.9450   -2.3800 H         1 <0>         0.1320
     26 H4          3.5413   -3.4951   -0.9612 H         1 <0>         0.1593
     27 H5          6.4344   -0.3798   -1.2989 H         1 <0>         0.1405
     28 H6          7.8294   -1.8292   -2.7189 H         1 <0>         0.1332
     29 H7          5.8616    1.3867    1.1555 H         1 <0>         0.1595
     30 H8          7.4567    1.3819    5.1017 H         1 <0>         0.1459
     31 H9          6.2681   -0.6996    5.6221 H         1 <0>         0.1394
     32 H10         3.0042   -4.0619    3.8499 H         1 <0>         0.3986
     33 H11         2.1018   -4.8390    2.6647 H         1 <0>         0.4189
@<TRIPOS>BOND
     1    1    6 ar
     2    1    2 ar
     3    1   24 1
     4    2    3 ar
     5    2   25 1
     6    3    4 ar
     7    3   26 1
     8    4    5 ar
     9    4    7 1
    10    5    6 ar
    11    5   27 1
    12    6   28 1
    13    7    8 2
    14    7    9 2
    15    7   10 1
    16   10   19 2
    17   10   11 1
    18   11   16 ar
    19   11   12 ar
    20   12   13 ar
    21   12   29 1
    22   13   14 ar
    23   13   23 1
    24   14   15 ar
    25   14   30 1
    26   15   16 ar
    27   15   31 1
    28   16   17 1
    29   17   18 1
    30   17   19 1
    31   19   20 1
    32   20   21 2
    33   20   22 am
    34   22   32 1
    35   22   33 1
@<TRIPOS>MOLECULE
ZINC00597720
   46    48     0     0     0
SMALL
USER_CHARGES
1-(benzyloxymethyl)-5-ethyl-6-phenylsulfanyl-pyrimidine-2,4-dione
@<TRIPOS>ATOM
      1 C1         -0.3613   -3.0617    1.6440 C.3       1 <0>        -0.1450
      2 C2         -0.8079   -2.7569    0.2128 C.3       1 <0>        -0.0632
      3 C3         -1.9026   -1.7215    0.2378 C.2       1 <0>        -0.1806
      4 C4         -3.2396   -2.1037    0.4258 C.2       1 <0>         0.5553
      5 O1         -3.5263   -3.2798    0.5715 O.2       1 <0>        -0.4943
      6 N1         -4.2047   -1.1636    0.4449 N.am      1 <0>        -0.6593
      7 H1         -5.1579   -1.4347    0.5788 H         1 <0>         0.4409
      8 C5         -3.8975    0.1365    0.2854 C.2       1 <0>         0.6987
      9 O2         -4.7842    0.9681    0.3060 O.2       1 <0>        -0.5347
     10 N2         -2.6231    0.5309    0.1087 N.am      1 <0>        -0.5374
     11 C6         -1.6070   -0.3954    0.0772 C.2       1 <0>         0.1332
     12 S1          0.0606    0.1216   -0.1605 S.3       1 <0>         0.0856
     13 C7          0.3697    0.8838    1.3977 C.ar      1 <0>        -0.1221
     14 C8         -0.5760    0.8027    2.4122 C.ar      1 <0>        -0.1257
     15 C9         -0.3282    1.3968    3.6340 C.ar      1 <0>        -0.0979
     16 C10         0.8548    2.0814    3.8445 C.ar      1 <0>        -0.1118
     17 C11         1.7959    2.1690    2.8349 C.ar      1 <0>        -0.0979
     18 C12         1.5571    1.5723    1.6126 C.ar      1 <0>        -0.0882
     19 C13        -2.3170    1.9540   -0.0568 C.3       1 <0>         0.2636
     20 O3         -2.0045    2.2180   -1.4260 O.3       1 <0>        -0.3573
     21 C14        -3.1500    2.3214   -2.2740 C.3       1 <0>         0.0976
     22 C15        -2.7035    2.5288   -3.6983 C.ar      1 <0>        -0.0929
     23 C16        -2.5210    3.8094   -4.1859 C.ar      1 <0>        -0.0962
     24 C17        -2.1067    3.9995   -5.4910 C.ar      1 <0>        -0.1218
     25 C18        -1.8846    2.9094   -6.3114 C.ar      1 <0>        -0.1107
     26 C19        -2.0726    1.6289   -5.8255 C.ar      1 <0>        -0.1215
     27 C20        -2.4818    1.4387   -4.5189 C.ar      1 <0>        -0.0971
     28 H2          0.0118   -2.1497    2.1102 H         1 <0>         0.0540
     29 H3         -1.2079   -3.4418    2.2157 H         1 <0>         0.0572
     30 H4          0.4305   -3.8106    1.6259 H         1 <0>         0.0674
     31 H5         -1.1810   -3.6688   -0.2534 H         1 <0>         0.0896
     32 H6          0.0388   -2.3768   -0.3589 H         1 <0>         0.0908
     33 H7         -1.5018    0.2717    2.2471 H         1 <0>         0.1167
     34 H8         -1.0610    1.3303    4.4246 H         1 <0>         0.1283
     35 H9          1.0441    2.5489    4.7995 H         1 <0>         0.1295
     36 H10         2.7187    2.7043    3.0026 H         1 <0>         0.1331
     37 H11         2.2923    1.6411    0.8246 H         1 <0>         0.1327
     38 H12        -3.1812    2.5484    0.2398 H         1 <0>         0.1098
     39 H13        -1.4634    2.2170    0.5679 H         1 <0>         0.1304
     40 H14        -3.7358    1.4047   -2.2068 H         1 <0>         0.0562
     41 H15        -3.7609    3.1670   -1.9580 H         1 <0>         0.0686
     42 H16        -2.6985    4.6612   -3.5462 H         1 <0>         0.1240
     43 H17        -1.9602    4.9999   -5.8707 H         1 <0>         0.1254
     44 H18        -1.5645    3.0580   -7.3321 H         1 <0>         0.1243
     45 H19        -1.8994    0.7772   -6.4666 H         1 <0>         0.1246
     46 H20        -2.6286    0.4383   -4.1393 H         1 <0>         0.1181
@<TRIPOS>BOND
     1    1    2 1
     2    1   28 1
     3    1   29 1
     4    1   30 1
     5    2    3 1
     6    2   31 1
     7    2   32 1
     8    3   11 2
     9    3    4 1
    10    4    5 2
    11    4    6 am
    12    6    7 1
    13    6    8 am
    14    8    9 2
    15    8   10 am
    16   10   11 1
    17   10   19 1
    18   11   12 1
    19   12   13 1
    20   13   18 ar
    21   13   14 ar
    22   14   15 ar
    23   14   33 1
    24   15   16 ar
    25   15   34 1
    26   16   17 ar
    27   16   35 1
    28   17   18 ar
    29   17   36 1
    30   18   37 1
    31   19   20 1
    32   19   38 1
    33   19   39 1
    34   20   21 1
    35   21   22 1
    36   21   40 1
    37   21   41 1
    38   22   27 ar
    39   22   23 ar
    40   23   24 ar
    41   23   42 1
    42   24   25 ar
    43   24   43 1
    44   25   26 ar
    45   25   44 1
    46   26   27 ar
    47   26   45 1
    48   27   46 1
@<TRIPOS>MOLECULE
ZINC00026126
   34    35     0     0     0
SMALL
USER_CHARGES

@<TRIPOS>ATOM
      1 C1         -0.0185    1.3969   -0.1288 C.3       1 <0>        -0.1616
      2 C2         -0.0200   -0.1296   -0.0256 C.3       1 <0>         0.1755
      3 H1          0.4700   -0.5535   -0.9022 H         1 <0>         0.1335
      4 C3         -1.4409   -0.6269    0.0453 C.ar      1 <0>        -0.1143
      5 C4         -2.1326   -0.5745    1.2409 C.ar      1 <0>        -0.1209
      6 C5         -3.4359   -1.0306    1.3060 C.ar      1 <0>        -0.1111
      7 C6         -4.0476   -1.5387    0.1752 C.ar      1 <0>        -0.1046
      8 C7         -3.3562   -1.5902   -1.0206 C.ar      1 <0>        -0.1081
      9 C8         -2.0543   -1.1301   -1.0867 C.ar      1 <0>        -0.0968
     10 N1          0.7012   -0.5382    1.1823 N.pl3     1 <0>        -0.6258
     11 C9          2.0421   -0.6704    1.1543 C.2       1 <0>         0.5359
     12 N2          2.7056   -1.0463    2.2656 N.pl3     1 <0>        -0.6424
     13 C10         4.0822   -1.2597    2.2168 C.ar      1 <0>         0.4001
     14 C11         4.6415   -2.3133    2.9313 C.ar      1 <0>        -0.1182
     15 C12         6.0089   -2.5146    2.8741 C.ar      1 <0>         0.0262
     16 C13         6.7741   -1.6507    2.1002 C.ar      1 <0>        -0.0696
     17 C14         6.1512   -0.6245    1.4163 C.ar      1 <0>         0.1614
     18 N3          4.8438   -0.4608    1.4864 N.ar      1 <0>        -0.4209
     19 Cl1         8.4944   -1.8583    1.9943 Cl        1 <0>         0.0342
     20 S1          2.9027   -0.3610   -0.2930 S.2       1 <0>        -0.5621
     21 H2          1.0092    1.7565   -0.1801 H         1 <0>         0.0768
     22 H3         -0.5551    1.7009   -1.0276 H         1 <0>         0.0904
     23 H4         -0.5085    1.8208    0.7477 H         1 <0>         0.0644
     24 H5         -1.6547   -0.1776    2.1244 H         1 <0>         0.1149
     25 H6         -3.9761   -0.9904    2.2403 H         1 <0>         0.1294
     26 H7         -5.0656   -1.8957    0.2262 H         1 <0>         0.1310
     27 H8         -3.8340   -1.9874   -1.9040 H         1 <0>         0.1329
     28 H9         -1.5154   -1.1669   -2.0219 H         1 <0>         0.1311
     29 H10         4.0166   -2.9657    3.5233 H         1 <0>         0.1959
     30 H11         6.4713   -3.3245    3.4188 H         1 <0>         0.1933
     31 H12         6.7414    0.0498    0.8134 H         1 <0>         0.2215
     32 H13         0.2136   -0.7135    2.0024 H         1 <0>         0.4121
     33 H14         4.4310    0.2655    0.9935 H         1 <0>         0.4555
     34 H15         2.2252   -1.1683    3.0993 H         1 <0>         0.4402
@<TRIPOS>BOND
     1    1    2 1
     2    1   21 1
     3    1   22 1
     4    1   23 1
     5    2    3 1
     6    2    4 1
     7    2   10 1
     8    4    9 ar
     9    4    5 ar
    10    5    6 ar
    11    5   24 1
    12    6    7 ar
    13    6   25 1
    14    7    8 ar
    15    7   26 1
    16    8    9 ar
    17    8   27 1
    18    9   28 1
    19   10   11 1
    20   10   32 1
    21   11   12 1
    22   11   20 2
    23   12   13 1
    24   12   34 1
    25   13   18 ar
    26   13   14 ar
    27   14   15 ar
    28   14   29 1
    29   15   16 ar
    30   15   30 1
    31   16   17 ar
    32   16   19 1
    33   17   18 ar
    34   17   31 1
    35   18   33 1
@<TRIPOS>MOLECULE
ZINC05843264
   33    35     0     0     0
SMALL
USER_CHARGES
amino-ethyl-BLAHone
@<TRIPOS>ATOM
      1 C1          4.1474   -1.1182    0.9017 C.3       1 <0>        -0.1657
      2 C2          4.1043   -0.2869   -0.3820 C.3       1 <0>         0.0942
      3 N1          2.7504    0.2367   -0.5794 N.am      1 <0>        -0.5415
      4 C3          1.8969   -0.5141   -1.3865 C.ar      1 <0>         0.1212
      5 C4          2.4186   -1.1474   -2.5099 C.ar      1 <0>        -0.1273
      6 C5          1.6161   -1.9579   -3.2883 C.ar      1 <0>        -0.0994
      7 C6          0.2876   -2.1440   -2.9547 C.ar      1 <0>        -0.1135
      8 C7         -0.2430   -1.5064   -1.8495 C.ar      1 <0>        -0.1033
      9 C8          0.5538   -0.6794   -1.0699 C.ar      1 <0>         0.0760
     10 O1         -0.0014   -0.0403   -0.0105 O.3       1 <0>        -0.2594
     11 C9         -0.0335    1.3123   -0.0226 C.ar      1 <0>         0.0674
     12 C10        -1.2572    1.9684   -0.0263 C.ar      1 <0>        -0.0797
     13 C11        -1.3072    3.3468   -0.0698 C.ar      1 <0>        -0.1538
     14 C12        -0.1324    4.0900   -0.1119 C.ar      1 <0>         0.2087
     15 C13         1.0945    3.4494   -0.0966 C.ar      1 <0>        -0.1257
     16 C14         1.1515    2.0537   -0.0381 C.ar      1 <0>        -0.1119
     17 C15         2.4557    1.3785    0.0273 C.2       1 <0>         0.5661
     18 O2          3.3299    1.9068    0.6866 O.2       1 <0>        -0.5197
     19 N2         -0.1908    5.4872   -0.1693 N.pl3     1 <0>        -0.8734
     20 H1          3.5008   -1.9889    0.7927 H         1 <0>         0.0578
     21 H2          5.1701   -1.4462    1.0880 H         1 <0>         0.0731
     22 H3          3.8021   -0.5118    1.7391 H         1 <0>         0.0622
     23 H4          4.3787   -0.9139   -1.2303 H         1 <0>         0.0884
     24 H5          4.8065    0.5429   -0.3012 H         1 <0>         0.0946
     25 H6          3.4557   -1.0039   -2.7748 H         1 <0>         0.1357
     26 H7          2.0269   -2.4469   -4.1593 H         1 <0>         0.1351
     27 H8         -0.3356   -2.7879   -3.5576 H         1 <0>         0.1361
     28 H9         -1.2816   -1.6518   -1.5915 H         1 <0>         0.1395
     29 H10        -2.1735    1.3977    0.0049 H         1 <0>         0.1409
     30 H11        -2.2625    3.8505   -0.0712 H         1 <0>         0.1361
     31 H12         2.0066    4.0269   -0.1295 H         1 <0>         0.1366
     32 H13         0.6282    6.0061   -0.1984 H         1 <0>         0.4020
     33 H14        -1.0503    5.9366   -0.1801 H         1 <0>         0.4023
@<TRIPOS>BOND
     1    1    2 1
     2    1   20 1
     3    1   21 1
     4    1   22 1
     5    2    3 1
     6    2   23 1
     7    2   24 1
     8    3   17 am
     9    3    4 1
    10    4    9 ar
    11    4    5 ar
    12    5    6 ar
    13    5   25 1
    14    6    7 ar
    15    6   26 1
    16    7    8 ar
    17    7   27 1
    18    8    9 ar
    19    8   28 1
    20    9   10 1
    21   10   11 1
    22   11   16 ar
    23   11   12 ar
    24   12   13 ar
    25   12   29 1
    26   13   14 ar
    27   13   30 1
    28   14   15 ar
    29   14   19 1
    30   15   16 ar
    31   15   31 1
    32   16   17 1
    33   17   18 2
    34   19   32 1
    35   19   33 1
@<TRIPOS>MOLECULE
ZINC03870412
   51    54     0     0     0
SMALL
USER_CHARGES

@<TRIPOS>ATOM
      1 C1         -0.0167    1.3824    0.0096 C.ar      1 <0>        -0.1232
      2 C2          1.1697    2.0917    0.0021 C.ar      1 <0>        -0.0728
      3 C3          2.3792    1.4226   -0.0135 C.ar      1 <0>        -0.0978
      4 C4          2.4066    0.0362   -0.0217 C.ar      1 <0>         0.0943
      5 C5          1.2160   -0.6806   -0.0137 C.ar      1 <0>         0.0658
      6 C6          0.0021   -0.0041    0.0020 C.ar      1 <0>         0.0986
      7 O1         -1.1658   -0.7009    0.0099 O.3       1 <0>        -0.4875
      8 O2          1.2387   -2.0413   -0.0217 O.3       1 <0>        -0.4804
      9 O3          3.5971   -0.6212   -0.0380 O.3       1 <0>        -0.4833
     10 C7          1.1446    3.5984    0.0105 C.3       1 <0>         0.1463
     11 H1          0.2126    3.9475    0.4550 H         1 <0>         0.1098
     12 C8          1.2611    4.1251   -1.4256 C.3       1 <0>         0.0607
     13 H2          0.4684    3.6972   -2.0393 H         1 <0>         0.1110
     14 C9          1.1215    5.6490   -1.3913 C.3       1 <0>        -0.0887
     15 C10         2.0188    6.2172   -0.3211 C.ar      1 <0>        -0.1934
     16 C11         2.3348    7.5707   -0.3637 C.ar      1 <0>         0.1618
     17 C12         3.1535    8.1275    0.6048 C.ar      1 <0>        -0.1998
     18 C13         3.6597    7.3319    1.6220 C.ar      1 <0>         0.1590
     19 C14         3.3464    5.9836    1.6646 C.ar      1 <0>        -0.1810
     20 C15         2.5265    5.4225    0.6909 C.ar      1 <0>         0.1700
     21 O4          2.2521    4.0938    0.7639 O.3       1 <0>        -0.2919
     22 O5          4.4620    7.8746    2.5751 O.3       1 <0>        -0.4915
     23 O6          1.8385    8.3503   -1.3601 O.3       1 <0>        -0.4908
     24 O7          2.5347    3.7694   -1.9673 O.3       1 <0>        -0.3234
     25 C16         2.6005    3.5753   -3.2991 C.2       1 <0>         0.5152
     26 O8          1.6037    3.7045   -3.9818 O.2       1 <0>        -0.4949
     27 C17         3.8823    3.2060   -3.9281 C.ar      1 <0>        -0.1035
     28 C18         5.0283    3.0514   -3.1432 C.ar      1 <0>        -0.0764
     29 C19         6.2283    2.7053   -3.7353 C.ar      1 <0>         0.0874
     30 C20         6.2961    2.5111   -5.1125 C.ar      1 <0>         0.0957
     31 C21         5.1559    2.6649   -5.8970 C.ar      1 <0>         0.0871
     32 C22         3.9519    3.0043   -5.3093 C.ar      1 <0>        -0.0733
     33 O9          5.2258    2.4749   -7.2418 O.3       1 <0>        -0.4778
     34 O10         7.4772    2.1713   -5.6921 O.3       1 <0>        -0.4725
     35 O11         7.3439    2.5547   -2.9722 O.3       1 <0>        -0.4781
     36 H3         -0.9596    1.9089    0.0260 H         1 <0>         0.1412
     37 H4          3.3040    1.9803   -0.0197 H         1 <0>         0.1453
     38 H5         -1.5123   -0.8977   -0.8712 H         1 <0>         0.3973
     39 H6          1.2542   -2.4396    0.8593 H         1 <0>         0.3921
     40 H7          3.9506   -0.8164    0.8407 H         1 <0>         0.3917
     41 H8          1.4057    6.0611   -2.3595 H         1 <0>         0.0993
     42 H9          0.0865    5.9136   -1.1749 H         1 <0>         0.0973
     43 H10         3.3971    9.1790    0.5682 H         1 <0>         0.1392
     44 H11         3.7408    5.3648    2.4571 H         1 <0>         0.1416
     45 H12         3.9848    8.2124    3.3453 H         1 <0>         0.3966
     46 H13         0.9859    8.7570   -1.1536 H         1 <0>         0.3948
     47 H14         4.9764    3.2026   -2.0751 H         1 <0>         0.1522
     48 H15         3.0669    3.1188   -5.9176 H         1 <0>         0.1531
     49 H16         5.0544    1.5647   -7.5199 H         1 <0>         0.3927
     50 H17         7.6276    1.2177   -5.7487 H         1 <0>         0.3919
     51 H18         7.4749    1.6560   -2.6401 H         1 <0>         0.3928
@<TRIPOS>BOND
     1    1    6 ar
     2    1    2 ar
     3    1   36 1
     4    2    3 ar
     5    2   10 1
     6    3    4 ar
     7    3   37 1
     8    4    5 ar
     9    4    9 1
    10    5    6 ar
    11    5    8 1
    12    6    7 1
    13    7   38 1
    14    8   39 1
    15    9   40 1
    16   10   11 1
    17   10   21 1
    18   10   12 1
    19   12   13 1
    20   12   14 1
    21   12   24 1
    22   14   15 1
    23   14   41 1
    24   14   42 1
    25   15   20 ar
    26   15   16 ar
    27   16   17 ar
    28   16   23 1
    29   17   18 ar
    30   17   43 1
    31   18   19 ar
    32   18   22 1
    33   19   20 ar
    34   19   44 1
    35   20   21 1
    36   22   45 1
    37   23   46 1
    38   24   25 1
    39   25   26 2
    40   25   27 1
    41   27   32 ar
    42   27   28 ar
    43   28   29 ar
    44   28   47 1
    45   29   30 ar
    46   29   35 1
    47   30   31 ar
    48   30   34 1
    49   31   32 ar
    50   31   33 1
    51   32   48 1
    52   33   49 1
    53   34   50 1
    54   35   51 1
@<TRIPOS>MOLECULE
ZINC05852266
   30    32     0     0     0
SMALL
USER_CHARGES
amino-methyl-BLAHone
@<TRIPOS>ATOM
      1 C1          1.8239    5.8055   -0.3645 C.3       1 <0>         0.0696
      2 N1          1.9932    4.3661   -0.5779 N.am      1 <0>        -0.5449
      3 C2          3.0143    3.9722   -1.4420 C.ar      1 <0>         0.1174
      4 C3          3.2625    4.7333   -2.5797 C.ar      1 <0>        -0.1233
      5 C4          4.3085    4.4077   -3.4206 C.ar      1 <0>        -0.1004
      6 C5          5.1149    3.3218   -3.1352 C.ar      1 <0>        -0.1121
      7 C6          4.8664    2.5520   -2.0148 C.ar      1 <0>        -0.1039
      8 C7          3.8096    2.8662   -1.1713 C.ar      1 <0>         0.0773
      9 O1          3.5723    2.0758   -0.0950 O.3       1 <0>        -0.2606
     10 C8          2.3999    1.4016   -0.0374 C.ar      1 <0>         0.0683
     11 C9          2.4042    0.0139   -0.0382 C.ar      1 <0>        -0.0796
     12 C10         1.2145   -0.6853   -0.0156 C.ar      1 <0>        -0.1532
     13 C11         0.0021   -0.0041    0.0020 C.ar      1 <0>         0.2085
     14 C12        -0.0167    1.3798    0.0096 C.ar      1 <0>        -0.1248
     15 C13         1.1854    2.0943    0.0020 C.ar      1 <0>        -0.1128
     16 C14         1.1608    3.5619    0.0685 C.2       1 <0>         0.5650
     17 O2          0.3128    4.0779    0.7704 O.2       1 <0>        -0.5212
     18 N2         -1.2010   -0.7191    0.0125 N.pl3     1 <0>        -0.8734
     19 H1          1.1277    6.2030   -1.1030 H         1 <0>         0.0668
     20 H2          1.4304    5.9806    0.6369 H         1 <0>         0.0916
     21 H3          2.7876    6.3041   -0.4684 H         1 <0>         0.0794
     22 H4          2.6344    5.5821   -2.8064 H         1 <0>         0.1351
     23 H5          4.4969    5.0024   -4.3021 H         1 <0>         0.1355
     24 H6          5.9394    3.0752   -3.7878 H         1 <0>         0.1365
     25 H7          5.4967    1.7032   -1.7945 H         1 <0>         0.1400
     26 H8          3.3423   -0.5211   -0.0563 H         1 <0>         0.1413
     27 H9          1.2250   -1.7652   -0.0118 H         1 <0>         0.1365
     28 H10        -0.9590    1.9075    0.0170 H         1 <0>         0.1367
     29 H11        -2.0470   -0.2448    0.0251 H         1 <0>         0.4021
     30 H12        -1.1887   -1.6890    0.0072 H         1 <0>         0.4024
@<TRIPOS>BOND
     1    1    2 1
     2    1   19 1
     3    1   20 1
     4    1   21 1
     5    2   16 am
     6    2    3 1
     7    3    8 ar
     8    3    4 ar
     9    4    5 ar
    10    4   22 1
    11    5    6 ar
    12    5   23 1
    13    6    7 ar
    14    6   24 1
    15    7    8 ar
    16    7   25 1
    17    8    9 1
    18    9   10 1
    19   10   15 ar
    20   10   11 ar
    21   11   12 ar
    22   11   26 1
    23   12   13 ar
    24   12   27 1
    25   13   14 ar
    26   13   18 1
    27   14   15 ar
    28   14   28 1
    29   15   16 1
    30   16   17 2
    31   18   29 1
    32   18   30 1
@<TRIPOS>MOLECULE
ZINC00008600
   31    33     0     0     0
SMALL
USER_CHARGES
6-chloro-4-(2-cyclopropylethynyl)-4-(trifluoromethyl)-1,3-dihydroquinazolin-2-one
@<TRIPOS>ATOM
      1 C1          0.8493    5.9804    0.0250 C.ar      1 <0>        -0.0495
      2 C2         -0.2748    5.1771    0.0310 C.ar      1 <0>        -0.1439
      3 C3         -0.1372    3.7959    0.0228 C.ar      1 <0>         0.1992
      4 C4          1.1358    3.2356    0.0081 C.ar      1 <0>        -0.1460
      5 C5          2.2542    4.0362    0.0021 C.ar      1 <0>        -0.0401
      6 C6          2.1120    5.4150    0.0108 C.ar      1 <0>        -0.0625
      7 Cl1         3.5185    6.4325    0.0034 Cl        1 <0>        -0.0507
      8 C7          1.2488    1.7286   -0.0006 C.3       1 <0>         0.3214
      9 N1         -0.0111    0.9658    0.0074 N.am      1 <0>        -0.7055
     10 C8         -1.1804    1.6310    0.0164 C.2       1 <0>         0.7194
     11 O1         -2.2126    0.9883    0.0178 O.2       1 <0>        -0.5518
     12 N2         -1.2608    2.9676    0.0296 N.am      1 <0>        -0.6563
     13 C9          2.0312    1.3252    1.1793 C.1       1 <0>        -0.2422
     14 C10         2.6551    1.0035    2.1203 C.1       1 <0>        -0.0409
     15 C11         3.4374    0.6001    3.3001 C.3       1 <0>        -0.0694
     16 C12         3.3309   -0.8572    3.7539 C.3       1 <0>        -0.1576
     17 C13         2.6654    0.2508    4.5740 C.3       1 <0>        -0.1581
     18 C14         2.0389    1.3217   -1.2461 C.3       1 <0>         0.4474
     19 F1          1.2891    1.6147   -2.3902 F         1 <0>        -0.1661
     20 F2          3.2450    2.0295   -1.2850 F         1 <0>        -0.1652
     21 F3          2.3050   -0.0510   -1.2017 F         1 <0>        -0.1695
     22 H1          0.7419    7.0550    0.0318 H         1 <0>         0.1496
     23 H2         -1.2585    5.6229    0.0424 H         1 <0>         0.1505
     24 H3          3.2388    3.5925   -0.0090 H         1 <0>         0.1555
     25 H4          0.0021   -0.0041    0.0020 H         1 <0>         0.4394
     26 H5         -2.1392    3.3788    0.0402 H         1 <0>         0.4329
     27 H6          4.4022    1.0940    3.4158 H         1 <0>         0.1382
     28 H7          2.6816   -1.5172    3.1787 H         1 <0>         0.1009
     29 H8          4.2255   -1.3219    4.1684 H         1 <0>         0.1106
     30 H9          3.1224    0.5145    5.5278 H         1 <0>         0.1103
     31 H10         1.5781    0.3197    4.5384 H         1 <0>         0.0997
@<TRIPOS>BOND
     1    1    6 ar
     2    1    2 ar
     3    1   22 1
     4    2    3 ar
     5    2   23 1
     6    3   12 1
     7    3    4 ar
     8    4    5 ar
     9    4    8 1
    10    5    6 ar
    11    5   24 1
    12    6    7 1
    13    8    9 1
    14    8   13 1
    15    8   18 1
    16    9   10 am
    17    9   25 1
    18   10   11 2
    19   10   12 am
    20   12   26 1
    21   13   14 3
    22   14   15 1
    23   15   17 1
    24   15   16 1
    25   15   27 1
    26   16   17 1
    27   16   28 1
    28   16   29 1
    29   17   30 1
    30   17   31 1
    31   18   19 1
    32   18   20 1
    33   18   21 1
@<TRIPOS>MOLECULE
ZINC11677088
   30    31     0     0     0
SMALL
USER_CHARGES

@<TRIPOS>ATOM
      1 C1         -0.0184    1.5028    0.0103 C.3       1 <0>        -0.0863
      2 C2          0.0021   -0.0041    0.0020 C.2       1 <0>        -0.2528
      3 C3         -1.1526   -0.7039    0.0037 C.2       1 <0>         0.1648
      4 N1         -1.1160   -2.0718   -0.0039 N.am      1 <0>        -0.5284
      5 C4          0.0598   -2.7257   -0.0125 C.2       1 <0>         0.6946
      6 O1          0.0693   -3.9416   -0.0187 O.2       1 <0>        -0.5131
      7 N2          1.2256   -2.0531   -0.0148 N.am      1 <0>        -0.6596
      8 H1          2.0644   -2.5402   -0.0217 H         1 <0>         0.4321
      9 C5          1.2322   -0.7047   -0.0135 C.2       1 <0>         0.5529
     10 O2          2.2865   -0.0953   -0.0208 O.2       1 <0>        -0.5075
     11 C6         -2.3687   -2.8312   -0.0021 C.3       1 <0>         0.3025
     12 H2         -3.2193   -2.1584    0.1071 H         1 <0>         0.1229
     13 C7         -2.4992   -3.6565   -1.3014 C.3       1 <0>        -0.1913
     14 C8         -3.1605   -4.9757   -0.8435 C.3       1 <0>         0.0732
     15 H3         -4.1237   -5.1110   -1.3356 H         1 <0>         0.1120
     16 C9         -3.3514   -4.7913    0.6783 C.3       1 <0>         0.0597
     17 H4         -4.3537   -4.4206    0.8929 H         1 <0>         0.1015
     18 O3         -2.3620   -3.8096    1.0602 O.3       1 <0>        -0.3438
     19 C10        -3.1055   -6.1124    1.4099 C.3       1 <0>         0.0828
     20 O4         -3.3996   -5.9498    2.7988 O.3       1 <0>        -0.5677
     21 F1         -2.3200   -6.0626   -1.1067 F         1 <0>        -0.1907
     22 H5          1.0042    1.8801    0.0026 H         1 <0>         0.0819
     23 H6         -0.5455    1.8639   -0.8728 H         1 <0>         0.0722
     24 H7         -0.5286    1.8543    0.9071 H         1 <0>         0.0724
     25 H8         -2.1006   -0.1866    0.0113 H         1 <0>         0.1805
     26 H9         -3.1353   -3.1397   -2.0199 H         1 <0>         0.1074
     27 H10        -1.5163   -3.8510   -1.7306 H         1 <0>         0.1071
     28 H11        -3.7492   -6.8855    0.9903 H         1 <0>         0.0677
     29 H12        -2.0621   -6.4046    1.2913 H         1 <0>         0.0673
     30 H13        -3.2657   -6.7496    3.3255 H         1 <0>         0.3860
@<TRIPOS>BOND
     1    1    2 1
     2    1   22 1
     3    1   23 1
     4    1   24 1
     5    2    9 1
     6    2    3 2
     7    3    4 1
     8    3   25 1
     9    4    5 am
    10    4   11 1
    11    5    6 2
    12    5    7 am
    13    7    8 1
    14    7    9 am
    15    9   10 2
    16   11   12 1
    17   11   18 1
    18   11   13 1
    19   13   14 1
    20   13   26 1
    21   13   27 1
    22   14   15 1
    23   14   16 1
    24   14   21 1
    25   16   17 1
    26   16   18 1
    27   16   19 1
    28   19   20 1
    29   19   28 1
    30   19   29 1
    31   20   30 1
@<TRIPOS>MOLECULE
ZINC00008126
   32    35     0     0     0
SMALL
USER_CHARGES
phenylBLAHone
@<TRIPOS>ATOM
      1 C1         -3.5941    5.2409    3.9319 C.ar      1 <0>        -0.1072
      2 C2         -3.1717    6.0608    2.9023 C.ar      1 <0>        -0.1200
      3 C3         -2.8739    5.5197    1.6656 C.ar      1 <0>        -0.0855
      4 C4         -2.9990    4.1587    1.4584 C.ar      1 <0>        -0.1137
      5 C5         -3.4268    3.3395    2.4864 C.ar      1 <0>        -0.0970
      6 C6         -3.7192    3.8799    3.7248 C.ar      1 <0>        -0.1187
      7 C7         -2.6747    3.5688    0.1101 C.3       1 <0>         0.3664
      8 C8         -1.2331    3.1575    0.0517 C.ar      1 <0>        -0.0692
      9 C9         -0.0447    3.8510    0.0361 C.ar      1 <0>        -0.0811
     10 C10         1.1582    3.1664    0.0090 C.ar      1 <0>        -0.0862
     11 C11         1.1720    1.7826    0.0004 C.ar      1 <0>        -0.1162
     12 C12        -0.0126    1.0758    0.0080 C.ar      1 <0>        -0.0459
     13 C13        -1.2292    1.7576    0.0174 C.ar      1 <0>        -0.1475
     14 C14        -2.6327    1.2919    0.0060 C.2       1 <0>         0.6016
     15 O1         -2.9858    0.1333    0.1079 O.2       1 <0>        -0.5059
     16 N1         -3.4515    2.3316   -0.1375 N.am      1 <0>        -0.6333
     17 C15        -4.7739    2.8696   -0.5092 C.3       1 <0>         0.1111
     18 C16        -4.3951    4.1256   -1.3329 C.3       1 <0>         0.0374
     19 O2         -3.0532    4.4695   -0.9319 O.3       1 <0>        -0.3497
     20 H1         -3.8261    5.6636    4.8983 H         1 <0>         0.1261
     21 H2         -3.0740    7.1242    3.0641 H         1 <0>         0.1281
     22 H3         -2.5438    6.1603    0.8612 H         1 <0>         0.1307
     23 H4         -3.5288    2.2768    2.3233 H         1 <0>         0.1185
     24 H5         -4.0489    3.2393    4.5293 H         1 <0>         0.1262
     25 H6         -0.0504    4.9309    0.0447 H         1 <0>         0.1341
     26 H7          2.0889    3.7141   -0.0059 H         1 <0>         0.1383
     27 H8          2.1138    1.2541   -0.0125 H         1 <0>         0.1389
     28 H9          0.0021   -0.0041    0.0020 H         1 <0>         0.1375
     29 H10        -5.3445    3.1447    0.3779 H         1 <0>         0.0936
     30 H11        -5.3286    2.1574   -1.1201 H         1 <0>         0.1046
     31 H12        -5.0772    4.9446   -1.1048 H         1 <0>         0.0934
     32 H13        -4.4227    3.8999   -2.3990 H         1 <0>         0.0907
@<TRIPOS>BOND
     1    1    6 ar
     2    1    2 ar
     3    1   20 1
     4    2    3 ar
     5    2   21 1
     6    3    4 ar
     7    3   22 1
     8    4    5 ar
     9    4    7 1
    10    5    6 ar
    11    5   23 1
    12    6   24 1
    13    7   16 1
    14    7   19 1
    15    7    8 1
    16    8   13 ar
    17    8    9 ar
    18    9   10 ar
    19    9   25 1
    20   10   11 ar
    21   10   26 1
    22   11   12 ar
    23   11   27 1
    24   12   13 ar
    25   12   28 1
    26   13   14 1
    27   14   15 2
    28   14   16 am
    29   16   17 1
    30   17   18 1
    31   17   29 1
    32   17   30 1
    33   18   19 1
    34   18   31 1
    35   18   32 1
@<TRIPOS>MOLECULE
ZINC03786476
   32    35     0     0     0
SMALL
USER_CHARGES
phenylBLAHone
@<TRIPOS>ATOM
      1 C1         -0.0167    1.3781    0.0096 C.ar      1 <0>        -0.1074
      2 C2          1.1709    2.0855    0.0021 C.ar      1 <0>        -0.1189
      3 C3          2.3773    1.4107   -0.0145 C.ar      1 <0>        -0.0985
      4 C4          2.3960    0.0285   -0.0217 C.ar      1 <0>        -0.1146
      5 C5          1.2084   -0.6789   -0.0132 C.ar      1 <0>        -0.0851
      6 C6          0.0021   -0.0041    0.0020 C.ar      1 <0>        -0.1199
      7 C7          3.7112   -0.7071   -0.0382 C.3       1 <0>         0.3645
      8 C8          4.1339   -1.0543    1.3586 C.ar      1 <0>        -0.0686
      9 C9          3.6743   -1.9477    2.2990 C.ar      1 <0>        -0.0816
     10 C10         4.2802   -2.0205    3.5415 C.ar      1 <0>        -0.0862
     11 C11         5.3497   -1.1961    3.8445 C.ar      1 <0>        -0.1164
     12 C12         5.8261   -0.3030    2.9073 C.ar      1 <0>        -0.0458
     13 C13         5.2279   -0.2306    1.6492 C.ar      1 <0>        -0.1472
     14 C14         5.5373    0.5701    0.4450 C.2       1 <0>         0.6015
     15 O1          6.3565    1.4666    0.3937 O.2       1 <0>        -0.5070
     16 N1          4.7842    0.1628   -0.5742 N.am      1 <0>        -0.6328
     17 C15         4.5252    0.1080   -2.0256 C.3       1 <0>         0.1121
     18 C16         4.0903   -1.3657   -2.2231 C.3       1 <0>         0.0351
     19 O2          3.6397   -1.8353   -0.9111 O.3       1 <0>        -0.3486
     20 H1         -0.9592    1.9054    0.0170 H         1 <0>         0.1260
     21 H2          1.1563    3.1654    0.0081 H         1 <0>         0.1261
     22 H3          3.3051    1.9634   -0.0208 H         1 <0>         0.1198
     23 H4          1.2231   -1.7588   -0.0188 H         1 <0>         0.1295
     24 H5         -0.9258   -0.5567    0.0083 H         1 <0>         0.1280
     25 H6          2.8400   -2.5931    2.0672 H         1 <0>         0.1340
     26 H7          3.9167   -2.7227    4.2771 H         1 <0>         0.1382
     27 H8          5.8129   -1.2520    4.8185 H         1 <0>         0.1389
     28 H9          6.6612    0.3385    3.1469 H         1 <0>         0.1375
     29 H10         3.7218    0.7905   -2.3028 H         1 <0>         0.0938
     30 H11         5.4312    0.3278   -2.5903 H         1 <0>         0.1053
     31 H12         3.2732   -1.4235   -2.9422 H         1 <0>         0.0957
     32 H13         4.9349   -1.9646   -2.5639 H         1 <0>         0.0926
@<TRIPOS>BOND
     1    1    6 ar
     2    1    2 ar
     3    1   20 1
     4    2    3 ar
     5    2   21 1
     6    3    4 ar
     7    3   22 1
     8    4    5 ar
     9    4    7 1
    10    5    6 ar
    11    5   23 1
    12    6   24 1
    13    7   16 1
    14    7   19 1
    15    7    8 1
    16    8   13 ar
    17    8    9 ar
    18    9   10 ar
    19    9   25 1
    20   10   11 ar
    21   10   26 1
    22   11   12 ar
    23   11   27 1
    24   12   13 ar
    25   12   28 1
    26   13   14 1
    27   14   15 2
    28   14   16 am
    29   16   17 1
    30   17   18 1
    31   17   29 1
    32   17   30 1
    33   18   19 1
    34   18   31 1
    35   18   32 1
@<TRIPOS>MOLECULE
ZINC00306266
   33    34     0     0     0
SMALL
USER_CHARGES

@<TRIPOS>ATOM
      1 C1         -0.0051    1.3978    0.0082 C.ar      1 <0>        -0.1182
      2 C2          1.1839    2.1029    0.0038 C.ar      1 <0>        -0.1175
      3 C3          2.3889    1.4257   -0.0111 C.ar      1 <0>        -0.1117
      4 C4          2.4049    0.0435   -0.0211 C.ar      1 <0>        -0.0852
      5 C5          1.2159   -0.6616   -0.0157 C.ar      1 <0>        -0.1117
      6 C6          0.0109    0.0156   -0.0023 C.ar      1 <0>        -0.1175
      7 C7          3.7186   -0.6947   -0.0383 C.3       1 <0>        -0.0923
      8 C8          4.1763   -0.9548    1.3983 C.3       1 <0>         0.1298
      9 N1          5.4534   -1.6725    1.3816 N.pl3     1 <0>        -0.6851
     10 C9          6.0514   -2.0109    2.5410 C.2       1 <0>         0.5230
     11 S1          5.3187   -1.6021    4.0333 S.2       1 <0>        -0.5093
     12 N2          7.2263   -2.6711    2.5257 N.pl3     1 <0>        -0.6193
     13 C10         7.8982   -2.9254    3.7195 C.ar      1 <0>         0.3364
     14 C11         9.1591   -3.5111    3.6892 C.ar      1 <0>        -0.1991
     15 C12         9.8151   -3.7581    4.8819 C.ar      1 <0>        -0.0546
     16 C13         9.1850   -3.4094    6.0691 C.ar      1 <0>        -0.1934
     17 C14         7.9322   -2.8311    6.0249 C.ar      1 <0>         0.1191
     18 N3          7.3328   -2.6024    4.8719 N.ar      1 <0>        -0.4121
     19 H1         -0.9465    1.9269    0.0243 H         1 <0>         0.1229
     20 H2          1.1714    3.1828    0.0116 H         1 <0>         0.1236
     21 H3          3.3179    1.9766   -0.0153 H         1 <0>         0.1222
     22 H4          1.2284   -1.7415   -0.0239 H         1 <0>         0.1222
     23 H5         -0.9181   -0.5352    0.0015 H         1 <0>         0.1236
     24 H6          3.5947   -1.6449   -0.5578 H         1 <0>         0.0798
     25 H7          4.4667   -0.0932   -0.5547 H         1 <0>         0.0798
     26 H8          4.3003   -0.0047    1.9178 H         1 <0>         0.0903
     27 H9          3.4283   -1.5564    1.9147 H         1 <0>         0.0902
     28 H10         5.8686   -1.9041    0.5361 H         1 <0>         0.3949
     29 H11         7.6041   -2.9693    1.6835 H         1 <0>         0.4076
     30 H12         9.6199   -3.7699    2.7473 H         1 <0>         0.1307
     31 H13        10.7950   -4.2121    4.8894 H         1 <0>         0.1374
     32 H14         9.6698   -3.5892    7.0172 H         1 <0>         0.1339
     33 H15         7.4381   -2.5586    6.9458 H         1 <0>         0.1595
@<TRIPOS>BOND
     1    1    6 ar
     2    1    2 ar
     3    1   19 1
     4    2    3 ar
     5    2   20 1
     6    3    4 ar
     7    3   21 1
     8    4    5 ar
     9    4    7 1
    10    5    6 ar
    11    5   22 1
    12    6   23 1
    13    7    8 1
    14    7   24 1
    15    7   25 1
    16    8    9 1
    17    8   26 1
    18    8   27 1
    19    9   10 1
    20    9   28 1
    21   10   11 2
    22   10   12 1
    23   12   13 1
    24   12   29 1
    25   13   18 ar
    26   13   14 ar
    27   14   15 ar
    28   14   30 1
    29   15   16 ar
    30   15   31 1
    31   16   17 ar
    32   16   32 1
    33   17   18 ar
    34   17   33 1
@<TRIPOS>MOLECULE
ZINC12487116
   33    34     0     0     0
SMALL
USER_CHARGES

@<TRIPOS>ATOM
      1 C1         -0.0051    1.3978    0.0082 C.ar      1 <0>        -0.1178
      2 C2          1.1839    2.1029    0.0038 C.ar      1 <0>        -0.1174
      3 C3          2.3889    1.4257   -0.0111 C.ar      1 <0>        -0.1115
      4 C4          2.4049    0.0435   -0.0211 C.ar      1 <0>        -0.0859
      5 C5          1.2159   -0.6616   -0.0157 C.ar      1 <0>        -0.1115
      6 C6          0.0109    0.0156   -0.0023 C.ar      1 <0>        -0.1174
      7 C7          3.7186   -0.6947   -0.0383 C.3       1 <0>        -0.0922
      8 C8          4.1763   -0.9548    1.3983 C.3       1 <0>         0.1287
      9 N1          5.4534   -1.6725    1.3816 N.pl3     1 <0>        -0.6821
     10 C9          6.0514   -2.0109    2.5410 C.2       1 <0>         0.5204
     11 S1          5.3187   -1.6021    4.0333 S.2       1 <0>        -0.4993
     12 N2          7.2263   -2.6711    2.5257 N.pl3     1 <0>        -0.6189
     13 C10         7.8984   -2.9255    3.7198 C.ar      1 <0>         0.3541
     14 C11         9.1593   -3.5111    3.6892 C.ar      1 <0>        -0.1930
     15 C12         9.8156   -3.7583    4.8816 C.ar      1 <0>        -0.0242
     16 C13         9.1854   -3.4096    6.0696 C.ar      1 <0>        -0.1688
     17 C14         7.9319   -2.8309    6.0252 C.ar      1 <0>         0.1559
     18 N3          7.3328   -2.6024    4.8720 N.ar      1 <0>        -0.4031
     19 Br1        10.0344   -3.7243    7.7298 Br        1 <0>        -0.0380
     20 H1         -0.9465    1.9269    0.0243 H         1 <0>         0.1231
     21 H2          1.1714    3.1828    0.0116 H         1 <0>         0.1238
     22 H3          3.3179    1.9766   -0.0153 H         1 <0>         0.1222
     23 H4          1.2284   -1.7415   -0.0239 H         1 <0>         0.1222
     24 H5         -0.9181   -0.5352    0.0015 H         1 <0>         0.1238
     25 H6          3.5947   -1.6449   -0.5578 H         1 <0>         0.0801
     26 H7          4.4667   -0.0932   -0.5547 H         1 <0>         0.0801
     27 H8          4.3003   -0.0047    1.9178 H         1 <0>         0.0914
     28 H9          3.4283   -1.5564    1.9147 H         1 <0>         0.0912
     29 H10         5.8686   -1.9041    0.5361 H         1 <0>         0.3960
     30 H11         7.6041   -2.9693    1.6835 H         1 <0>         0.4099
     31 H12         9.6198   -3.7699    2.7472 H         1 <0>         0.1413
     32 H13        10.7955   -4.2124    4.8889 H         1 <0>         0.1483
     33 H14         7.4377   -2.5580    6.9460 H         1 <0>         0.1686
@<TRIPOS>BOND
     1    1    6 ar
     2    1    2 ar
     3    1   20 1
     4    2    3 ar
     5    2   21 1
     6    3    4 ar
     7    3   22 1
     8    4    5 ar
     9    4    7 1
    10    5    6 ar
    11    5   23 1
    12    6   24 1
    13    7    8 1
    14    7   25 1
    15    7   26 1
    16    8    9 1
    17    8   27 1
    18    8   28 1
    19    9   10 1
    20    9   29 1
    21   10   11 2
    22   10   12 1
    23   12   13 1
    24   12   30 1
    25   13   18 ar
    26   13   14 ar
    27   14   15 ar
    28   14   31 1
    29   15   16 ar
    30   15   32 1
    31   16   17 ar
    32   16   19 1
    33   17   18 ar
    34   17   33 1
@<TRIPOS>MOLECULE
ZINC06143164
   37    38     0     0     0
SMALL
USER_CHARGES
1-(2-hydroxyethoxymethyl)-5-methyl-6-phenylsulfanyl-pyrimidine-2,4-dione
@<TRIPOS>ATOM
      1 C1         -0.8005   -2.7510    0.2271 C.3       1 <0>        -0.0949
      2 C2         -1.8969   -1.7173    0.2482 C.2       1 <0>        -0.1854
      3 C3         -3.2335   -2.1013    0.4354 C.2       1 <0>         0.5576
      4 O1         -3.5186   -3.2776    0.5829 O.2       1 <0>        -0.5009
      5 N1         -4.2002   -1.1627    0.4508 N.am      1 <0>        -0.6696
      6 H1         -5.2501   -1.4568    0.5967 H         1 <0>         0.4637
      7 C4         -3.8950    0.1375    0.2889 C.2       1 <0>         0.6998
      8 O2         -4.7831    0.9677    0.3066 O.2       1 <0>        -0.5411
      9 N2         -2.6210    0.5335    0.1124 N.am      1 <0>        -0.5360
     10 C5         -1.6034   -0.3912    0.0845 C.2       1 <0>         0.1319
     11 S1          0.0636    0.1280   -0.1523 S.3       1 <0>         0.0889
     12 C6          0.3716    0.8889    1.4068 C.ar      1 <0>        -0.1233
     13 C7         -0.5741    0.8055    2.4211 C.ar      1 <0>        -0.1264
     14 C8         -0.3275    1.3989    3.6434 C.ar      1 <0>        -0.0982
     15 C9          0.8548    2.0846    3.8549 C.ar      1 <0>        -0.1129
     16 C10         1.7961    2.1739    2.8457 C.ar      1 <0>        -0.0985
     17 C11         1.5582    1.5784    1.6227 C.ar      1 <0>        -0.0891
     18 C12        -2.3171    1.9567   -0.0563 C.3       1 <0>         0.2606
     19 O3         -2.0045    2.2180   -1.4260 O.3       1 <0>        -0.3564
     20 C13        -3.1500    2.3214   -2.2740 C.3       1 <0>         0.0534
     21 C14        -2.6966    2.5320   -3.7201 C.3       1 <0>         0.0887
     22 O4         -1.9945    1.3726   -4.1728 O.3       1 <0>        -0.5950
     23 H2         -1.2359   -3.7503    0.3745 H         1 <0>         0.0871
     24 H3         -0.0830   -2.5410    1.0340 H         1 <0>         0.0825
     25 H4         -0.2824   -2.7162   -0.7426 H         1 <0>         0.0818
     26 H5         -1.4995    0.2741    2.2550 H         1 <0>         0.1167
     27 H6         -1.0606    1.3313    4.4335 H         1 <0>         0.1282
     28 H7          1.0433    2.5515    4.8103 H         1 <0>         0.1293
     29 H8          2.7185    2.7098    3.0143 H         1 <0>         0.1330
     30 H9          2.2936    1.6489    0.8349 H         1 <0>         0.1328
     31 H10        -3.1903    2.5558    0.2412 H         1 <0>         0.1090
     32 H11        -1.4564    2.2251    0.5739 H         1 <0>         0.1298
     33 H12        -3.7412    1.3962   -2.2061 H         1 <0>         0.0547
     34 H13        -3.7665    3.1747   -1.9550 H         1 <0>         0.0741
     35 H14        -3.5759    2.7010   -4.3591 H         1 <0>         0.0590
     36 H15        -2.0319    3.4069   -3.7723 H         1 <0>         0.0544
     37 H16        -1.5903    1.3387   -5.1953 H         1 <0>         0.4104
@<TRIPOS>BOND
     1    1    2 1
     2    1   23 1
     3    1   24 1
     4    1   25 1
     5    2   10 2
     6    2    3 1
     7    3    4 2
     8    3    5 am
     9    5    6 1
    10    5    7 am
    11    7    8 2
    12    7    9 am
    13    9   10 1
    14    9   18 1
    15   10   11 1
    16   11   12 1
    17   12   17 ar
    18   12   13 ar
    19   13   14 ar
    20   13   26 1
    21   14   15 ar
    22   14   27 1
    23   15   16 ar
    24   15   28 1
    25   16   17 ar
    26   16   29 1
    27   17   30 1
    28   18   19 1
    29   18   31 1
    30   18   32 1
    31   19   20 1
    32   20   21 1
    33   20   33 1
    34   20   34 1
    35   21   22 1
    36   21   35 1
    37   21   36 1
    38   22   37 1
@<TRIPOS>MOLECULE
ZINC13744909
   32    33     0     0     0
SMALL
USER_CHARGES
1-phenethyl-3-pyrazin-2-yl-thiourea
@<TRIPOS>ATOM
      1 C1         -0.0341    4.2670    0.0236 C.ar      1 <0>        -0.1177
      2 C2          1.1711    3.5900    0.0115 C.ar      1 <0>        -0.1174
      3 C3          1.1872    2.2077    0.0045 C.ar      1 <0>        -0.1116
      4 C4         -0.0017    1.5026    0.0093 C.ar      1 <0>        -0.0859
      5 C5         -1.2069    2.1796    0.0156 C.ar      1 <0>        -0.1116
      6 C6         -1.2230    3.5619    0.0279 C.ar      1 <0>        -0.1174
      7 C7          0.0159   -0.0043    0.0012 C.3       1 <0>        -0.0922
      8 C8          0.0321   -0.5218    1.4410 C.3       1 <0>         0.1286
      9 N1          0.0493   -1.9867    1.4332 N.pl3     1 <0>        -0.6815
     10 C9          0.0654   -2.6666    2.5967 C.2       1 <0>         0.5222
     11 S1          0.0659   -1.8185    4.0839 S.2       1 <0>        -0.5062
     12 N2          0.0812   -4.0143    2.5896 N.pl3     1 <0>        -0.6140
     13 C10         0.2073   -4.7159    3.7867 C.ar      1 <0>         0.2903
     14 C11         0.3310   -6.1029    3.7733 C.ar      1 <0>         0.0314
     15 N3          0.4502   -6.7636    4.9092 N.ar      1 <0>        -0.4166
     16 C12         0.4521   -6.1101    6.0591 C.ar      1 <0>         0.0203
     17 C13         0.3295   -4.7337    6.0761 C.ar      1 <0>         0.0737
     18 N4          0.2152   -4.0641    4.9417 N.ar      1 <0>        -0.3694
     19 H1         -0.0467    5.3469    0.0294 H         1 <0>         0.1231
     20 H2          2.1000    4.1409    0.0078 H         1 <0>         0.1238
     21 H3          2.1288    1.6788   -0.0050 H         1 <0>         0.1222
     22 H4         -2.1358    1.6287    0.0148 H         1 <0>         0.1223
     23 H5         -2.1646    4.0908    0.0370 H         1 <0>         0.1238
     24 H6         -0.8734   -0.3754   -0.5083 H         1 <0>         0.0803
     25 H7          0.9064   -0.3545   -0.5208 H         1 <0>         0.0803
     26 H8          0.9214   -0.1508    1.9505 H         1 <0>         0.0914
     27 H9         -0.8584   -0.1717    1.9630 H         1 <0>         0.0912
     28 H10         0.0490   -2.4673    0.5906 H         1 <0>         0.3966
     29 H11         0.0048   -4.4958    1.7510 H         1 <0>         0.4116
     30 H12         0.3299   -6.6369    2.8346 H         1 <0>         0.1647
     31 H13         0.5501   -6.6536    6.9872 H         1 <0>         0.1701
     32 H14         0.3318   -4.2037    7.0171 H         1 <0>         0.1737
@<TRIPOS>BOND
     1    1    6 ar
     2    1    2 ar
     3    1   19 1
     4    2    3 ar
     5    2   20 1
     6    3    4 ar
     7    3   21 1
     8    4    5 ar
     9    4    7 1
    10    5    6 ar
    11    5   22 1
    12    6   23 1
    13    7    8 1
    14    7   24 1
    15    7   25 1
    16    8    9 1
    17    8   26 1
    18    8   27 1
    19    9   10 1
    20    9   28 1
    21   10   11 2
    22   10   12 1
    23   12   13 1
    24   12   29 1
    25   13   18 ar
    26   13   14 ar
    27   14   15 ar
    28   14   30 1
    29   15   16 ar
    30   16   17 ar
    31   16   31 1
    32   17   18 ar
    33   17   32 1
@<TRIPOS>MOLECULE
ZINC05842240
   40    42     0     0     0
SMALL
USER_CHARGES
ethyl-(2-hydroxyethyl)-methyl-BLAHone
@<TRIPOS>ATOM
      1 C1         -0.0127    1.0858    0.0080 C.3       1 <0>        -0.1707
      2 C2         -0.7288    1.5792    1.2668 C.3       1 <0>         0.1374
      3 N1         -0.0203    1.0939    2.4537 N.pl3     1 <0>        -0.5799
      4 C3         -0.3639   -0.1283    3.0296 C.ar      1 <0>         0.3618
      5 C4          0.5631   -1.1703    3.0966 C.ar      1 <0>         0.0915
      6 C5          0.2055   -2.3491    3.7420 C.ar      1 <0>        -0.0835
      7 C6         -1.0771   -2.4591    4.2616 C.ar      1 <0>        -0.1542
      8 C7         -1.9538   -1.4032    4.1199 C.ar      1 <0>         0.1105
      9 N2         -1.5817   -0.2892    3.5192 N.ar      1 <0>        -0.4751
     10 N3          1.8306   -1.0623    2.5277 N.am      1 <0>        -0.5381
     11 C8          2.6159    0.0050    2.5386 C.2       1 <0>         0.5772
     12 O1          3.7067   -0.1045    2.0129 O.2       1 <0>        -0.5245
     13 C9          2.2865    1.3054    3.1283 C.ar      1 <0>        -0.1972
     14 C10         0.9948    1.8464    3.0200 C.ar      1 <0>         0.4156
     15 N4          0.7424    3.0666    3.4686 N.ar      1 <0>        -0.4958
     16 C11         1.6670    3.7943    4.0644 C.ar      1 <0>         0.1578
     17 C12         2.9494    3.3110    4.2490 C.ar      1 <0>        -0.1563
     18 C13         3.2763    2.0509    3.7785 C.ar      1 <0>         0.0044
     19 C14         3.9827    4.1495    4.9563 C.3       1 <0>        -0.0730
     20 C15         4.7301    5.0077    3.9336 C.3       1 <0>         0.0791
     21 O2          5.7100    5.8028    4.6043 O.3       1 <0>        -0.5742
     22 C16         2.3486   -2.2519    1.8476 C.3       1 <0>         0.0587
     23 H1          0.0021   -0.0041    0.0020 H         1 <0>         0.0539
     24 H2          1.0099    1.4631    0.0003 H         1 <0>         0.0537
     25 H3         -0.5399    1.4469   -0.8751 H         1 <0>         0.0726
     26 H4         -0.7436    2.6691    1.2728 H         1 <0>         0.0836
     27 H5         -1.7514    1.2020    1.2746 H         1 <0>         0.0837
     28 H6          0.9104   -3.1618    3.8367 H         1 <0>         0.1465
     29 H7         -1.3849   -3.3603    4.7711 H         1 <0>         0.1479
     30 H8         -2.9587   -1.4901    4.5057 H         1 <0>         0.1667
     31 H9          1.4182    4.7853    4.4142 H         1 <0>         0.1680
     32 H10         4.2714    1.6524    3.9103 H         1 <0>         0.1487
     33 H11         3.4907    4.7961    5.6829 H         1 <0>         0.0882
     34 H12         4.6898    3.4980    5.4699 H         1 <0>         0.0854
     35 H13         5.2222    4.3611    3.2071 H         1 <0>         0.0488
     36 H14         4.0231    5.6592    3.4201 H         1 <0>         0.0492
     37 H15         6.2232    6.3734    4.0160 H         1 <0>         0.3843
     38 H16         3.3407   -2.0395    1.4491 H         1 <0>         0.1063
     39 H17         2.4110   -3.0775    2.5565 H         1 <0>         0.0710
     40 H18         1.6797   -2.5239    1.0311 H         1 <0>         0.0701
@<TRIPOS>BOND
     1    1    2 1
     2    1   23 1
     3    1   24 1
     4    1   25 1
     5    2    3 1
     6    2   26 1
     7    2   27 1
     8    3   14 1
     9    3    4 1
    10    4    9 ar
    11    4    5 ar
    12    5    6 ar
    13    5   10 1
    14    6    7 ar
    15    6   28 1
    16    7    8 ar
    17    7   29 1
    18    8    9 ar
    19    8   30 1
    20   10   11 am
    21   10   22 1
    22   11   12 2
    23   11   13 1
    24   13   18 ar
    25   13   14 ar
    26   14   15 ar
    27   15   16 ar
    28   16   17 ar
    29   16   31 1
    30   17   18 ar
    31   17   19 1
    32   18   32 1
    33   19   20 1
    34   19   33 1
    35   19   34 1
    36   20   21 1
    37   20   35 1
    38   20   36 1
    39   21   37 1
    40   22   38 1
    41   22   39 1
    42   22   40 1
@<TRIPOS>MOLECULE
ZINC03808299
   39    42     0     0     0
SMALL
USER_CHARGES

@<TRIPOS>ATOM
      1 C1         -0.0178    1.4608    0.0101 C.3       1 <0>         0.1224
      2 N1          0.0021   -0.0041    0.0020 N.pl3     1 <0>        -0.3937
      3 C2         -1.1811   -0.6985    0.0039 C.ar      1 <0>         0.4502
      4 C3         -1.0956   -2.0790   -0.0052 C.ar      1 <0>        -0.2894
      5 C4          0.1617   -2.8229   -0.0165 C.2       1 <0>        -0.1638
      6 C5         -0.2181   -4.1146   -0.0225 C.2       1 <0>         0.1003
      7 N2         -1.6008   -4.1990   -0.0155 N.pl3     1 <0>        -0.4482
      8 C6         -2.1630   -2.9559   -0.0045 C.ar      1 <0>         0.3809
      9 N3         -3.3618   -2.3641    0.0060 N.ar      1 <0>        -0.5471
     10 C7         -3.4440   -1.0459    0.0144 C.ar      1 <0>         0.3618
     11 N4         -2.4137   -0.2052    0.0138 N.ar      1 <0>        -0.5778
     12 C8         -2.3572   -5.4536   -0.0194 C.3       1 <0>         0.3083
     13 H1         -3.2605   -5.3531    0.5823 H         1 <0>         0.1228
     14 C9         -2.7168   -5.8603   -1.4656 C.3       1 <0>         0.0779
     15 H2         -2.0162   -5.4162   -2.1727 H         1 <0>         0.0858
     16 C10        -2.5844   -7.3997   -1.4667 C.3       1 <0>         0.0474
     17 H3         -1.8183   -7.7166   -2.1743 H         1 <0>         0.0862
     18 C11        -2.1605   -7.7410   -0.0210 C.3       1 <0>         0.0496
     19 H4         -3.0335   -7.9932    0.5810 H         1 <0>         0.0999
     20 O1         -1.5395   -6.5352    0.4781 O.3       1 <0>        -0.3463
     21 C12        -1.1605   -8.8990   -0.0185 C.3       1 <0>         0.0825
     22 O2         -0.8707   -9.2751    1.3293 O.3       1 <0>        -0.5633
     23 O3         -3.8378   -8.0098   -1.7811 O.3       1 <0>        -0.5386
     24 O4         -4.0557   -5.4699   -1.7773 O.3       1 <0>        -0.5259
     25 C13         1.3729   -1.9823   -0.0181 C.2       1 <0>         0.4530
     26 N5          1.2300   -0.6806   -0.0133 N.2       1 <0>        -0.3424
     27 N6          2.6386   -2.5588   -0.0276 N.pl3     1 <0>        -0.8278
     28 H5          1.0048    1.8381    0.0023 H         1 <0>         0.0890
     29 H6         -0.5450    1.8219   -0.8730 H         1 <0>         0.0713
     30 H7         -0.5280    1.8123    0.9069 H         1 <0>         0.0715
     31 H8          0.4550   -4.9591   -0.0320 H         1 <0>         0.1861
     32 H9         -4.4335   -0.6133    0.0228 H         1 <0>         0.2008
     33 H10        -1.5883   -9.7496   -0.5491 H         1 <0>         0.0669
     34 H11        -0.2414   -8.5864   -0.5141 H         1 <0>         0.0601
     35 H12        -0.2418  -10.0056    1.4072 H         1 <0>         0.3865
     36 H13        -3.8121   -8.9764   -1.7956 H         1 <0>         0.3871
     37 H14        -4.3341   -5.7010   -2.6740 H         1 <0>         0.3908
     38 H15         2.7318   -3.5243   -0.0333 H         1 <0>         0.4144
     39 H16         3.4282   -1.9953   -0.0286 H         1 <0>         0.4106
@<TRIPOS>BOND
     1    1    2 1
     2    1   28 1
     3    1   29 1
     4    1   30 1
     5    2   26 1
     6    2    3 1
     7    3   11 ar
     8    3    4 ar
     9    4    8 ar
    10    4    5 1
    11    5    6 2
    12    5   25 1
    13    6    7 1
    14    6   31 1
    15    7    8 1
    16    7   12 1
    17    8    9 ar
    18    9   10 ar
    19   10   11 ar
    20   10   32 1
    21   12   13 1
    22   12   20 1
    23   12   14 1
    24   14   15 1
    25   14   16 1
    26   14   24 1
    27   16   17 1
    28   16   18 1
    29   16   23 1
    30   18   19 1
    31   18   20 1
    32   18   21 1
    33   21   22 1
    34   21   33 1
    35   21   34 1
    36   22   35 1
    37   23   36 1
    38   24   37 1
    39   25   26 2
    40   25   27 1
    41   27   38 1
    42   27   39 1
@<TRIPOS>MOLECULE
ZINC01537824
   54    57     0     0     0
SMALL
USER_CHARGES
7-(4-imidazol-1-yl-9-methyl-5,6,8-triazabicyclo[4.3.0]nona-2,4,7,9-tetraen-7-yl)-1-phenyl-heptan-1-one
@<TRIPOS>ATOM
      1 C1         -7.0709   -9.2726    1.6700 C.3       1 <0>        -0.0745
      2 C2         -6.0637   -8.6618    0.7300 C.2       1 <0>         0.0810
      3 C3         -6.1175   -8.6786   -0.6501 C.2       1 <0>        -0.0936
      4 C4         -7.0231   -9.2084   -1.5883 C.2       1 <0>         0.0457
      5 C5         -6.7707   -9.0442   -2.9141 C.2       1 <0>        -0.2280
      6 C6         -5.6176   -8.3522   -3.3334 C.2       1 <0>         0.4010
      7 N1         -4.7718   -7.8576   -2.4643 N.2       1 <0>        -0.2938
      8 N2         -4.9944   -8.0048   -1.0916 N.pl3     1 <0>        -0.2587
      9 C7         -4.3164   -7.6132    0.0024 C.2       1 <0>         0.2588
     10 N3         -4.9539   -8.0113    1.0769 N.2       1 <0>        -0.4552
     11 C8         -3.0217   -6.8420   -0.0058 C.3       1 <0>        -0.0362
     12 C9         -3.3217   -5.3417    0.0051 C.3       1 <0>        -0.1111
     13 C10        -2.0072   -4.5588   -0.0033 C.3       1 <0>        -0.1179
     14 C11        -2.3072   -3.0585    0.0077 C.3       1 <0>        -0.1195
     15 C12        -0.9927   -2.2755   -0.0007 C.3       1 <0>        -0.1129
     16 C13        -1.2926   -0.7753    0.0102 C.3       1 <0>        -0.1581
     17 C14         0.0021   -0.0041    0.0020 C.2       1 <0>         0.3943
     18 O1          1.0602   -0.5960   -0.0113 O.2       1 <0>        -0.4492
     19 C15        -0.0179    1.4674    0.0101 C.ar      1 <0>        -0.1735
     20 C16        -1.2364    2.1538    0.0196 C.ar      1 <0>        -0.0738
     21 C17        -1.2467    3.5326    0.0330 C.ar      1 <0>        -0.1333
     22 C18        -0.0554    4.2372    0.0259 C.ar      1 <0>        -0.0877
     23 C19         1.1544    3.5653    0.0102 C.ar      1 <0>        -0.1324
     24 C20         1.1815    2.1867    0.0025 C.ar      1 <0>        -0.0622
     25 N4         -5.3717   -8.1909   -4.7009 N.pl3     1 <0>        -0.4106
     26 C21        -4.3010   -7.5465   -5.2666 C.2       1 <0>        -0.0319
     27 C22        -4.4586   -7.6267   -6.6012 C.2       1 <0>        -0.0160
     28 N5         -5.5919   -8.3000   -6.8499 N.2       1 <0>        -0.4686
     29 C23        -6.1452   -8.6480   -5.7206 C.2       1 <0>         0.2072
     30 H1         -6.7876  -10.3025    1.8869 H         1 <0>         0.0804
     31 H2         -7.0966   -8.6999    2.5971 H         1 <0>         0.0820
     32 H3         -8.0570   -9.2570    1.2059 H         1 <0>         0.0759
     33 H4         -7.9052   -9.7378   -1.2599 H         1 <0>         0.1676
     34 H5         -7.4555   -9.4445   -3.6470 H         1 <0>         0.1576
     35 H6         -2.4552   -7.0927   -0.9026 H         1 <0>         0.0869
     36 H7         -2.4382   -7.1023    0.8772 H         1 <0>         0.1015
     37 H8         -3.8882   -5.0910    0.9019 H         1 <0>         0.0706
     38 H9         -3.9052   -5.0814   -0.8780 H         1 <0>         0.0607
     39 H10        -1.4407   -4.8095   -0.9000 H         1 <0>         0.0653
     40 H11        -1.4237   -4.8190    0.8798 H         1 <0>         0.0681
     41 H12        -2.8737   -2.8077    0.9045 H         1 <0>         0.0642
     42 H13        -2.8907   -2.7982   -0.8754 H         1 <0>         0.0623
     43 H14        -0.4261   -2.5263   -0.8975 H         1 <0>         0.0695
     44 H15        -0.4091   -2.5358    0.8824 H         1 <0>         0.0701
     45 H16        -1.8124   -0.5453    0.8330 H         1 <0>         0.0903
     46 H17        -1.8762   -0.5150   -0.8728 H         1 <0>         0.0989
     47 H18        -2.1667    1.6054    0.0210 H         1 <0>         0.1318
     48 H19        -2.1868    4.0641    0.0449 H         1 <0>         0.1300
     49 H20        -0.0701    5.3171    0.0322 H         1 <0>         0.1283
     50 H21         2.0798    4.1222    0.0044 H         1 <0>         0.1300
     51 H22         2.1264    1.6638   -0.0097 H         1 <0>         0.1335
     52 H23        -3.4880   -7.0667   -4.7421 H         1 <0>         0.1850
     53 H24        -3.7885   -7.2187   -7.3435 H         1 <0>         0.1824
     54 H25        -7.0649   -9.2042   -5.6141 H         1 <0>         0.2177
@<TRIPOS>BOND
     1    1    2 1
     2    1   30 1
     3    1   31 1
     4    1   32 1
     5    2   10 1
     6    2    3 2
     7    3    8 1
     8    3    4 1
     9    4    5 2
    10    4   33 1
    11    5    6 1
    12    5   34 1
    13    6    7 2
    14    6   25 1
    15    7    8 1
    16    8    9 1
    17    9   10 2
    18    9   11 1
    19   11   12 1
    20   11   35 1
    21   11   36 1
    22   12   13 1
    23   12   37 1
    24   12   38 1
    25   13   14 1
    26   13   39 1
    27   13   40 1
    28   14   15 1
    29   14   41 1
    30   14   42 1
    31   15   16 1
    32   15   43 1
    33   15   44 1
    34   16   17 1
    35   16   45 1
    36   16   46 1
    37   17   18 2
    38   17   19 1
    39   19   24 ar
    40   19   20 ar
    41   20   21 ar
    42   20   47 1
    43   21   22 ar
    44   21   48 1
    45   22   23 ar
    46   22   49 1
    47   23   24 ar
    48   23   50 1
    49   24   51 1
    50   25   29 1
    51   25   26 1
    52   26   27 2
    53   26   52 1
    54   27   28 1
    55   27   53 1
    56   28   29 2
    57   29   54 1
@<TRIPOS>MOLECULE
ZINC01537824
   55    58     0     0     0
SMALL
USER_CHARGES
7-(4-imidazol-1-yl-9-methyl-5,6,8-triazabicyclo[4.3.0]nona-2,4,7,9-tetraen-7-yl)-1-phenyl-heptan-1-one
@<TRIPOS>ATOM
      1 C1         -7.0709   -9.2726    1.6700 C.3       1 <0>        -0.0848
      2 C2         -6.0637   -8.6618    0.7300 C.2       1 <0>         0.1145
      3 C3         -6.1175   -8.6786   -0.6501 C.2       1 <0>        -0.1079
      4 C4         -7.0231   -9.2084   -1.5883 C.2       1 <0>         0.0830
      5 C5         -6.7707   -9.0442   -2.9141 C.2       1 <0>        -0.2559
      6 C6         -5.6176   -8.3522   -3.3334 C.2       1 <0>         0.3719
      7 N1         -4.7718   -7.8576   -2.4643 N.2       1 <0>        -0.2611
      8 N2         -4.9944   -8.0048   -1.0916 N.pl3     1 <0>        -0.2645
      9 C7         -4.3164   -7.6132    0.0024 C.2       1 <0>         0.2848
     10 N3         -4.9539   -8.0113    1.0769 N.2       1 <0>        -0.4449
     11 C8         -3.0217   -6.8420   -0.0058 C.3       1 <0>        -0.0432
     12 C9         -3.3217   -5.3417    0.0051 C.3       1 <0>        -0.1114
     13 C10        -2.0072   -4.5588   -0.0033 C.3       1 <0>        -0.1187
     14 C11        -2.3072   -3.0585    0.0077 C.3       1 <0>        -0.1194
     15 C12        -0.9927   -2.2755   -0.0007 C.3       1 <0>        -0.1135
     16 C13        -1.2926   -0.7753    0.0102 C.3       1 <0>        -0.1577
     17 C14         0.0021   -0.0041    0.0020 C.2       1 <0>         0.3947
     18 O1          1.0602   -0.5960   -0.0113 O.2       1 <0>        -0.4496
     19 C15        -0.0179    1.4674    0.0101 C.ar      1 <0>        -0.1763
     20 C16        -1.2364    2.1538    0.0196 C.ar      1 <0>        -0.0747
     21 C17        -1.2467    3.5326    0.0330 C.ar      1 <0>        -0.1332
     22 C18        -0.0554    4.2372    0.0259 C.ar      1 <0>        -0.0855
     23 C19         1.1544    3.5653    0.0102 C.ar      1 <0>        -0.1312
     24 C20         1.1815    2.1867    0.0025 C.ar      1 <0>        -0.0614
     25 N4         -5.3717   -8.1909   -4.7009 N.pl3     1 <0>        -0.3607
     26 C21        -4.3010   -7.5465   -5.2666 C.2       1 <0>         0.0437
     27 C22        -4.4586   -7.6267   -6.6012 C.2       1 <0>         0.0118
     28 C23        -6.1452   -8.6480   -5.7206 C.cat     1 <0>         0.3181
     29 H1         -6.7876  -10.3025    1.8869 H         1 <0>         0.0895
     30 H2         -7.0966   -8.6999    2.5971 H         1 <0>         0.0902
     31 H3         -8.0570   -9.2570    1.2059 H         1 <0>         0.0818
     32 H4         -7.9052   -9.7378   -1.2599 H         1 <0>         0.1778
     33 H5         -7.4555   -9.4445   -3.6470 H         1 <0>         0.1605
     34 H6         -2.4552   -7.0927   -0.9026 H         1 <0>         0.0897
     35 H7         -2.4382   -7.1023    0.8772 H         1 <0>         0.1101
     36 H8         -3.8882   -5.0910    0.9019 H         1 <0>         0.0744
     37 H9         -3.9052   -5.0814   -0.8780 H         1 <0>         0.0590
     38 H10        -1.4407   -4.8095   -0.9000 H         1 <0>         0.0650
     39 H11        -1.4237   -4.8190    0.8798 H         1 <0>         0.0715
     40 H12        -2.8737   -2.8077    0.9045 H         1 <0>         0.0660
     41 H13        -2.8907   -2.7982   -0.8754 H         1 <0>         0.0609
     42 H14        -0.4261   -2.5263   -0.8975 H         1 <0>         0.0690
     43 H15        -0.4091   -2.5358    0.8824 H         1 <0>         0.0717
     44 H16        -1.8124   -0.5453    0.8330 H         1 <0>         0.0906
     45 H17        -1.8762   -0.5150   -0.8728 H         1 <0>         0.0978
     46 H18        -2.1667    1.6054    0.0210 H         1 <0>         0.1305
     47 H19        -2.1868    4.0641    0.0449 H         1 <0>         0.1304
     48 H20        -0.0701    5.3171    0.0322 H         1 <0>         0.1296
     49 H21         2.0798    4.1222    0.0044 H         1 <0>         0.1313
     50 H22         2.1264    1.6638   -0.0097 H         1 <0>         0.1338
     51 H23        -3.4880   -7.0667   -4.7421 H         1 <0>         0.2282
     52 H24        -3.7885   -7.2187   -7.3435 H         1 <0>         0.2333
     53 H25        -7.0649   -9.2042   -5.6141 H         1 <0>         0.2701
     54 N5         -5.5917   -8.2999   -6.8493 N.pl3     1 <0>        -0.4695
     55 H26        -5.9653   -8.5087   -7.7826 H         1 <0>         0.4897
@<TRIPOS>BOND
     1    1    2 1
     2    1   29 1
     3    1   30 1
     4    1   31 1
     5    2   10 1
     6    2    3 2
     7    3    8 1
     8    3    4 1
     9    4    5 2
    10    4   32 1
    11    5    6 1
    12    5   33 1
    13    6    7 2
    14    6   25 1
    15    7    8 1
    16    8    9 1
    17    9   10 2
    18    9   11 1
    19   11   12 1
    20   11   34 1
    21   11   35 1
    22   12   13 1
    23   12   36 1
    24   12   37 1
    25   13   14 1
    26   13   38 1
    27   13   39 1
    28   14   15 1
    29   14   40 1
    30   14   41 1
    31   15   16 1
    32   15   42 1
    33   15   43 1
    34   16   17 1
    35   16   44 1
    36   16   45 1
    37   17   18 2
    38   17   19 1
    39   19   24 ar
    40   19   20 ar
    41   20   21 ar
    42   20   46 1
    43   21   22 ar
    44   21   47 1
    45   22   23 ar
    46   22   48 1
    47   23   24 ar
    48   23   49 1
    49   24   50 1
    50   25   28 1
    51   25   26 1
    52   26   27 2
    53   26   51 1
    54   27   52 1
    55   27   54 1
    56   28   53 1
    57   28   54 2
    58   54   55 1
@<TRIPOS>MOLECULE
ZINC01537824
   56    59     0     0     0
SMALL
USER_CHARGES
7-(4-imidazol-1-yl-9-methyl-5,6,8-triazabicyclo[4.3.0]nona-2,4,7,9-tetraen-7-yl)-1-phenyl-heptan-1-one
@<TRIPOS>ATOM
      1 C1         -7.0709   -9.2726    1.6700 C.3       1 <0>        -0.1146
      2 C2         -6.0637   -8.6618    0.7300 C.2       1 <0>         0.1431
      3 C3         -6.1175   -8.6786   -0.6501 C.2       1 <0>        -0.0384
      4 C4         -7.0231   -9.2084   -1.5883 C.2       1 <0>         0.0705
      5 C5         -6.7707   -9.0442   -2.9141 C.2       1 <0>        -0.2045
      6 C6         -5.6176   -8.3522   -3.3334 C.2       1 <0>         0.4236
      7 N1         -4.7718   -7.8576   -2.4643 N.2       1 <0>        -0.2458
      8 N2         -4.9944   -8.0048   -1.0916 N.pl3     1 <0>        -0.2337
      9 C7         -4.3164   -7.6132    0.0024 C.cat     1 <0>         0.3626
     10 C8         -3.0217   -6.8420   -0.0058 C.3       1 <0>        -0.0753
     11 C9         -3.3217   -5.3417    0.0051 C.3       1 <0>        -0.1188
     12 C10        -2.0072   -4.5588   -0.0033 C.3       1 <0>        -0.1210
     13 C11        -2.3072   -3.0585    0.0077 C.3       1 <0>        -0.1203
     14 C12        -0.9927   -2.2755   -0.0007 C.3       1 <0>        -0.1148
     15 C13        -1.2926   -0.7753    0.0102 C.3       1 <0>        -0.1578
     16 C14         0.0021   -0.0041    0.0020 C.2       1 <0>         0.3956
     17 O1          1.0602   -0.5960   -0.0113 O.2       1 <0>        -0.4502
     18 C15        -0.0179    1.4674    0.0101 C.ar      1 <0>        -0.1805
     19 C16        -1.2364    2.1538    0.0196 C.ar      1 <0>        -0.0758
     20 C17        -1.2467    3.5326    0.0330 C.ar      1 <0>        -0.1329
     21 C18        -0.0554    4.2372    0.0259 C.ar      1 <0>        -0.0820
     22 C19         1.1544    3.5653    0.0102 C.ar      1 <0>        -0.1296
     23 C20         1.1815    2.1867    0.0025 C.ar      1 <0>        -0.0599
     24 N3         -5.3717   -8.1909   -4.7009 N.pl3     1 <0>        -0.3814
     25 C21        -4.3010   -7.5465   -5.2666 C.2       1 <0>         0.0401
     26 C22        -4.4586   -7.6267   -6.6012 C.2       1 <0>         0.0285
     27 C23        -6.1452   -8.6480   -5.7206 C.cat     1 <0>         0.3316
     28 H1         -6.7876  -10.3025    1.8869 H         1 <0>         0.1206
     29 H2         -7.0966   -8.6999    2.5971 H         1 <0>         0.1103
     30 H3         -8.0570   -9.2570    1.2059 H         1 <0>         0.1170
     31 H4         -7.9052   -9.7378   -1.2599 H         1 <0>         0.2032
     32 H5         -7.4555   -9.4445   -3.6470 H         1 <0>         0.1866
     33 H6         -2.4552   -7.0927   -0.9026 H         1 <0>         0.1270
     34 H7         -2.4382   -7.1023    0.8772 H         1 <0>         0.1319
     35 H8         -3.8882   -5.0910    0.9019 H         1 <0>         0.0782
     36 H9         -3.9052   -5.0814   -0.8780 H         1 <0>         0.0730
     37 H10        -1.4407   -4.8095   -0.9000 H         1 <0>         0.0733
     38 H11        -1.4237   -4.8190    0.8798 H         1 <0>         0.0768
     39 H12        -2.8737   -2.8077    0.9045 H         1 <0>         0.0673
     40 H13        -2.8907   -2.7982   -0.8754 H         1 <0>         0.0640
     41 H14        -0.4261   -2.5263   -0.8975 H         1 <0>         0.0713
     42 H15        -0.4091   -2.5358    0.8824 H         1 <0>         0.0731
     43 H16        -1.8124   -0.5453    0.8330 H         1 <0>         0.0905
     44 H17        -1.8762   -0.5150   -0.8728 H         1 <0>         0.0983
     45 H18        -2.1667    1.6054    0.0210 H         1 <0>         0.1286
     46 H19        -2.1868    4.0641    0.0449 H         1 <0>         0.1312
     47 H20        -0.0701    5.3171    0.0322 H         1 <0>         0.1316
     48 H21         2.0798    4.1222    0.0044 H         1 <0>         0.1332
     49 H22         2.1264    1.6638   -0.0097 H         1 <0>         0.1342
     50 H23        -3.4880   -7.0667   -4.7421 H         1 <0>         0.2337
     51 H24        -3.7885   -7.2187   -7.3435 H         1 <0>         0.2405
     52 H25        -7.0649   -9.2042   -5.6141 H         1 <0>         0.2769
     53 N4         -4.9531   -8.0109    1.0792 N.pl3     1 <0>        -0.4647
     54 H26        -4.6432   -7.8459    2.0441 H         1 <0>         0.4957
     55 N5         -5.5917   -8.2999   -6.8493 N.pl3     1 <0>        -0.4593
     56 H27        -5.9653   -8.5087   -7.7826 H         1 <0>         0.4977
@<TRIPOS>BOND
     1    1    2 1
     2    1   28 1
     3    1   29 1
     4    1   30 1
     5    2    3 2
     6    2   53 1
     7    3    8 1
     8    3    4 1
     9    4    5 2
    10    4   31 1
    11    5    6 1
    12    5   32 1
    13    6    7 2
    14    6   24 1
    15    7    8 1
    16    8    9 1
    17    9   10 1
    18    9   53 2
    19   10   11 1
    20   10   33 1
    21   10   34 1
    22   11   12 1
    23   11   35 1
    24   11   36 1
    25   12   13 1
    26   12   37 1
    27   12   38 1
    28   13   14 1
    29   13   39 1
    30   13   40 1
    31   14   15 1
    32   14   41 1
    33   14   42 1
    34   15   16 1
    35   15   43 1
    36   15   44 1
    37   16   17 2
    38   16   18 1
    39   18   23 ar
    40   18   19 ar
    41   19   20 ar
    42   19   45 1
    43   20   21 ar
    44   20   46 1
    45   21   22 ar
    46   21   47 1
    47   22   23 ar
    48   22   48 1
    49   23   49 1
    50   24   27 1
    51   24   25 1
    52   25   26 2
    53   25   50 1
    54   26   51 1
    55   26   55 1
    56   27   52 1
    57   27   55 2
    58   53   54 1
    59   55   56 1
@<TRIPOS>MOLECULE
ZINC01537824
   55    58     0     0     0
SMALL
USER_CHARGES
7-(4-imidazol-1-yl-9-methyl-5,6,8-triazabicyclo[4.3.0]nona-2,4,7,9-tetraen-7-yl)-1-phenyl-heptan-1-one
@<TRIPOS>ATOM
      1 C1         -7.0709   -9.2726    1.6700 C.3       1 <0>        -0.1051
      2 C2         -6.0637   -8.6618    0.7300 C.2       1 <0>         0.1099
      3 C3         -6.1175   -8.6786   -0.6501 C.2       1 <0>        -0.0208
      4 C4         -7.0231   -9.2084   -1.5883 C.2       1 <0>         0.0265
      5 C5         -6.7707   -9.0442   -2.9141 C.2       1 <0>        -0.1731
      6 C6         -5.6176   -8.3522   -3.3334 C.2       1 <0>         0.4425
      7 N1         -4.7718   -7.8576   -2.4643 N.2       1 <0>        -0.2797
      8 N2         -4.9944   -8.0048   -1.0916 N.pl3     1 <0>        -0.2242
      9 C7         -4.3164   -7.6132    0.0024 C.cat     1 <0>         0.3356
     10 C8         -3.0217   -6.8420   -0.0058 C.3       1 <0>        -0.0684
     11 C9         -3.3217   -5.3417    0.0051 C.3       1 <0>        -0.1186
     12 C10        -2.0072   -4.5588   -0.0033 C.3       1 <0>        -0.1202
     13 C11        -2.3072   -3.0585    0.0077 C.3       1 <0>        -0.1204
     14 C12        -0.9927   -2.2755   -0.0007 C.3       1 <0>        -0.1142
     15 C13        -1.2926   -0.7753    0.0102 C.3       1 <0>        -0.1582
     16 C14         0.0021   -0.0041    0.0020 C.2       1 <0>         0.3952
     17 O1          1.0602   -0.5960   -0.0113 O.2       1 <0>        -0.4498
     18 C15        -0.0179    1.4674    0.0101 C.ar      1 <0>        -0.1777
     19 C16        -1.2364    2.1538    0.0196 C.ar      1 <0>        -0.0748
     20 C17        -1.2467    3.5326    0.0330 C.ar      1 <0>        -0.1331
     21 C18        -0.0554    4.2372    0.0259 C.ar      1 <0>        -0.0842
     22 C19         1.1544    3.5653    0.0102 C.ar      1 <0>        -0.1307
     23 C20         1.1815    2.1867    0.0025 C.ar      1 <0>        -0.0608
     24 N3         -5.3717   -8.1909   -4.7009 N.pl3     1 <0>        -0.4199
     25 C21        -4.3010   -7.5465   -5.2666 C.2       1 <0>        -0.0400
     26 C22        -4.4586   -7.6267   -6.6012 C.2       1 <0>         0.0058
     27 N4         -5.5919   -8.3000   -6.8499 N.2       1 <0>        -0.4503
     28 C23        -6.1452   -8.6480   -5.7206 C.2       1 <0>         0.2148
     29 H1         -6.7876  -10.3025    1.8869 H         1 <0>         0.1116
     30 H2         -7.0966   -8.6999    2.5971 H         1 <0>         0.1019
     31 H3         -8.0570   -9.2570    1.2059 H         1 <0>         0.1113
     32 H4         -7.9052   -9.7378   -1.2599 H         1 <0>         0.1928
     33 H5         -7.4555   -9.4445   -3.6470 H         1 <0>         0.1829
     34 H6         -2.4552   -7.0927   -0.9026 H         1 <0>         0.1243
     35 H7         -2.4382   -7.1023    0.8772 H         1 <0>         0.1232
     36 H8         -3.8882   -5.0910    0.9019 H         1 <0>         0.0742
     37 H9         -3.9052   -5.0814   -0.8780 H         1 <0>         0.0747
     38 H10        -1.4407   -4.8095   -0.9000 H         1 <0>         0.0735
     39 H11        -1.4237   -4.8190    0.8798 H         1 <0>         0.0734
     40 H12        -2.8737   -2.8077    0.9045 H         1 <0>         0.0655
     41 H13        -2.8907   -2.7982   -0.8754 H         1 <0>         0.0654
     42 H14        -0.4261   -2.5263   -0.8975 H         1 <0>         0.0717
     43 H15        -0.4091   -2.5358    0.8824 H         1 <0>         0.0715
     44 H16        -1.8124   -0.5453    0.8330 H         1 <0>         0.0901
     45 H17        -1.8762   -0.5150   -0.8728 H         1 <0>         0.0994
     46 H18        -2.1667    1.6054    0.0210 H         1 <0>         0.1299
     47 H19        -2.1868    4.0641    0.0449 H         1 <0>         0.1308
     48 H20        -0.0701    5.3171    0.0322 H         1 <0>         0.1302
     49 H21         2.0798    4.1222    0.0044 H         1 <0>         0.1318
     50 H22         2.1264    1.6638   -0.0097 H         1 <0>         0.1339
     51 H23        -3.4880   -7.0667   -4.7421 H         1 <0>         0.1923
     52 H24        -3.7885   -7.2187   -7.3435 H         1 <0>         0.1913
     53 H25        -7.0649   -9.2042   -5.6141 H         1 <0>         0.2260
     54 N5         -4.9531   -8.0109    1.0792 N.pl3     1 <0>        -0.4670
     55 H26        -4.6432   -7.8459    2.0441 H         1 <0>         0.4874
@<TRIPOS>BOND
     1    1    2 1
     2    1   29 1
     3    1   30 1
     4    1   31 1
     5    2    3 2
     6    2   54 1
     7    3    8 1
     8    3    4 1
     9    4    5 2
    10    4   32 1
    11    5    6 1
    12    5   33 1
    13    6    7 2
    14    6   24 1
    15    7    8 1
    16    8    9 1
    17    9   10 1
    18    9   54 2
    19   10   11 1
    20   10   34 1
    21   10   35 1
    22   11   12 1
    23   11   36 1
    24   11   37 1
    25   12   13 1
    26   12   38 1
    27   12   39 1
    28   13   14 1
    29   13   40 1
    30   13   41 1
    31   14   15 1
    32   14   42 1
    33   14   43 1
    34   15   16 1
    35   15   44 1
    36   15   45 1
    37   16   17 2
    38   16   18 1
    39   18   23 ar
    40   18   19 ar
    41   19   20 ar
    42   19   46 1
    43   20   21 ar
    44   20   47 1
    45   21   22 ar
    46   21   48 1
    47   22   23 ar
    48   22   49 1
    49   23   50 1
    50   24   28 1
    51   24   25 1
    52   25   26 2
    53   25   51 1
    54   26   27 1
    55   26   52 1
    56   27   28 2
    57   28   53 1
    58   54   55 1
@<TRIPOS>MOLECULE
ZINC00005723
   30    31     0     0     0
SMALL
USER_CHARGES

@<TRIPOS>ATOM
      1 C1         -0.0167    1.3781    0.0096 C.ar      1 <0>        -0.1177
      2 C2          1.1709    2.0855    0.0021 C.ar      1 <0>        -0.1175
      3 C3          2.3773    1.4107   -0.0130 C.ar      1 <0>        -0.1115
      4 C4          2.3960    0.0285   -0.0201 C.ar      1 <0>        -0.0860
      5 C5          1.2084   -0.6789   -0.0117 C.ar      1 <0>        -0.1114
      6 C6          0.0021   -0.0041    0.0020 C.ar      1 <0>        -0.1175
      7 C7          3.7112   -0.7071   -0.0376 C.3       1 <0>        -0.0923
      8 C8          4.1714   -0.9633    1.3989 C.3       1 <0>         0.1291
      9 N1          5.4498   -1.6784    1.3820 N.pl3     1 <0>        -0.6796
     10 C9          6.0502   -2.0132    2.5413 C.2       1 <0>         0.5254
     11 S1          5.3187   -1.6028    4.0337 S.2       1 <0>        -0.5075
     12 N2          7.2263   -2.6711    2.5257 N.pl3     1 <0>        -0.5837
     13 C10         7.8452   -3.0163    3.7208 C.2       1 <0>         0.2545
     14 N3          7.4329   -2.7912    4.9497 N.2       1 <0>        -0.4552
     15 C11         8.1427   -3.1868    5.9906 C.2       1 <0>         0.0515
     16 C12         9.3073   -3.8307    5.7333 C.2       1 <0>        -0.2300
     17 S2          9.3007   -3.8302    3.9479 S.3       1 <0>         0.0981
     18 H1         -0.9591    1.9053    0.0259 H         1 <0>         0.1231
     19 H2          1.1563    3.1654    0.0076 H         1 <0>         0.1238
     20 H3          3.3051    1.9634   -0.0196 H         1 <0>         0.1224
     21 H4          1.2231   -1.7588   -0.0176 H         1 <0>         0.1224
     22 H5         -0.9258   -0.5567    0.0082 H         1 <0>         0.1238
     23 H6          3.5884   -1.6586   -0.5549 H         1 <0>         0.0807
     24 H7          4.4573   -0.1052   -0.5563 H         1 <0>         0.0807
     25 H8          4.2941   -0.0118    1.9163 H         1 <0>         0.0920
     26 H9          3.4252   -1.5652    1.9176 H         1 <0>         0.0920
     27 H10         5.8643   -1.9110    0.5363 H         1 <0>         0.3969
     28 H11         7.6408   -2.9037    1.6800 H         1 <0>         0.4162
     29 H12         7.8102   -3.0049    7.0019 H         1 <0>         0.1776
     30 H13        10.0364   -4.2359    6.4193 H         1 <0>         0.1998
@<TRIPOS>BOND
     1    1    6 ar
     2    1    2 ar
     3    1   18 1
     4    2    3 ar
     5    2   19 1
     6    3    4 ar
     7    3   20 1
     8    4    5 ar
     9    4    7 1
    10    5    6 ar
    11    5   21 1
    12    6   22 1
    13    7    8 1
    14    7   23 1
    15    7   24 1
    16    8    9 1
    17    8   25 1
    18    8   26 1
    19    9   10 1
    20    9   27 1
    21   10   11 2
    22   10   12 1
    23   12   13 1
    24   12   28 1
    25   13   17 1
    26   13   14 2
    27   14   15 1
    28   15   16 2
    29   15   29 1
    30   16   17 1
    31   16   30 1
@<TRIPOS>MOLECULE
ZINC06524607
   31    33     0     0     0
SMALL
USER_CHARGES
9-chloro-2-(2-cyclopropylethynyl)-8-hydroxy-2-(trifluoromethyl)-3-oxa-5-azabicyclo[4.4.0]deca-7,9,11-trien-4-one
@<TRIPOS>ATOM
      1 C1         -2.3900   -2.4774   -0.6267 C.ar      1 <0>        -0.0123
      2 C2         -1.3764   -3.1741   -0.0018 C.ar      1 <0>        -0.1888
      3 C3         -1.6484   -4.3736    0.6456 C.ar      1 <0>         0.2121
      4 C4         -2.9382   -4.8813    0.6501 C.ar      1 <0>        -0.1656
      5 C5         -3.9548   -4.1822    0.0178 C.ar      1 <0>         0.1847
      6 C6         -3.6795   -2.9783   -0.6178 C.ar      1 <0>        -0.0910
      7 Cl1        -4.9556   -2.1006   -1.4019 Cl        1 <0>        -0.0352
      8 O1         -5.2216   -4.6749    0.0203 O.3       1 <0>        -0.4784
      9 N1         -0.6131   -5.0451    1.3063 N.am      1 <0>        -0.6580
     10 C7          0.5725   -4.4318    1.4900 C.2       1 <0>         0.6597
     11 O2          1.5086   -5.0563    1.9485 O.2       1 <0>        -0.4683
     12 O3          0.7294   -3.1336    1.1708 O.3       1 <0>        -0.3093
     13 C8          0.0380   -2.6498   -0.0125 C.3       1 <0>         0.2840
     14 C9          0.0180   -1.1779   -0.0044 C.1       1 <0>        -0.2270
     15 C10         0.0021   -0.0041    0.0020 C.1       1 <0>        -0.0141
     16 C11        -0.0179    1.4678    0.0101 C.3       1 <0>        -0.0745
     17 C12         0.4551    2.1877   -1.2544 C.3       1 <0>        -0.1563
     18 C13         1.3295    2.1926    0.0011 C.3       1 <0>        -0.1551
     19 C14         0.7585   -3.1454   -1.2680 C.3       1 <0>         0.4456
     20 F1          2.0713   -2.6621   -1.2736 F         1 <0>        -0.1579
     21 F2          0.7764   -4.5442   -1.2738 F         1 <0>        -0.1680
     22 F3          0.0865   -2.6828   -2.4045 F         1 <0>        -0.1563
     23 H1         -2.1772   -1.5416   -1.1221 H         1 <0>         0.1540
     24 H2         -3.1503   -5.8180    1.1440 H         1 <0>         0.1600
     25 H3         -5.7558   -4.3826    0.7714 H         1 <0>         0.4048
     26 H4         -0.7486   -5.9492    1.6306 H         1 <0>         0.4397
     27 H5         -0.8310    1.9238    0.5750 H         1 <0>         0.1411
     28 H6          0.7811    1.5714   -2.0923 H         1 <0>         0.1032
     29 H7         -0.0469    3.1175   -1.5217 H         1 <0>         0.1121
     30 H8          1.4027    3.1257    0.5598 H         1 <0>         0.1120
     31 H9          2.2307    1.5796   -0.0108 H         1 <0>         0.1028
@<TRIPOS>BOND
     1    1    6 ar
     2    1    2 ar
     3    1   23 1
     4    2   13 1
     5    2    3 ar
     6    3    4 ar
     7    3    9 1
     8    4    5 ar
     9    4   24 1
    10    5    6 ar
    11    5    8 1
    12    6    7 1
    13    8   25 1
    14    9   10 am
    15    9   26 1
    16   10   11 2
    17   10   12 1
    18   12   13 1
    19   13   14 1
    20   13   19 1
    21   14   15 3
    22   15   16 1
    23   16   18 1
    24   16   17 1
    25   16   27 1
    26   17   18 1
    27   17   28 1
    28   17   29 1
    29   18   30 1
    30   18   31 1
    31   19   20 1
    32   19   21 1
    33   19   22 1
