@<TRIPOS>MOLECULE
ZINC03914596
  100   104     0     0     0
SMALL
USER_CHARGES
N-[1-benzyl-2-hydroxy-3-[3-(tert-butylcarbamoyl)-3,4,4a,5,6,7,8,8a-octahydro-1H-isoquinolin-2-yl]-propyl]-2-(2-quinolylcarbonylamino)butanediamide
@<TRIPOS>ATOM
      1 C1         -4.4157    0.4364   -1.9776 C.3       1 <0>        -0.1695
      2 C2         -5.2799    0.3860   -0.7161 C.3       1 <0>         0.1678
      3 C3         -6.3406   -0.7062   -0.8678 C.3       1 <0>        -0.1620
      4 C4         -5.9660    1.7384   -0.5135 C.3       1 <0>        -0.1682
      5 N1         -4.4350    0.0885    0.4431 N.am      1 <0>        -0.6939
      6 C5         -3.4261    0.9192    0.7726 C.2       1 <0>         0.5082
      7 O1         -3.2178    1.9130    0.1094 O.2       1 <0>        -0.5257
      8 C6         -2.5570    0.6132    1.9651 C.3       1 <0>        -0.0031
      9 H1         -2.3553   -0.4574    2.0016 H         1 <0>         0.1865
     10 C7         -3.2796    1.0397    3.2453 C.3       1 <0>        -0.1377
     11 C8         -2.3813    0.7506    4.4504 C.3       1 <0>        -0.0875
     12 H2         -2.1891   -0.3208    4.5073 H         1 <0>         0.0919
     13 C9         -3.0736    1.2115    5.7325 C.3       1 <0>        -0.1155
     14 C10        -3.3386    2.7166    5.6608 C.3       1 <0>        -0.1292
     15 C11        -2.0097    3.4586    5.5027 C.3       1 <0>        -0.1199
     16 C12        -1.3231    3.0028    4.2142 C.3       1 <0>        -0.1319
     17 C13        -1.0558    1.4973    4.2798 C.3       1 <0>        -0.1059
     18 H3         -0.3980    1.2713    5.1191 H         1 <0>         0.1232
     19 C14        -0.3950    1.0475    2.9730 C.3       1 <0>        -0.0037
     20 C15        -0.6344    1.0606    0.5640 C.3       1 <0>        -0.0583
     21 C16        -0.3845   -0.4439    0.4419 C.3       1 <0>         0.0803
     22 H4          0.1831   -0.7892    1.3060 H         1 <0>         0.1330
     23 C17         0.4084   -0.7272   -0.8356 C.3       1 <0>         0.1330
     24 H5          1.3225   -0.1334   -0.8350 H         1 <0>         0.1107
     25 C18        -0.4392   -0.3574   -2.0545 C.3       1 <0>        -0.1009
     26 C19         0.3837   -0.5199   -3.3065 C.ar      1 <0>        -0.0744
     27 C20         1.1207    0.5440   -3.7922 C.ar      1 <0>        -0.1057
     28 C21         1.8793    0.3935   -4.9379 C.ar      1 <0>        -0.1079
     29 C22         1.8930   -0.8180   -5.6036 C.ar      1 <0>        -0.1084
     30 C23         1.1515   -1.8802   -5.1211 C.ar      1 <0>        -0.1066
     31 C24         0.3970   -1.7312   -3.9725 C.ar      1 <0>        -0.1086
     32 N2          0.7506   -2.1505   -0.8924 N.am      1 <0>        -0.7283
     33 C25         1.8228   -2.5581   -1.6000 C.2       1 <0>         0.5189
     34 O2          2.5044   -1.7465   -2.1898 O.2       1 <0>        -0.4737
     35 C26         2.1749   -4.0222   -1.6585 C.3       1 <0>         0.1476
     36 H6          1.3448   -4.5784   -2.0942 H         1 <0>         0.1214
     37 C27         2.4476   -4.5380   -0.2441 C.3       1 <0>        -0.1595
     38 C28         3.6445   -3.8238    0.3290 C.2       1 <0>         0.5110
     39 O3          4.1765   -2.9325   -0.2983 O.2       1 <0>        -0.5209
     40 N3          4.1237   -4.1754    1.5386 N.am      1 <0>        -0.8554
     41 N4          3.3714   -4.2042   -2.4838 N.am      1 <0>        -0.6835
     42 C29         3.5663   -5.3642   -3.1417 C.2       1 <0>         0.5762
     43 O4          2.7974   -6.2910   -2.9798 O.2       1 <0>        -0.5322
     44 C30         4.7189   -5.5095   -4.0631 C.ar      1 <0>         0.1086
     45 C31         4.9097   -6.7258   -4.7354 C.ar      1 <0>        -0.1272
     46 C32         5.9634   -6.8703   -5.5911 C.ar      1 <0>        -0.0587
     47 C33         6.8387   -5.7810   -5.7598 C.ar      1 <0>        -0.0833
     48 C34         7.9469   -5.8623   -6.6183 C.ar      1 <0>        -0.1023
     49 C35         8.7718   -4.7882   -6.7567 C.ar      1 <0>        -0.1013
     50 C36         8.5326   -3.6063   -6.0566 C.ar      1 <0>        -0.1004
     51 C37         7.4699   -3.4911   -5.2158 C.ar      1 <0>        -0.0851
     52 C38         6.5928   -4.5795   -5.0455 C.ar      1 <0>         0.1230
     53 N5          5.5440   -4.4940   -4.2277 N.ar      1 <0>        -0.4337
     54 O5         -1.6359   -1.1317    0.3881 O.3       1 <0>        -0.5532
     55 H7         -3.9269   -0.5271   -2.1219 H         1 <0>         0.0576
     56 H8         -5.0443    0.6577   -2.8401 H         1 <0>         0.0767
     57 H9         -3.6601    1.2145   -1.8695 H         1 <0>         0.0761
     58 H10        -6.9563   -0.7422    0.0309 H         1 <0>         0.0672
     59 H11        -6.9692   -0.4849   -1.7303 H         1 <0>         0.0835
     60 H12        -5.8518   -1.6698   -1.0122 H         1 <0>         0.0676
     61 H13        -5.2104    2.5166   -0.4054 H         1 <0>         0.0770
     62 H14        -6.5946    1.9598   -1.3760 H         1 <0>         0.0736
     63 H15        -6.5817    1.7025    0.3852 H         1 <0>         0.0587
     64 H16        -4.6017   -0.7064    0.9736 H         1 <0>         0.4100
     65 H17        -4.2099    0.4800    3.3421 H         1 <0>         0.1136
     66 H18        -3.4991    2.1065    3.2024 H         1 <0>         0.0973
     67 H19        -4.0194    0.6815    5.8449 H         1 <0>         0.0753
     68 H20        -2.4333    0.9967    6.5880 H         1 <0>         0.0772
     69 H21        -3.9797    2.9327    4.8062 H         1 <0>         0.0639
     70 H22        -3.8308    3.0433    6.5769 H         1 <0>         0.0747
     71 H23        -2.1957    4.5315    5.4555 H         1 <0>         0.0740
     72 H24        -1.3667    3.2383    6.3549 H         1 <0>         0.0737
     73 H25        -0.3785    3.5344    4.0986 H         1 <0>         0.0811
     74 H26        -1.9680    3.2201    3.3628 H         1 <0>         0.0564
     75 H27        -0.2045   -0.0250    3.0121 H         1 <0>         0.1332
     76 H28         0.5468    1.5799    2.8398 H         1 <0>         0.1351
     77 H29         0.3162    1.5919    0.5156 H         1 <0>         0.1464
     78 H30        -1.2765    1.3898   -0.2530 H         1 <0>         0.1529
     79 H31        -1.3093   -1.0120   -2.1041 H         1 <0>         0.0770
     80 H32        -0.7680    0.6782   -1.9677 H         1 <0>         0.0796
     81 H33         1.1068    1.4917   -3.2744 H         1 <0>         0.1117
     82 H34         2.4584    1.2235   -5.3151 H         1 <0>         0.1190
     83 H35         2.4828   -0.9345   -6.5008 H         1 <0>         0.1181
     84 H36         1.1619   -2.8265   -5.6414 H         1 <0>         0.1150
     85 H37        -0.1823   -2.5611   -3.5955 H         1 <0>         0.1082
     86 H38         0.2055   -2.7996   -0.4207 H         1 <0>         0.4028
     87 H39         1.5773   -4.3510    0.3850 H         1 <0>         0.1055
     88 H40         2.6465   -5.6091   -0.2800 H         1 <0>         0.1152
     89 H41         3.6982   -4.8882    2.0403 H         1 <0>         0.4021
     90 H42         4.8941   -3.7157    1.9075 H         1 <0>         0.4043
     91 H43         4.0235   -3.4898   -2.5569 H         1 <0>         0.4308
     92 H44         4.2221   -7.5440   -4.5801 H         1 <0>         0.1509
     93 H45         6.1241   -7.7977   -6.1208 H         1 <0>         0.1489
     94 H46         8.1435   -6.7719   -7.1663 H         1 <0>         0.1356
     95 H47         9.6235   -4.8525   -7.4176 H         1 <0>         0.1330
     96 H48         9.2025   -2.7687   -6.1838 H         1 <0>         0.1345
     97 H49         7.2996   -2.5686   -4.6806 H         1 <0>         0.1386
     98 H50        -2.1948   -0.8738   -0.3577 H         1 <0>         0.3875
     99 N6         -1.2955    1.3757    1.8469 N.4       1 <0>        -0.3713
    100 H51        -1.5097    2.3795    1.8738 H         1 <0>         0.4322
@<TRIPOS>BOND
     1    1    2 1
     2    1   55 1
     3    1   56 1
     4    1   57 1
     5    2    3 1
     6    2    4 1
     7    2    5 1
     8    3   58 1
     9    3   59 1
    10    3   60 1
    11    4   61 1
    12    4   62 1
    13    4   63 1
    14    5    6 am
    15    5   64 1
    16    6    7 2
    17    6    8 1
    18    8    9 1
    19    8   10 1
    20    8   99 1
    21   10   11 1
    22   10   65 1
    23   10   66 1
    24   11   12 1
    25   11   17 1
    26   11   13 1
    27   13   14 1
    28   13   67 1
    29   13   68 1
    30   14   15 1
    31   14   69 1
    32   14   70 1
    33   15   16 1
    34   15   71 1
    35   15   72 1
    36   16   17 1
    37   16   73 1
    38   16   74 1
    39   17   18 1
    40   17   19 1
    41   19   75 1
    42   19   76 1
    43   19   99 1
    44   20   21 1
    45   20   77 1
    46   20   78 1
    47   20   99 1
    48   21   22 1
    49   21   23 1
    50   21   54 1
    51   23   24 1
    52   23   25 1
    53   23   32 1
    54   25   26 1
    55   25   79 1
    56   25   80 1
    57   26   31 ar
    58   26   27 ar
    59   27   28 ar
    60   27   81 1
    61   28   29 ar
    62   28   82 1
    63   29   30 ar
    64   29   83 1
    65   30   31 ar
    66   30   84 1
    67   31   85 1
    68   32   33 am
    69   32   86 1
    70   33   34 2
    71   33   35 1
    72   35   36 1
    73   35   37 1
    74   35   41 1
    75   37   38 1
    76   37   87 1
    77   37   88 1
    78   38   39 2
    79   38   40 am
    80   40   89 1
    81   40   90 1
    82   41   42 am
    83   41   91 1
    84   42   43 2
    85   42   44 1
    86   44   53 ar
    87   44   45 ar
    88   45   46 ar
    89   45   92 1
    90   46   47 ar
    91   46   93 1
    92   47   52 ar
    93   47   48 ar
    94   48   49 ar
    95   48   94 1
    96   49   50 ar
    97   49   95 1
    98   50   51 ar
    99   50   96 1
   100   51   52 ar
   101   51   97 1
   102   52   53 ar
   103   54   98 1
   104   99  100 1
@<TRIPOS>MOLECULE
ZINC22448696
   92    96     0     0     0
SMALL
USER_CHARGES
(2S)-1-[(2S,4R)-4-benzyl-2-hydroxy-5-[[(1S,2R)-2-hydroxyindan-1-yl]amino]-5-oxo-pentyl]-N-tert-butyl-4-(3-pyridylmethyl)piperazine-2-carboxamide
@<TRIPOS>ATOM
      1 C1         -5.5944    1.9794   -4.4560 C.3       1 <0>        -0.1613
      2 C2         -7.1095    1.8351   -4.3001 C.3       1 <0>         0.1770
      3 C3         -7.6485    0.9076   -5.3910 C.3       1 <0>        -0.1554
      4 C4         -7.7686    3.2099   -4.4280 C.3       1 <0>        -0.1658
      5 N1         -7.4132    1.2686   -2.9836 N.am      1 <0>        -0.7253
      6 C5         -7.0312    1.9180   -1.8661 C.2       1 <0>         0.5417
      7 O1         -6.4362    2.9714   -1.9503 O.2       1 <0>        -0.5318
      8 C6         -7.3436    1.3353   -0.5119 C.3       1 <0>         0.0658
      9 H1         -7.2584    0.2393   -0.5522 H         1 <0>         0.1080
     10 C7         -8.7499    1.7619   -0.0845 C.3       1 <0>         0.0664
     11 N2         -9.0367    1.2246    1.2530 N.3       1 <0>        -0.5286
     12 C8         -8.0593    1.7147    2.2349 C.3       1 <0>         0.0503
     13 C9         -6.6530    1.2881    1.8075 C.3       1 <0>         0.0557
     14 N3         -6.3662    1.8253    0.4700 N.3       1 <0>        -0.5131
     15 C10        -4.9950    1.5005    0.0551 C.3       1 <0>         0.0569
     16 C11        -4.8435   -0.0176   -0.0614 C.3       1 <0>         0.0880
     17 H2         -5.2277   -0.5268    0.8347 H         1 <0>         0.0528
     18 C12        -3.3746   -0.3659   -0.3105 C.3       1 <0>        -0.1348
     19 C13        -3.1905   -1.8829   -0.2356 C.3       1 <0>        -0.0953
     20 H3         -3.5986   -2.2628    0.7126 H         1 <0>         0.0868
     21 C14        -3.9105   -2.5428   -1.4133 C.3       1 <0>        -0.0757
     22 C15        -3.7727   -4.0400   -1.3112 C.ar      1 <0>        -0.0931
     23 C16        -2.7920   -4.6947   -2.0327 C.ar      1 <0>        -0.0972
     24 C17        -2.6631   -6.0676   -1.9360 C.ar      1 <0>        -0.1205
     25 C18        -3.5202   -6.7868   -1.1241 C.ar      1 <0>        -0.1192
     26 C19        -4.5042   -6.1327   -0.4066 C.ar      1 <0>        -0.1207
     27 C20        -4.6306   -4.7594   -0.5003 C.ar      1 <0>        -0.1169
     28 C21        -1.7215   -2.2142   -0.2954 C.2       1 <0>         0.5273
     29 O2         -1.1623   -2.2994   -1.3683 O.2       1 <0>        -0.5406
     30 N4         -1.0292   -2.4157    0.8432 N.am      1 <0>        -0.7172
     31 C22         0.4184   -2.6342    0.7914 C.3       1 <0>         0.1988
     32 H4          0.5830   -3.2135   -0.1291 H         1 <0>         0.0991
     33 C23         1.1496   -1.3089    0.7777 C.ar      1 <0>        -0.1119
     34 C24         1.3596   -0.4103   -0.2550 C.ar      1 <0>        -0.0825
     35 C25         2.0677    0.7539   -0.0302 C.ar      1 <0>        -0.1228
     36 C26         2.5692    1.0240    1.2296 C.ar      1 <0>        -0.1086
     37 C27         2.3607    0.1292    2.2607 C.ar      1 <0>        -0.1120
     38 C28         1.6508   -1.0388    2.0372 C.ar      1 <0>        -0.0884
     39 C29         1.2906   -2.1640    2.9835 C.3       1 <0>        -0.1127
     40 C30         0.8987   -3.3473    2.0733 C.3       1 <0>         0.1172
     41 H5          1.6739   -4.1143    1.9295 H         1 <0>         0.0809
     42 O3         -0.1598   -4.1089    2.6578 O.3       1 <0>        -0.5968
     43 O4         -5.6371   -0.4932   -1.1505 O.3       1 <0>        -0.5985
     44 C31       -10.4079    1.5495    1.6679 C.3       1 <0>         0.0958
     45 C32       -10.7471    0.7868    2.9226 C.ar      1 <0>        -0.1287
     46 C33       -11.3252   -0.4713    2.8450 C.ar      1 <0>        -0.0548
     47 C34       -11.6158   -1.1378    4.0252 C.ar      1 <0>        -0.1725
     48 C35       -11.3308   -0.5265    5.2317 C.ar      1 <0>         0.0968
     49 N5        -10.7852    0.6734    5.2676 N.ar      1 <0>        -0.4842
     50 C36       -10.4912    1.3347    4.1651 C.ar      1 <0>         0.1035
     51 H6         -5.2070    2.6463   -3.6716 H         1 <0>         0.0764
     52 H7         -5.3664    2.4047   -5.4445 H         1 <0>         0.0562
     53 H8         -5.1206    0.9910   -4.3639 H         1 <0>         0.0543
     54 H9         -8.7378    0.8039   -5.2788 H         1 <0>         0.0601
     55 H10        -7.1747   -0.0808   -5.2990 H         1 <0>         0.0620
     56 H11        -7.4205    1.3329   -6.3795 H         1 <0>         0.0699
     57 H12        -8.8579    3.1061   -4.3159 H         1 <0>         0.0510
     58 H13        -7.5406    3.6353   -5.4165 H         1 <0>         0.0592
     59 H14        -7.3811    3.8767   -3.6436 H         1 <0>         0.0780
     60 H15        -7.9530    0.3132   -2.9072 H         1 <0>         0.4148
     61 H16        -8.8083    2.8601   -0.0598 H         1 <0>         0.0473
     62 H17        -9.4857    1.3717   -0.8030 H         1 <0>         0.0817
     63 H18        -8.1106    2.8123    2.2869 H         1 <0>         0.0467
     64 H19        -8.2879    1.2897    3.2234 H         1 <0>         0.0822
     65 H20        -5.9172    1.6784    2.5260 H         1 <0>         0.0821
     66 H21        -6.5945    0.1899    1.7829 H         1 <0>         0.0452
     67 H22        -4.7870    1.9657   -0.9198 H         1 <0>         0.0988
     68 H23        -4.2851    1.8835    0.8030 H         1 <0>         0.0869
     69 H24        -3.0772   -0.0092   -1.3077 H         1 <0>         0.0839
     70 H25        -2.7484    0.1177    0.4537 H         1 <0>         0.0742
     71 H26        -4.9760   -2.2703   -1.3909 H         1 <0>         0.0974
     72 H27        -3.4633   -2.1969   -2.3569 H         1 <0>         0.0933
     73 H28        -2.1247   -4.1332   -2.6697 H         1 <0>         0.1270
     74 H29        -1.8946   -6.5787   -2.4969 H         1 <0>         0.1190
     75 H30        -3.4212   -7.8597   -1.0507 H         1 <0>         0.1192
     76 H31        -5.1739   -6.6947    0.2274 H         1 <0>         0.1200
     77 H32        -5.3993   -4.2484    0.0603 H         1 <0>         0.1179
     78 H33        -1.5512   -2.4161    1.8115 H         1 <0>         0.4230
     79 H34         0.9686   -0.6208   -1.2395 H         1 <0>         0.1243
     80 H35         2.2298    1.4524   -0.8377 H         1 <0>         0.1253
     81 H36         3.1237    1.9336    1.4070 H         1 <0>         0.1256
     82 H37         2.7527    0.3409    3.2445 H         1 <0>         0.1208
     83 H38         2.1602   -2.4074    3.6116 H         1 <0>         0.0812
     84 H39         0.4524   -1.8509    3.6233 H         1 <0>         0.0922
     85 H40         0.0183   -4.6798    3.5810 H         1 <0>         0.4160
     86 H41        -5.6555   -1.5667   -1.3900 H         1 <0>         0.3914
     87 H42       -10.4859    2.6293    1.8628 H         1 <0>         0.0503
     88 H43       -11.1091    1.2697    0.8679 H         1 <0>         0.0881
     89 H44       -11.5404   -0.9227    1.8877 H         1 <0>         0.1343
     90 H45       -12.0630   -2.1206    4.0023 H         1 <0>         0.1351
     91 H46       -11.5579   -1.0374    6.1558 H         1 <0>         0.1551
     92 H47       -10.0449    2.3158    4.2342 H         1 <0>         0.1505
@<TRIPOS>BOND
     1    1    2 1
     2    1   51 1
     3    1   52 1
     4    1   53 1
     5    2    3 1
     6    2    4 1
     7    2    5 1
     8    3   54 1
     9    3   55 1
    10    3   56 1
    11    4   57 1
    12    4   58 1
    13    4   59 1
    14    5    6 am
    15    5   60 1
    16    6    7 2
    17    6    8 1
    18    8    9 1
    19    8   14 1
    20    8   10 1
    21   10   11 1
    22   10   61 1
    23   10   62 1
    24   11   12 1
    25   11   44 1
    26   12   13 1
    27   12   63 1
    28   12   64 1
    29   13   14 1
    30   13   65 1
    31   13   66 1
    32   14   15 1
    33   15   16 1
    34   15   67 1
    35   15   68 1
    36   16   17 1
    37   16   18 1
    38   16   43 1
    39   18   19 1
    40   18   69 1
    41   18   70 1
    42   19   20 1
    43   19   21 1
    44   19   28 1
    45   21   22 1
    46   21   71 1
    47   21   72 1
    48   22   27 ar
    49   22   23 ar
    50   23   24 ar
    51   23   73 1
    52   24   25 ar
    53   24   74 1
    54   25   26 ar
    55   25   75 1
    56   26   27 ar
    57   26   76 1
    58   27   77 1
    59   28   29 2
    60   28   30 am
    61   30   31 1
    62   30   78 1
    63   31   32 1
    64   31   40 1
    65   31   33 1
    66   33   38 ar
    67   33   34 ar
    68   34   35 ar
    69   34   79 1
    70   35   36 ar
    71   35   80 1
    72   36   37 ar
    73   36   81 1
    74   37   38 ar
    75   37   82 1
    76   38   39 1
    77   39   40 1
    78   39   83 1
    79   39   84 1
    80   40   41 1
    81   40   42 1
    82   42   85 1
    83   43   86 1
    84   44   45 1
    85   44   87 1
    86   44   88 1
    87   45   50 ar
    88   45   46 ar
    89   46   47 ar
    90   46   89 1
    91   47   48 ar
    92   47   90 1
    93   48   49 ar
    94   48   91 1
    95   49   50 ar
    96   50   92 1
@<TRIPOS>MOLECULE
ZINC22448696
   93    97     0     0     0
SMALL
USER_CHARGES
(2S)-1-[(2S,4R)-4-benzyl-2-hydroxy-5-[[(1S,2R)-2-hydroxyindan-1-yl]amino]-5-oxo-pentyl]-N-tert-butyl-4-(3-pyridylmethyl)piperazine-2-carboxamide
@<TRIPOS>ATOM
      1 C1         -5.5944    1.9794   -4.4560 C.3       1 <0>        -0.1645
      2 C2         -7.1095    1.8351   -4.3001 C.3       1 <0>         0.1776
      3 C3         -7.6485    0.9076   -5.3910 C.3       1 <0>        -0.1585
      4 C4         -7.7686    3.2099   -4.4280 C.3       1 <0>        -0.1675
      5 N1         -7.4132    1.2686   -2.9836 N.am      1 <0>        -0.7173
      6 C5         -7.0312    1.9180   -1.8661 C.2       1 <0>         0.5399
      7 O1         -6.4362    2.9714   -1.9503 O.2       1 <0>        -0.5099
      8 C6         -7.3436    1.3353   -0.5119 C.3       1 <0>         0.0317
      9 H1         -7.2584    0.2393   -0.5522 H         1 <0>         0.1222
     10 C7         -8.7499    1.7619   -0.0845 C.3       1 <0>         0.0057
     11 N2         -9.0367    1.2246    1.2530 N.4       1 <0>        -0.3956
     12 C8         -8.0593    1.7147    2.2349 C.3       1 <0>        -0.0056
     13 C9         -6.6530    1.2881    1.8075 C.3       1 <0>         0.0240
     14 N3         -6.3662    1.8253    0.4700 N.3       1 <0>        -0.5107
     15 C10        -4.9950    1.5005    0.0551 C.3       1 <0>         0.0544
     16 C11        -4.8435   -0.0176   -0.0614 C.3       1 <0>         0.0888
     17 H2         -5.2277   -0.5268    0.8347 H         1 <0>         0.0507
     18 C12        -3.3746   -0.3659   -0.3105 C.3       1 <0>        -0.1371
     19 C13        -3.1905   -1.8829   -0.2356 C.3       1 <0>        -0.0958
     20 H3         -3.5986   -2.2628    0.7126 H         1 <0>         0.0864
     21 C14        -3.9105   -2.5428   -1.4133 C.3       1 <0>        -0.0686
     22 C15        -3.7727   -4.0400   -1.3112 C.ar      1 <0>        -0.0998
     23 C16        -2.7920   -4.6947   -2.0327 C.ar      1 <0>        -0.0951
     24 C17        -2.6631   -6.0676   -1.9360 C.ar      1 <0>        -0.1166
     25 C18        -3.5202   -6.7868   -1.1241 C.ar      1 <0>        -0.1146
     26 C19        -4.5042   -6.1327   -0.4066 C.ar      1 <0>        -0.1207
     27 C20        -4.6306   -4.7594   -0.5003 C.ar      1 <0>        -0.1195
     28 C21        -1.7215   -2.2142   -0.2954 C.2       1 <0>         0.5240
     29 O2         -1.1623   -2.2994   -1.3683 O.2       1 <0>        -0.5365
     30 N4         -1.0292   -2.4157    0.8432 N.am      1 <0>        -0.7149
     31 C22         0.4184   -2.6342    0.7914 C.3       1 <0>         0.1996
     32 H4          0.5830   -3.2135   -0.1291 H         1 <0>         0.0998
     33 C23         1.1496   -1.3089    0.7777 C.ar      1 <0>        -0.1142
     34 C24         1.3596   -0.4103   -0.2550 C.ar      1 <0>        -0.0832
     35 C25         2.0677    0.7539   -0.0302 C.ar      1 <0>        -0.1227
     36 C26         2.5692    1.0240    1.2296 C.ar      1 <0>        -0.1068
     37 C27         2.3607    0.1292    2.2607 C.ar      1 <0>        -0.1112
     38 C28         1.6508   -1.0388    2.0372 C.ar      1 <0>        -0.0879
     39 C29         1.2906   -2.1640    2.9835 C.3       1 <0>        -0.1129
     40 C30         0.8987   -3.3473    2.0733 C.3       1 <0>         0.1169
     41 H5          1.6739   -4.1143    1.9295 H         1 <0>         0.0829
     42 O3         -0.1598   -4.1089    2.6578 O.3       1 <0>        -0.5995
     43 O4         -5.6371   -0.4932   -1.1505 O.3       1 <0>        -0.6116
     44 C31       -10.4079    1.5495    1.6679 C.3       1 <0>         0.0517
     45 C32       -10.7471    0.7868    2.9226 C.ar      1 <0>        -0.2160
     46 C33       -11.3252   -0.4713    2.8450 C.ar      1 <0>        -0.0470
     47 C34       -11.6158   -1.1378    4.0252 C.ar      1 <0>        -0.1655
     48 C35       -11.3308   -0.5265    5.2317 C.ar      1 <0>         0.1367
     49 N5        -10.7852    0.6734    5.2676 N.ar      1 <0>        -0.4745
     50 C36       -10.4912    1.3347    4.1651 C.ar      1 <0>         0.1296
     51 H6         -5.2070    2.6463   -3.6716 H         1 <0>         0.0757
     52 H7         -5.3664    2.4047   -5.4445 H         1 <0>         0.0636
     53 H8         -5.1206    0.9910   -4.3639 H         1 <0>         0.0570
     54 H9         -8.7378    0.8039   -5.2788 H         1 <0>         0.0613
     55 H10        -7.1747   -0.0808   -5.2990 H         1 <0>         0.0643
     56 H11        -7.4205    1.3329   -6.3795 H         1 <0>         0.0766
     57 H12        -8.8579    3.1061   -4.3159 H         1 <0>         0.0522
     58 H13        -7.5406    3.6353   -5.4165 H         1 <0>         0.0670
     59 H14        -7.3811    3.8767   -3.6436 H         1 <0>         0.0771
     60 H15        -7.9530    0.3132   -2.9072 H         1 <0>         0.4151
     61 H16        -8.8083    2.8601   -0.0598 H         1 <0>         0.1403
     62 H17        -9.4857    1.3717   -0.8030 H         1 <0>         0.1372
     63 H18        -8.1106    2.8123    2.2869 H         1 <0>         0.1396
     64 H19        -8.2879    1.2897    3.2234 H         1 <0>         0.1331
     65 H20        -5.9172    1.6784    2.5260 H         1 <0>         0.1264
     66 H21        -6.5945    0.1899    1.7829 H         1 <0>         0.0614
     67 H22        -4.7870    1.9657   -0.9198 H         1 <0>         0.1118
     68 H23        -4.2851    1.8835    0.8030 H         1 <0>         0.1019
     69 H24        -3.0772   -0.0092   -1.3077 H         1 <0>         0.0889
     70 H25        -2.7484    0.1177    0.4537 H         1 <0>         0.0786
     71 H26        -4.9760   -2.2703   -1.3909 H         1 <0>         0.0891
     72 H27        -3.4633   -2.1969   -2.3569 H         1 <0>         0.0956
     73 H28        -2.1247   -4.1332   -2.6697 H         1 <0>         0.1284
     74 H29        -1.8946   -6.5787   -2.4969 H         1 <0>         0.1223
     75 H30        -3.4212   -7.8597   -1.0507 H         1 <0>         0.1222
     76 H31        -5.1739   -6.6947    0.2274 H         1 <0>         0.1206
     77 H32        -5.3993   -4.2484    0.0603 H         1 <0>         0.1131
     78 H33        -1.5512   -2.4161    1.8115 H         1 <0>         0.4214
     79 H34         0.9686   -0.6208   -1.2395 H         1 <0>         0.1238
     80 H35         2.2298    1.4524   -0.8377 H         1 <0>         0.1260
     81 H36         3.1237    1.9336    1.4070 H         1 <0>         0.1270
     82 H37         2.7527    0.3409    3.2445 H         1 <0>         0.1219
     83 H38         2.1602   -2.4074    3.6116 H         1 <0>         0.0830
     84 H39         0.4524   -1.8509    3.6233 H         1 <0>         0.0909
     85 H40         0.0183   -4.6798    3.5810 H         1 <0>         0.4181
     86 H41        -5.6555   -1.5667   -1.3900 H         1 <0>         0.4031
     87 H42       -10.4859    2.6293    1.8628 H         1 <0>         0.1396
     88 H43       -11.1091    1.2697    0.8679 H         1 <0>         0.1411
     89 H44       -11.5404   -0.9227    1.8877 H         1 <0>         0.1447
     90 H45       -12.0630   -2.1206    4.0023 H         1 <0>         0.1505
     91 H46       -11.5579   -1.0374    6.1558 H         1 <0>         0.1703
     92 H47       -10.0449    2.3158    4.2342 H         1 <0>         0.1620
     93 H48        -8.9500    0.1291    1.2050 H         1 <0>         0.4353
@<TRIPOS>BOND
     1    1    2 1
     2    1   51 1
     3    1   52 1
     4    1   53 1
     5    2    3 1
     6    2    4 1
     7    2    5 1
     8    3   54 1
     9    3   55 1
    10    3   56 1
    11    4   57 1
    12    4   58 1
    13    4   59 1
    14    5    6 am
    15    5   60 1
    16    6    7 2
    17    6    8 1
    18    8    9 1
    19    8   14 1
    20    8   10 1
    21   10   11 1
    22   10   61 1
    23   10   62 1
    24   11   12 1
    25   11   44 1
    26   11   93 1
    27   12   13 1
    28   12   63 1
    29   12   64 1
    30   13   14 1
    31   13   65 1
    32   13   66 1
    33   14   15 1
    34   15   16 1
    35   15   67 1
    36   15   68 1
    37   16   17 1
    38   16   18 1
    39   16   43 1
    40   18   19 1
    41   18   69 1
    42   18   70 1
    43   19   20 1
    44   19   21 1
    45   19   28 1
    46   21   22 1
    47   21   71 1
    48   21   72 1
    49   22   27 ar
    50   22   23 ar
    51   23   24 ar
    52   23   73 1
    53   24   25 ar
    54   24   74 1
    55   25   26 ar
    56   25   75 1
    57   26   27 ar
    58   26   76 1
    59   27   77 1
    60   28   29 2
    61   28   30 am
    62   30   31 1
    63   30   78 1
    64   31   32 1
    65   31   40 1
    66   31   33 1
    67   33   38 ar
    68   33   34 ar
    69   34   35 ar
    70   34   79 1
    71   35   36 ar
    72   35   80 1
    73   36   37 ar
    74   36   81 1
    75   37   38 ar
    76   37   82 1
    77   38   39 1
    78   39   40 1
    79   39   83 1
    80   39   84 1
    81   40   41 1
    82   40   42 1
    83   42   85 1
    84   43   86 1
    85   44   45 1
    86   44   87 1
    87   44   88 1
    88   45   50 ar
    89   45   46 ar
    90   46   47 ar
    91   46   89 1
    92   47   48 ar
    93   47   90 1
    94   48   49 ar
    95   48   91 1
    96   49   50 ar
    97   50   92 1
@<TRIPOS>MOLECULE
ZINC03809192
   70    72     0     0     0
SMALL
USER_CHARGES

@<TRIPOS>ATOM
      1 C1          0.3679    1.5402   -0.4399 C.3       1 <0>        -0.1487
      2 C2          0.2023    0.0937    0.0302 C.3       1 <0>        -0.1208
      3 C3          1.0206   -0.1253    1.3043 C.3       1 <0>        -0.1494
      4 C4         -1.2745   -0.1829    0.3187 C.3       1 <0>         0.1161
      5 N1         -1.4537   -1.6034    0.6291 N.pl3     1 <0>        -0.9867
      6 C5         -1.2714   -2.0819    2.0018 C.3       1 <0>         0.0865
      7 C6         -2.5657   -1.8736    2.7906 C.3       1 <0>         0.0797
      8 H1         -2.8629   -0.8265    2.7312 H         1 <0>         0.1147
      9 C7         -2.3382   -2.2568    4.2543 C.3       1 <0>         0.1410
     10 H2         -1.4926   -1.6942    4.6500 H         1 <0>         0.1038
     11 C8         -2.0430   -3.7551    4.3492 C.3       1 <0>        -0.1081
     12 C9         -1.6984   -4.1100    5.7726 C.ar      1 <0>        -0.0639
     13 C10        -0.3851   -4.0540    6.2004 C.ar      1 <0>        -0.1052
     14 C11        -0.0690   -4.3796    7.5061 C.ar      1 <0>        -0.1122
     15 C12        -1.0662   -4.7607    8.3843 C.ar      1 <0>        -0.1191
     16 C13        -2.3797   -4.8159    7.9567 C.ar      1 <0>        -0.1148
     17 C14        -2.6963   -4.4862    6.6522 C.ar      1 <0>        -0.1102
     18 N2         -3.5393   -1.9455    5.0330 N.am      1 <0>        -0.6992
     19 C15        -3.4423   -1.7111    6.3567 C.2       1 <0>         0.6446
     20 O1         -2.3586   -1.7580    6.9042 O.2       1 <0>        -0.5481
     21 O2         -4.5462   -1.4249    7.0723 O.3       1 <0>        -0.3520
     22 C16        -4.3696   -1.1876    8.4704 C.3       1 <0>         0.0774
     23 H3         -3.3809   -0.7744    8.6701 H         1 <0>         0.1032
     24 C17        -5.4810   -0.2504    9.0166 C.3       1 <0>        -0.1545
     25 C18        -5.5484   -0.7053   10.4963 C.3       1 <0>         0.0521
     26 O3         -5.3312   -2.1248   10.4625 O.3       1 <0>        -0.3762
     27 C19        -4.5981   -2.4817    9.2805 C.3       1 <0>         0.0369
     28 O4         -3.5974   -2.6937    2.2383 O.3       1 <0>        -0.5483
     29 S1         -1.8623   -2.6682   -0.5715 S.o2      1 <0>         2.6994
     30 O5         -2.4948   -3.7717    0.0622 O.2       1 <0>        -0.9529
     31 O6         -2.4979   -1.9078   -1.5898 O.2       1 <0>        -0.9584
     32 C20        -0.3597   -3.2772   -1.2614 C.ar      1 <0>        -0.7371
     33 C21         0.2301   -2.6155   -2.3228 C.ar      1 <0>         0.0283
     34 C22         1.4078   -3.0901   -2.8659 C.ar      1 <0>        -0.2167
     35 C23         2.0000   -4.2335   -2.3448 C.ar      1 <0>         0.2691
     36 C24         1.4048   -4.8957   -1.2785 C.ar      1 <0>        -0.2174
     37 C25         0.2301   -4.4125   -0.7365 C.ar      1 <0>         0.0275
     38 N3          3.1909   -4.7165   -2.8919 N.pl3     1 <0>        -0.8660
     39 H4          1.4200    1.7373   -0.6455 H         1 <0>         0.0585
     40 H5         -0.2151    1.6962   -1.3477 H         1 <0>         0.0593
     41 H6          0.0166    2.2177    0.3384 H         1 <0>         0.0583
     42 H7          0.5536   -0.5837   -0.7481 H         1 <0>         0.0733
     43 H8          1.0168   -1.1846    1.5610 H         1 <0>         0.0586
     44 H9          2.0461    0.2047    1.1387 H         1 <0>         0.0551
     45 H10         0.5818    0.4481    2.1209 H         1 <0>         0.0566
     46 H11        -1.5975    0.4183    1.1686 H         1 <0>         0.0856
     47 H12        -1.8704    0.0756   -0.5567 H         1 <0>         0.0963
     48 H13        -1.0219   -3.1428    1.9866 H         1 <0>         0.0905
     49 H14        -0.4631   -1.5253    2.4762 H         1 <0>         0.1011
     50 H15        -2.9219   -4.3191    4.0367 H         1 <0>         0.0838
     51 H16        -1.2031   -4.0018    3.6997 H         1 <0>         0.0884
     52 H17         0.3941   -3.7562    5.5143 H         1 <0>         0.1147
     53 H18         0.9572   -4.3365    7.8401 H         1 <0>         0.1163
     54 H19        -0.8192   -5.0158    9.4042 H         1 <0>         0.1159
     55 H20        -3.1587   -5.1140    8.6427 H         1 <0>         0.1145
     56 H21        -3.7229   -4.5257    6.3192 H         1 <0>         0.1098
     57 H22        -4.4045   -1.9080    4.5959 H         1 <0>         0.4121
     58 H23        -5.1851    0.7959    8.9404 H         1 <0>         0.0938
     59 H24        -6.4287   -0.4267    8.5079 H         1 <0>         0.0938
     60 H25        -4.7669   -0.2167   11.0782 H         1 <0>         0.0671
     61 H26        -6.5292   -0.4825   10.9163 H         1 <0>         0.0952
     62 H27        -5.1756   -3.1916    8.6883 H         1 <0>         0.0787
     63 H28        -3.6388   -2.9209    9.5543 H         1 <0>         0.0815
     64 H29        -3.4004   -3.6402    2.2581 H         1 <0>         0.3863
     65 H30        -0.2310   -1.7268   -2.7277 H         1 <0>         0.1369
     66 H31         1.8677   -2.5730   -3.6950 H         1 <0>         0.1298
     67 H32         1.8624   -5.7852   -0.8712 H         1 <0>         0.1298
     68 H33        -0.2308   -4.9244    0.0953 H         1 <0>         0.1368
     69 H34         3.6053   -4.2533   -3.6367 H         1 <0>         0.4037
     70 H35         3.6034   -5.5150   -2.5272 H         1 <0>         0.4036
@<TRIPOS>BOND
     1    1    2 1
     2    1   39 1
     3    1   40 1
     4    1   41 1
     5    2    3 1
     6    2    4 1
     7    2   42 1
     8    3   43 1
     9    3   44 1
    10    3   45 1
    11    4    5 1
    12    4   46 1
    13    4   47 1
    14    5    6 1
    15    5   29 1
    16    6    7 1
    17    6   48 1
    18    6   49 1
    19    7    8 1
    20    7    9 1
    21    7   28 1
    22    9   10 1
    23    9   11 1
    24    9   18 1
    25   11   12 1
    26   11   50 1
    27   11   51 1
    28   12   17 ar
    29   12   13 ar
    30   13   14 ar
    31   13   52 1
    32   14   15 ar
    33   14   53 1
    34   15   16 ar
    35   15   54 1
    36   16   17 ar
    37   16   55 1
    38   17   56 1
    39   18   19 am
    40   18   57 1
    41   19   20 2
    42   19   21 1
    43   21   22 1
    44   22   23 1
    45   22   27 1
    46   22   24 1
    47   24   25 1
    48   24   58 1
    49   24   59 1
    50   25   26 1
    51   25   60 1
    52   25   61 1
    53   26   27 1
    54   27   62 1
    55   27   63 1
    56   28   64 1
    57   29   30 2
    58   29   31 2
    59   29   32 1
    60   32   37 ar
    61   32   33 ar
    62   33   34 ar
    63   33   65 1
    64   34   35 ar
    65   34   66 1
    66   35   36 ar
    67   35   38 1
    68   36   37 ar
    69   36   67 1
    70   37   68 1
    71   38   69 1
    72   38   70 1
@<TRIPOS>MOLECULE
ZINC03941496
  103   105     0     0     0
SMALL
USER_CHARGES
methyl N-[(1S)-1-[[[(2S,3S)-2-hydroxy-3-[[(2S)-2-(methoxycarbonylamino)-3,3-dimethyl-butanoyl]amino]-4-phenyl-butyl]-[[4-(2-pyridyl)phenyl]methyl]amino]carbamoyl]-2,2-dimethyl-propyl]carbamate
@<TRIPOS>ATOM
      1 C1          4.7837    3.1462    2.5549 C.3       1 <0>        -0.1494
      2 C2          6.1707    3.7555    2.7690 C.3       1 <0>        -0.0727
      3 C3          6.7668    3.2212    4.0729 C.3       1 <0>        -0.1325
      4 C4          6.0517    5.2788    2.8492 C.3       1 <0>        -0.1434
      5 C5          7.0806    3.3759    1.5990 C.3       1 <0>         0.1581
      6 H1          7.1098    2.2910    1.4986 H         1 <0>         0.1078
      7 C6          6.5449    3.9837    0.3283 C.2       1 <0>         0.5231
      8 O1          6.9108    5.0871   -0.0174 O.2       1 <0>        -0.5041
      9 N1          5.6592    3.3010   -0.4240 N.am      1 <0>        -0.7238
     10 C7          5.2102    3.8500   -1.7059 C.3       1 <0>         0.1223
     11 H2          5.1447    4.9356   -1.6333 H         1 <0>         0.0999
     12 C8          6.2096    3.4716   -2.8008 C.3       1 <0>        -0.0870
     13 C9          7.5335    4.1363   -2.5242 C.ar      1 <0>        -0.0669
     14 C10         7.7997    5.3893   -3.0438 C.ar      1 <0>        -0.1069
     15 C11         9.0122    6.0011   -2.7860 C.ar      1 <0>        -0.1114
     16 C12         9.9625    5.3554   -2.0174 C.ar      1 <0>        -0.1199
     17 C13         9.6984    4.1002   -1.5021 C.ar      1 <0>        -0.1115
     18 C14         8.4838    3.4906   -1.7556 C.ar      1 <0>        -0.1116
     19 C15         3.8339    3.2780   -2.0517 C.3       1 <0>         0.1057
     20 H3          3.4999    3.6865   -3.0055 H         1 <0>         0.1149
     21 C16         2.8346    3.6565   -0.9568 C.3       1 <0>        -0.0004
     22 N2          1.5132    3.1073   -1.2888 N.3       1 <0>        -0.2696
     23 C17         0.5544    3.3492   -0.2024 C.3       1 <0>         0.0734
     24 C18        -0.7201    2.5944   -0.4798 C.ar      1 <0>        -0.0682
     25 C19        -0.8245    1.2628   -0.1200 C.ar      1 <0>        -0.0901
     26 C20        -1.9893    0.5667   -0.3717 C.ar      1 <0>        -0.0769
     27 C21        -3.0594    1.2061   -0.9947 C.ar      1 <0>        -0.0449
     28 C22        -2.9503    2.5491   -1.3506 C.ar      1 <0>        -0.1002
     29 C23        -1.7809    3.2356   -1.0937 C.ar      1 <0>        -0.1106
     30 C24        -4.3118    0.4614   -1.2733 C.ar      1 <0>         0.1685
     31 C25        -5.3765    1.1089   -1.8966 C.ar      1 <0>        -0.1632
     32 C26        -6.5383    0.4010   -2.1504 C.ar      1 <0>        -0.0715
     33 C27        -6.5973   -0.9330   -1.7721 C.ar      1 <0>        -0.1760
     34 C28        -5.5029   -1.5124   -1.1574 C.ar      1 <0>         0.1058
     35 N3         -4.4067   -0.8169   -0.9320 N.ar      1 <0>        -0.4777
     36 N4          1.0537    3.6174   -2.4698 N.am      1 <0>        -0.5816
     37 C29         0.7379    2.7884   -3.4844 C.2       1 <0>         0.5369
     38 O2          0.9601    1.6000   -3.3881 O.2       1 <0>        -0.4712
     39 C30         0.1086    3.3381   -4.7386 C.3       1 <0>         0.1579
     40 H4         -0.7050    2.6846   -5.0533 H         1 <0>         0.1351
     41 C31         1.1609    3.4124   -5.8467 C.3       1 <0>        -0.0688
     42 C32         1.6088    1.9980   -6.2205 C.3       1 <0>        -0.1466
     43 C33         0.5602    4.0985   -7.0753 C.3       1 <0>        -0.1375
     44 C34         2.3661    4.2151   -5.3526 C.3       1 <0>        -0.1548
     45 N5         -0.4171    4.6795   -4.4736 N.am      1 <0>        -0.7057
     46 C35        -1.6376    5.0269   -4.9278 C.2       1 <0>         0.6507
     47 O3         -2.3018    4.2274   -5.5572 O.2       1 <0>        -0.5575
     48 O4         -2.1208    6.2597   -4.6843 O.3       1 <0>        -0.3717
     49 C36        -3.4420    6.5644   -5.2037 C.3       1 <0>         0.0561
     50 O5          3.9198    1.8548   -2.1469 O.3       1 <0>        -0.5227
     51 N6          8.4333    3.8799    1.8489 N.am      1 <0>        -0.6897
     52 C37         9.2968    3.1549    2.5873 C.2       1 <0>         0.6510
     53 O6          8.9533    2.0833    3.0458 O.2       1 <0>        -0.5656
     54 O7         10.5399    3.6181    2.8170 O.3       1 <0>        -0.3702
     55 C38        11.4160    2.7844    3.6205 C.3       1 <0>         0.0567
     56 H5          4.8826    2.0797    2.3529 H         1 <0>         0.0621
     57 H6          4.1806    3.2918    3.4511 H         1 <0>         0.0687
     58 H7          4.2997    3.6330    1.7083 H         1 <0>         0.0565
     59 H8          7.7549    3.6553    4.2254 H         1 <0>         0.0512
     60 H9          6.1185    3.4917    4.9064 H         1 <0>         0.0541
     61 H10         6.8515    2.1360    4.0157 H         1 <0>         0.0699
     62 H11         5.6270    5.6595    1.9203 H         1 <0>         0.0598
     63 H12         5.4034    5.5492    3.6827 H         1 <0>         0.0583
     64 H13         7.0398    5.7129    3.0017 H         1 <0>         0.0582
     65 H14         5.3190    2.4462   -0.1167 H         1 <0>         0.3969
     66 H15         6.3419    2.3897   -2.8138 H         1 <0>         0.0833
     67 H16         5.8317    3.8030   -3.7680 H         1 <0>         0.0815
     68 H17         7.0589    5.8919   -3.6480 H         1 <0>         0.1136
     69 H18         9.2187    6.9816   -3.1889 H         1 <0>         0.1161
     70 H19        10.9116    5.8315   -1.8197 H         1 <0>         0.1158
     71 H20        10.4410    3.5956   -0.9019 H         1 <0>         0.1124
     72 H21         8.2776    2.5098   -1.3533 H         1 <0>         0.1079
     73 H22         2.7690    4.7421   -0.8841 H         1 <0>         0.0539
     74 H23         3.1686    3.2480   -0.0030 H         1 <0>         0.0970
     75 H24         0.3386    4.4158   -0.1390 H         1 <0>         0.0520
     76 H25         0.9807    3.0081    0.7410 H         1 <0>         0.0991
     77 H26         0.0069    0.7672    0.3590 H         1 <0>         0.1260
     78 H27        -2.0698   -0.4729   -0.0904 H         1 <0>         0.1346
     79 H28        -3.7779    3.0506   -1.8303 H         1 <0>         0.1219
     80 H29        -1.6941    4.2754   -1.3722 H         1 <0>         0.1153
     81 H30        -5.2965    2.1487   -2.1773 H         1 <0>         0.1350
     82 H31        -7.3804    0.8761   -2.6318 H         1 <0>         0.1365
     83 H32        -7.4897   -1.5129   -1.9559 H         1 <0>         0.1367
     84 H33        -5.5453   -2.5504   -0.8621 H         1 <0>         0.1589
     85 H34         0.9547    4.5762   -2.5781 H         1 <0>         0.3691
     86 H35         0.7406    1.4073   -6.5129 H         1 <0>         0.0598
     87 H36         2.3115    2.0473   -7.0522 H         1 <0>         0.0610
     88 H37         2.0932    1.5317   -5.3626 H         1 <0>         0.0751
     89 H38         0.2411    5.1062   -6.8090 H         1 <0>         0.0521
     90 H39         1.3099    4.1515   -7.8647 H         1 <0>         0.0618
     91 H40        -0.2984    3.5267   -7.4273 H         1 <0>         0.0628
     92 H41         2.7941    3.7263   -4.4774 H         1 <0>         0.0623
     93 H42         3.1158    4.2681   -6.1421 H         1 <0>         0.0681
     94 H43         2.0470    5.2228   -5.0863 H         1 <0>         0.0544
     95 H44         0.1131    5.3178   -3.9712 H         1 <0>         0.4012
     96 H45        -3.4389    6.4601   -6.2887 H         1 <0>         0.0656
     97 H46        -4.1690    5.8749   -4.7745 H         1 <0>         0.0647
     98 H47        -3.7101    7.5869   -4.9377 H         1 <0>         0.1046
     99 H48         4.2119    1.4230   -1.3325 H         1 <0>         0.3656
    100 H49         8.7075    4.7353    1.4829 H         1 <0>         0.4159
    101 H50        11.5487    1.8194    3.1312 H         1 <0>         0.0645
    102 H51        12.3843    3.2732    3.7286 H         1 <0>         0.1037
    103 H52        10.9728    2.6346    4.6050 H         1 <0>         0.0644
@<TRIPOS>BOND
     1    1    2 1
     2    1   56 1
     3    1   57 1
     4    1   58 1
     5    2    3 1
     6    2    4 1
     7    2    5 1
     8    3   59 1
     9    3   60 1
    10    3   61 1
    11    4   62 1
    12    4   63 1
    13    4   64 1
    14    5    6 1
    15    5    7 1
    16    5   51 1
    17    7    8 2
    18    7    9 am
    19    9   10 1
    20    9   65 1
    21   10   11 1
    22   10   12 1
    23   10   19 1
    24   12   13 1
    25   12   66 1
    26   12   67 1
    27   13   18 ar
    28   13   14 ar
    29   14   15 ar
    30   14   68 1
    31   15   16 ar
    32   15   69 1
    33   16   17 ar
    34   16   70 1
    35   17   18 ar
    36   17   71 1
    37   18   72 1
    38   19   20 1
    39   19   21 1
    40   19   50 1
    41   21   22 1
    42   21   73 1
    43   21   74 1
    44   22   23 1
    45   22   36 1
    46   23   24 1
    47   23   75 1
    48   23   76 1
    49   24   29 ar
    50   24   25 ar
    51   25   26 ar
    52   25   77 1
    53   26   27 ar
    54   26   78 1
    55   27   28 ar
    56   27   30 1
    57   28   29 ar
    58   28   79 1
    59   29   80 1
    60   30   35 ar
    61   30   31 ar
    62   31   32 ar
    63   31   81 1
    64   32   33 ar
    65   32   82 1
    66   33   34 ar
    67   33   83 1
    68   34   35 ar
    69   34   84 1
    70   36   37 am
    71   36   85 1
    72   37   38 2
    73   37   39 1
    74   39   40 1
    75   39   41 1
    76   39   45 1
    77   41   42 1
    78   41   43 1
    79   41   44 1
    80   42   86 1
    81   42   87 1
    82   42   88 1
    83   43   89 1
    84   43   90 1
    85   43   91 1
    86   44   92 1
    87   44   93 1
    88   44   94 1
    89   45   46 am
    90   45   95 1
    91   46   47 2
    92   46   48 1
    93   48   49 1
    94   49   96 1
    95   49   97 1
    96   49   98 1
    97   50   99 1
    98   51   52 am
    99   51  100 1
   100   52   53 2
   101   52   54 1
   102   54   55 1
   103   55  101 1
   104   55  102 1
   105   55  103 1
@<TRIPOS>MOLECULE
ZINC03779042
   32    33     0     0     0
SMALL
USER_CHARGES

@<TRIPOS>ATOM
      1 C1         -0.0184    1.5028    0.0103 C.3       1 <0>        -0.0871
      2 C2          0.0021   -0.0041    0.0020 C.2       1 <0>        -0.2505
      3 C3         -1.1526   -0.7039    0.0037 C.2       1 <0>         0.1638
      4 N1         -1.1160   -2.0718   -0.0039 N.am      1 <0>        -0.5289
      5 C4          0.0598   -2.7257   -0.0125 C.2       1 <0>         0.6982
      6 O1          0.0693   -3.9416   -0.0187 O.2       1 <0>        -0.5214
      7 N2          1.2256   -2.0531   -0.0148 N.am      1 <0>        -0.6592
      8 H1          2.0644   -2.5402   -0.0217 H         1 <0>         0.4323
      9 C5          1.2322   -0.7047   -0.0135 C.2       1 <0>         0.5527
     10 O2          2.2865   -0.0953   -0.0208 O.2       1 <0>        -0.5056
     11 C6         -2.3687   -2.8312   -0.0021 C.3       1 <0>         0.3096
     12 H2         -3.2193   -2.1584    0.1071 H         1 <0>         0.1252
     13 C7         -2.4992   -3.6565   -1.3014 C.3       1 <0>        -0.1823
     14 C8         -3.1605   -4.9757   -0.8435 C.3       1 <0>         0.0822
     15 H3         -2.5046   -5.8223   -1.0463 H         1 <0>         0.1042
     16 C9         -3.3514   -4.7913    0.6783 C.3       1 <0>         0.1102
     17 H4         -4.3537   -4.4206    0.8929 H         1 <0>         0.1060
     18 O3         -2.3620   -3.8096    1.0602 O.3       1 <0>        -0.3416
     19 C10        -3.1055   -6.1124    1.4099 C.3       1 <0>         0.0840
     20 O4         -3.3996   -5.9498    2.7988 O.3       1 <0>        -0.5643
     21 N3         -4.4535   -5.1591   -1.5074 N.2       1 <0>        -0.3983
     22 N4         -4.4962   -5.3273   -2.6179 N.1       1 <0>         0.3002
     23 N5         -4.5380   -5.4918   -3.7047 N.1       1 <0>        -0.1548
     24 H5          1.0042    1.8801    0.0026 H         1 <0>         0.0822
     25 H6         -0.5455    1.8639   -0.8728 H         1 <0>         0.0726
     26 H7         -0.5286    1.8543    0.9071 H         1 <0>         0.0733
     27 H8         -2.1006   -0.1866    0.0113 H         1 <0>         0.1811
     28 H9         -3.1353   -3.1397   -2.0199 H         1 <0>         0.0946
     29 H10        -1.5163   -3.8510   -1.7306 H         1 <0>         0.1046
     30 H11        -3.7492   -6.8855    0.9903 H         1 <0>         0.0692
     31 H12        -2.0621   -6.4046    1.2913 H         1 <0>         0.0616
     32 H13        -3.2657   -6.7496    3.3255 H         1 <0>         0.3863
@<TRIPOS>BOND
     1    1    2 1
     2    1   24 1
     3    1   25 1
     4    1   26 1
     5    2    9 1
     6    2    3 2
     7    3    4 1
     8    3   27 1
     9    4    5 am
    10    4   11 1
    11    5    6 2
    12    5    7 am
    13    7    8 1
    14    7    9 am
    15    9   10 2
    16   11   12 1
    17   11   18 1
    18   11   13 1
    19   13   14 1
    20   13   28 1
    21   13   29 1
    22   14   15 1
    23   14   16 1
    24   14   21 1
    25   16   17 1
    26   16   18 1
    27   16   19 1
    28   19   20 1
    29   19   30 1
    30   19   31 1
    31   20   32 1
    32   21   22 2
    33   22   23 2
@<TRIPOS>MOLECULE
ZINC03955219
   75    78     0     0     0
SMALL
USER_CHARGES

@<TRIPOS>ATOM
      1 C1          0.5656    0.5437   -1.2071 C.3       1 <0>        -0.1573
      2 C2          0.0390   -0.8565   -0.8860 C.3       1 <0>        -0.1134
      3 C3          0.9518   -1.5201    0.1471 C.3       1 <0>        -0.1483
      4 C4         -1.3789   -0.7510   -0.3208 C.3       1 <0>         0.1192
      5 N1         -2.2807   -0.2409   -1.3566 N.pl3     1 <0>        -0.9870
      6 C5         -2.5357   -1.0344   -2.5614 C.3       1 <0>         0.0922
      7 C6         -3.6581   -2.0364   -2.2841 C.3       1 <0>         0.0796
      8 H1         -3.4002   -2.6391   -1.4133 H         1 <0>         0.1155
      9 C7         -3.8399   -2.9479   -3.4995 C.3       1 <0>         0.1417
     10 H2         -2.8882   -3.4186   -3.7462 H         1 <0>         0.1041
     11 C8         -4.3228   -2.1186   -4.6912 C.3       1 <0>        -0.1079
     12 C9         -4.3842   -2.9912   -5.9183 C.ar      1 <0>        -0.0629
     13 C10        -3.2776   -3.1097   -6.7382 C.ar      1 <0>        -0.1048
     14 C11        -3.3340   -3.9101   -7.8639 C.ar      1 <0>        -0.1119
     15 C12        -4.4968   -4.5922   -8.1695 C.ar      1 <0>        -0.1197
     16 C13        -5.6032   -4.4743   -7.3491 C.ar      1 <0>        -0.1150
     17 C14        -5.5454   -3.6774   -6.2211 C.ar      1 <0>        -0.1101
     18 N2         -4.8306   -3.9819   -3.1906 N.am      1 <0>        -0.6994
     19 C15        -4.8076   -5.1562   -3.8518 C.2       1 <0>         0.6439
     20 O1         -3.9651   -5.3571   -4.7040 O.2       1 <0>        -0.5485
     21 O2         -5.7180   -6.1065   -3.5679 O.3       1 <0>        -0.3473
     22 C16        -5.6345   -7.3265   -4.3073 C.3       1 <0>         0.0856
     23 H3         -5.2155   -7.1423   -5.2965 H         1 <0>         0.1078
     24 C17        -4.7816   -8.3569   -3.5471 C.3       1 <0>         0.0375
     25 O3         -5.6052   -9.4963   -3.2792 O.3       1 <0>        -0.3543
     26 C18        -6.9827   -9.0985   -3.3468 C.3       1 <0>         0.2331
     27 H4         -7.6364   -9.9341   -3.5972 H         1 <0>         0.1297
     28 C19        -7.0269   -7.9791   -4.4265 C.3       1 <0>        -0.1487
     29 H5         -7.2412   -8.3511   -5.4283 H         1 <0>         0.1259
     30 C20        -8.0897   -7.0016   -3.8867 C.3       1 <0>        -0.1419
     31 C21        -8.2608   -7.3840   -2.4070 C.3       1 <0>         0.0590
     32 O4         -7.3571   -8.4770   -2.1094 O.3       1 <0>        -0.3841
     33 O5         -4.8749   -1.3309   -2.0316 O.3       1 <0>        -0.5503
     34 S1         -3.0120    1.2325   -1.1654 S.o2      1 <0>         2.6991
     35 O6         -4.1171    1.2563   -2.0583 O.2       1 <0>        -0.9548
     36 O7         -3.1584    1.4348    0.2335 O.2       1 <0>        -0.9585
     37 C22        -1.8779    2.4548   -1.7349 C.ar      1 <0>        -0.7365
     38 C23        -1.0565    3.1070   -0.8337 C.ar      1 <0>         0.0317
     39 C24        -0.1664    4.0656   -1.2768 C.ar      1 <0>        -0.2166
     40 C25        -0.0969    4.3743   -2.6294 C.ar      1 <0>         0.2702
     41 C26        -0.9235    3.7172   -3.5319 C.ar      1 <0>        -0.2177
     42 C27        -1.8073    2.7556   -3.0828 C.ar      1 <0>         0.0289
     43 N3          0.8018    5.3435   -3.0808 N.pl3     1 <0>        -0.8662
     44 H6          1.6118    0.4788   -1.5059 H         1 <0>         0.0554
     45 H7         -0.0186    0.9739   -2.0206 H         1 <0>         0.0618
     46 H8          0.4786    1.1760   -0.3235 H         1 <0>         0.0557
     47 H9          0.0237   -1.4564   -1.7960 H         1 <0>         0.0762
     48 H10         0.9671   -0.9202    1.0570 H         1 <0>         0.0580
     49 H11         0.5766   -2.5177    0.3758 H         1 <0>         0.0574
     50 H12         1.9619   -1.5953   -0.2556 H         1 <0>         0.0584
     51 H13        -1.7158   -1.7362    0.0013 H         1 <0>         0.0788
     52 H14        -1.3810   -0.0700    0.5303 H         1 <0>         0.0943
     53 H15        -2.8318   -0.3733   -3.3759 H         1 <0>         0.0925
     54 H16        -1.6296   -1.5720   -2.8409 H         1 <0>         0.0963
     55 H17        -5.3149   -1.7204   -4.4785 H         1 <0>         0.0834
     56 H18        -3.6303   -1.2951   -4.8652 H         1 <0>         0.0889
     57 H19        -2.3691   -2.5768   -6.4995 H         1 <0>         0.1151
     58 H20        -2.4696   -4.0021   -8.5048 H         1 <0>         0.1165
     59 H21        -4.5411   -5.2169   -9.0493 H         1 <0>         0.1154
     60 H22        -6.5118   -5.0070   -7.5880 H         1 <0>         0.1130
     61 H23        -6.4086   -3.5882   -5.5781 H         1 <0>         0.1091
     62 H24        -5.5031   -3.8215   -2.5102 H         1 <0>         0.4115
     63 H25        -3.9293   -8.6532   -4.1585 H         1 <0>         0.0992
     64 H26        -4.4315   -7.9259   -2.6092 H         1 <0>         0.0719
     65 H27        -7.7390   -5.9734   -3.9747 H         1 <0>         0.0949
     66 H28        -9.0301   -7.1298   -4.4229 H         1 <0>         0.0811
     67 H29        -8.0290   -6.5265   -1.7753 H         1 <0>         0.0852
     68 H30        -9.2853   -7.7093   -2.2262 H         1 <0>         0.0653
     69 H31        -5.1656   -0.7728   -2.7659 H         1 <0>         0.3863
     70 H32        -1.1113    2.8668    0.2178 H         1 <0>         0.1376
     71 H33         0.4746    4.5749   -0.5724 H         1 <0>         0.1294
     72 H34        -0.8722    3.9551   -4.5841 H         1 <0>         0.1290
     73 H35        -2.4471    2.2413   -3.7845 H         1 <0>         0.1342
     74 H36         1.3783    5.8019   -2.4496 H         1 <0>         0.4036
     75 H37         0.8495    5.5582   -4.0255 H         1 <0>         0.4034
@<TRIPOS>BOND
     1    1    2 1
     2    1   44 1
     3    1   45 1
     4    1   46 1
     5    2    3 1
     6    2    4 1
     7    2   47 1
     8    3   48 1
     9    3   49 1
    10    3   50 1
    11    4    5 1
    12    4   51 1
    13    4   52 1
    14    5    6 1
    15    5   34 1
    16    6    7 1
    17    6   53 1
    18    6   54 1
    19    7    8 1
    20    7    9 1
    21    7   33 1
    22    9   10 1
    23    9   11 1
    24    9   18 1
    25   11   12 1
    26   11   55 1
    27   11   56 1
    28   12   17 ar
    29   12   13 ar
    30   13   14 ar
    31   13   57 1
    32   14   15 ar
    33   14   58 1
    34   15   16 ar
    35   15   59 1
    36   16   17 ar
    37   16   60 1
    38   17   61 1
    39   18   19 am
    40   18   62 1
    41   19   20 2
    42   19   21 1
    43   21   22 1
    44   22   23 1
    45   22   28 1
    46   22   24 1
    47   24   25 1
    48   24   63 1
    49   24   64 1
    50   25   26 1
    51   26   27 1
    52   26   32 1
    53   26   28 1
    54   28   29 1
    55   28   30 1
    56   30   31 1
    57   30   65 1
    58   30   66 1
    59   31   32 1
    60   31   67 1
    61   31   68 1
    62   33   69 1
    63   34   35 2
    64   34   36 2
    65   34   37 1
    66   37   42 ar
    67   37   38 ar
    68   38   39 ar
    69   38   70 1
    70   39   40 ar
    71   39   71 1
    72   40   41 ar
    73   40   43 1
    74   41   42 ar
    75   41   72 1
    76   42   73 1
    77   43   74 1
    78   43   75 1
@<TRIPOS>MOLECULE
ZINC03944422
   98   101     0     0     0
SMALL
USER_CHARGES
thiazol-5-ylmethyl N-[(1S,2S,4S)-1-benzyl-2-hydroxy-4-[[(2S)-2-[[(2-isopropylthiazol-4-yl)methyl-methyl-carbamoyl]amino]-3-methyl-butanoyl]amino]-5-phenyl-pentyl]carbamate
@<TRIPOS>ATOM
      1 C1        -10.9943   -7.8243    6.3636 C.3       1 <0>        -0.1476
      2 C2        -10.5201   -8.9008    5.3853 C.3       1 <0>        -0.0066
      3 C3        -11.0331  -10.2676    5.8431 C.3       1 <0>        -0.1487
      4 C4        -11.0540   -8.5990    4.0088 C.2       1 <0>         0.1053
      5 N1        -10.3912   -8.3780    2.8972 N.2       1 <0>        -0.4808
      6 C5        -11.0137   -8.1215    1.7657 C.2       1 <0>         0.0462
      7 C6        -12.3709   -8.1006    1.7664 C.2       1 <0>        -0.2097
      8 S1        -12.7039   -8.4617    3.4846 S.3       1 <0>         0.0267
      9 C7        -10.2384   -7.8635    0.4995 C.3       1 <0>         0.2032
     10 N2         -9.8626   -6.4489    0.4366 N.am      1 <0>        -0.6271
     11 C8        -10.7566   -5.4812   -0.2042 C.3       1 <0>         0.0783
     12 C9         -8.6944   -6.0377    0.9683 C.2       1 <0>         0.7127
     13 O1         -7.9524   -6.8408    1.5002 O.2       1 <0>        -0.5689
     14 N3         -8.3487   -4.7363    0.9105 N.am      1 <0>        -0.7440
     15 C10        -7.0789   -4.2893    1.4885 C.3       1 <0>         0.1576
     16 H1         -6.8966   -4.8892    2.3923 H         1 <0>         0.1010
     17 C11        -5.9573   -4.4814    0.4656 C.3       1 <0>        -0.0881
     18 C12        -4.6097   -4.1775    1.1233 C.3       1 <0>        -0.1716
     19 C13        -5.9659   -5.9271   -0.0352 C.3       1 <0>        -0.1376
     20 C14        -7.1796   -2.8312    1.8556 C.2       1 <0>         0.5317
     21 O2         -8.1382   -2.1804    1.4969 O.2       1 <0>        -0.5453
     22 N4         -6.2046   -2.2504    2.5825 N.am      1 <0>        -0.7121
     23 C15        -6.3501   -0.8618    3.0262 C.3       1 <0>         0.1540
     24 H2         -7.1509   -0.4105    2.4220 H         1 <0>         0.1001
     25 C16        -6.7165   -0.8367    4.5114 C.3       1 <0>        -0.0957
     26 C17        -8.0744   -1.4612    4.7044 C.ar      1 <0>        -0.0719
     27 C18        -9.2103   -0.6751    4.6538 C.ar      1 <0>        -0.1115
     28 C19       -10.4561   -1.2488    4.8260 C.ar      1 <0>        -0.1149
     29 C20       -10.5654   -2.6069    5.0593 C.ar      1 <0>        -0.1221
     30 C21        -9.4291   -3.3922    5.1152 C.ar      1 <0>        -0.1130
     31 C22        -8.1836   -2.8194    4.9377 C.ar      1 <0>        -0.1096
     32 C23        -5.0302   -0.1176    2.8139 C.3       1 <0>        -0.1192
     33 C24        -4.7517    0.0094    1.3148 C.3       1 <0>         0.1173
     34 H3         -5.5898    0.4945    0.7931 H         1 <0>         0.0703
     35 C25        -3.4462    0.7783    1.1019 C.3       1 <0>         0.1452
     36 H4         -3.5006    1.7717    1.5712 H         1 <0>         0.0965
     37 C26        -3.1677    0.9052   -0.3971 C.3       1 <0>        -0.0986
     38 C27        -1.9495    1.7663   -0.6106 C.ar      1 <0>        -0.0635
     39 C28        -0.6949    1.1884   -0.6616 C.ar      1 <0>        -0.1088
     40 C29         0.4220    1.9776   -0.8631 C.ar      1 <0>        -0.1166
     41 C30         0.2847    3.3454   -1.0083 C.ar      1 <0>        -0.1198
     42 C31        -0.9695    3.9240   -0.9520 C.ar      1 <0>        -0.1125
     43 C32        -2.0863    3.1348   -0.7505 C.ar      1 <0>        -0.1056
     44 N5         -2.3445    0.0571    1.7440 N.am      1 <0>        -0.7102
     45 C33        -1.2410    0.7237    2.1368 C.2       1 <0>         0.6476
     46 O3         -1.1599    1.9229    1.9584 O.2       1 <0>        -0.5553
     47 O4         -0.2284    0.0609    2.7268 O.3       1 <0>        -0.3696
     48 C34         0.9287    0.8430    3.1238 C.3       1 <0>         0.1838
     49 C35         1.9514   -0.0614    3.7620 C.2       1 <0>        -0.1987
     50 C36         2.9743   -0.7502    3.1947 C.2       1 <0>         0.0601
     51 N6          3.7427   -1.4832    3.9729 N.2       1 <0>        -0.5113
     52 C37         3.5363   -1.5555    5.2676 C.2       1 <0>         0.0769
     53 S2          2.1590   -0.5187    5.4771 S.3       1 <0>         0.0668
     54 O5         -4.6363   -1.2937    0.7397 O.3       1 <0>        -0.5786
     55 H5        -10.6255   -6.8416    6.0345 H         1 <0>         0.0601
     56 H6        -10.6044   -8.0446    7.3683 H         1 <0>         0.0738
     57 H7        -12.0939   -7.8128    6.3913 H         1 <0>         0.0606
     58 H8         -9.4210   -8.9091    5.3422 H         1 <0>         0.1065
     59 H9        -10.6922  -11.0416    5.1397 H         1 <0>         0.0626
     60 H10       -12.1327  -10.2560    5.8708 H         1 <0>         0.0607
     61 H11       -10.6432  -10.4878    6.8479 H         1 <0>         0.0736
     62 H12       -13.0586   -7.9168    0.9542 H         1 <0>         0.1938
     63 H13        -9.3306   -8.4847    0.4924 H         1 <0>         0.1018
     64 H14       -10.8624   -8.1161   -0.3705 H         1 <0>         0.0928
     65 H15       -10.3077   -4.4782   -0.1541 H         1 <0>         0.0741
     66 H16       -11.7253   -5.4759    0.3170 H         1 <0>         0.0601
     67 H17       -10.9080   -5.7630   -1.2567 H         1 <0>         0.0651
     68 H18        -9.0200   -4.0098    0.4293 H         1 <0>         0.4193
     69 H19        -6.1136   -3.7986   -0.3826 H         1 <0>         0.0707
     70 H20        -3.8034   -4.3156    0.3879 H         1 <0>         0.0598
     71 H21        -4.4534   -4.8603    1.9714 H         1 <0>         0.0519
     72 H22        -4.6035   -3.1381    1.4834 H         1 <0>         0.0975
     73 H23        -5.1596   -6.0652   -0.7706 H         1 <0>         0.0447
     74 H24        -6.9348   -6.1456   -0.5080 H         1 <0>         0.0489
     75 H25        -5.8095   -6.6099    0.8130 H         1 <0>         0.0691
     76 H26        -5.2996   -2.8190    2.8426 H         1 <0>         0.4190
     77 H27        -5.9674   -1.4038    5.0835 H         1 <0>         0.0754
     78 H28        -6.7378    0.2043    4.8663 H         1 <0>         0.0814
     79 H29        -9.1246    0.3867    4.4759 H         1 <0>         0.1167
     80 H30       -11.3438   -0.6352    4.7827 H         1 <0>         0.1177
     81 H31       -11.5384   -3.0544    5.1983 H         1 <0>         0.1150
     82 H32        -9.5145   -4.4532    5.2978 H         1 <0>         0.1132
     83 H33        -7.2959   -3.4329    4.9817 H         1 <0>         0.1127
     84 H34        -5.0989    0.8854    3.2603 H         1 <0>         0.0901
     85 H35        -4.2128   -0.6768    3.2926 H         1 <0>         0.0795
     86 H36        -2.9900   -0.0934   -0.8228 H         1 <0>         0.0785
     87 H37        -4.0343    1.3665   -0.8933 H         1 <0>         0.0833
     88 H38        -0.5876    0.1197   -0.5485 H         1 <0>         0.1090
     89 H39         1.4018    1.5255   -0.9074 H         1 <0>         0.1132
     90 H40         1.1573    3.9620   -1.1660 H         1 <0>         0.1154
     91 H41        -1.0768    4.9926   -1.0658 H         1 <0>         0.1161
     92 H42        -3.0662    3.5868   -0.7069 H         1 <0>         0.1137
     93 H43        -2.4179   -1.0285    1.9055 H         1 <0>         0.4296
     94 H44         1.3674    1.3246    2.2374 H         1 <0>         0.0985
     95 H45         0.6202    1.6141    3.8451 H         1 <0>         0.0880
     96 H46         3.1532   -0.6984    2.1309 H         1 <0>         0.1713
     97 H47         4.0855   -2.1127    6.0120 H         1 <0>         0.2267
     98 H48        -4.4352   -1.4043   -0.3361 H         1 <0>         0.4024
@<TRIPOS>BOND
     1    1    2 1
     2    1   55 1
     3    1   56 1
     4    1   57 1
     5    2    3 1
     6    2    4 1
     7    2   58 1
     8    3   59 1
     9    3   60 1
    10    3   61 1
    11    4    8 1
    12    4    5 2
    13    5    6 1
    14    6    7 2
    15    6    9 1
    16    7    8 1
    17    7   62 1
    18    9   10 1
    19    9   63 1
    20    9   64 1
    21   10   11 1
    22   10   12 am
    23   11   65 1
    24   11   66 1
    25   11   67 1
    26   12   13 2
    27   12   14 am
    28   14   15 1
    29   14   68 1
    30   15   16 1
    31   15   17 1
    32   15   20 1
    33   17   18 1
    34   17   19 1
    35   17   69 1
    36   18   70 1
    37   18   71 1
    38   18   72 1
    39   19   73 1
    40   19   74 1
    41   19   75 1
    42   20   21 2
    43   20   22 am
    44   22   23 1
    45   22   76 1
    46   23   24 1
    47   23   25 1
    48   23   32 1
    49   25   26 1
    50   25   77 1
    51   25   78 1
    52   26   31 ar
    53   26   27 ar
    54   27   28 ar
    55   27   79 1
    56   28   29 ar
    57   28   80 1
    58   29   30 ar
    59   29   81 1
    60   30   31 ar
    61   30   82 1
    62   31   83 1
    63   32   33 1
    64   32   84 1
    65   32   85 1
    66   33   34 1
    67   33   35 1
    68   33   54 1
    69   35   36 1
    70   35   37 1
    71   35   44 1
    72   37   38 1
    73   37   86 1
    74   37   87 1
    75   38   43 ar
    76   38   39 ar
    77   39   40 ar
    78   39   88 1
    79   40   41 ar
    80   40   89 1
    81   41   42 ar
    82   41   90 1
    83   42   43 ar
    84   42   91 1
    85   43   92 1
    86   44   45 am
    87   44   93 1
    88   45   46 2
    89   45   47 1
    90   47   48 1
    91   48   49 1
    92   48   94 1
    93   48   95 1
    94   49   53 1
    95   49   50 2
    96   50   51 1
    97   50   96 1
    98   51   52 2
    99   52   53 1
   100   52   97 1
   101   54   98 1
@<TRIPOS>MOLECULE
ZINC03876173
   36    38     0     0     0
SMALL
USER_CHARGES

@<TRIPOS>ATOM
      1 C1         -0.4108    1.4433   -0.1609 C.3       1 <0>        -0.1574
      2 C2         -0.2348   -0.0763   -0.1364 C.3       1 <0>        -0.0961
      3 C3          0.7182   -0.4975   -1.2568 C.3       1 <0>         0.0636
      4 H1          0.3748   -0.0784   -2.2026 H         1 <0>         0.0534
      5 C4          2.1041    0.0118   -0.9554 C.ar      1 <0>        -0.0348
      6 C5          2.7645   -0.4132    0.1823 C.ar      1 <0>        -0.1059
      7 C6          4.0358    0.0540    0.4587 C.ar      1 <0>        -0.1300
      8 C7          4.6469    0.9459   -0.4027 C.ar      1 <0>        -0.1442
      9 C8          3.9869    1.3702   -1.5408 C.ar      1 <0>        -0.1290
     10 C9          2.7173    0.8997   -1.8195 C.ar      1 <0>        -0.1172
     11 C10         0.7457   -2.0011   -1.3541 C.2       1 <0>        -0.4624
     12 C11         0.2924   -2.7650   -0.3142 C.2       1 <0>         0.3433
     13 C12         0.3409   -4.2282   -0.4594 C.ar      1 <0>        -0.1693
     14 C13        -0.1060   -5.0687    0.5624 C.ar      1 <0>        -0.0417
     15 C14        -0.0474   -6.4343    0.3948 C.ar      1 <0>        -0.1686
     16 C15         0.4520   -6.9747   -0.7812 C.ar      1 <0>        -0.0843
     17 C16         0.8969   -6.1560   -1.7977 C.ar      1 <0>        -0.1559
     18 C17         0.8462   -4.7760   -1.6493 C.ar      1 <0>         0.1527
     19 O1          1.2764   -3.9596   -2.6354 O.3       1 <0>        -0.3007
     20 C18         1.2313   -2.6233   -2.5144 C.2       1 <0>         0.5127
     21 O2          1.6276   -1.9313   -3.4359 O.2       1 <0>        -0.5361
     22 O3         -0.1857   -2.1924    0.8140 O.3       1 <0>        -0.6466
     23 H2          0.5567    1.9236   -0.0146 H         1 <0>         0.0440
     24 H3         -0.8248    1.7457   -1.1228 H         1 <0>         0.0383
     25 H4         -1.0897    1.7434    0.6373 H         1 <0>         0.0408
     26 H5          0.1792   -0.3787    0.8256 H         1 <0>         0.0985
     27 H6         -1.2023   -0.5565   -0.2826 H         1 <0>         0.0561
     28 H7          2.2870   -1.1099    0.8553 H         1 <0>         0.1236
     29 H8          4.5514   -0.2775    1.3479 H         1 <0>         0.1104
     30 H9          5.6399    1.3114   -0.1863 H         1 <0>         0.1088
     31 H10         4.4643    2.0672   -2.2136 H         1 <0>         0.1101
     32 H11         2.2032    1.2283   -2.7106 H         1 <0>         0.1134
     33 H12        -0.4949   -4.6501    1.4789 H         1 <0>         0.1345
     34 H13        -0.3917   -7.0877    1.1828 H         1 <0>         0.1212
     35 H14         0.4932   -8.0472   -0.9016 H         1 <0>         0.1252
     36 H15         1.2845   -6.5876   -2.7088 H         1 <0>         0.1297
@<TRIPOS>BOND
     1    1    2 1
     2    1   23 1
     3    1   24 1
     4    1   25 1
     5    2    3 1
     6    2   26 1
     7    2   27 1
     8    3    4 1
     9    3    5 1
    10    3   11 1
    11    5   10 ar
    12    5    6 ar
    13    6    7 ar
    14    6   28 1
    15    7    8 ar
    16    7   29 1
    17    8    9 ar
    18    8   30 1
    19    9   10 ar
    20    9   31 1
    21   10   32 1
    22   11   20 1
    23   11   12 2
    24   12   13 1
    25   12   22 1
    26   13   18 ar
    27   13   14 ar
    28   14   15 ar
    29   14   33 1
    30   15   16 ar
    31   15   34 1
    32   16   17 ar
    33   16   35 1
    34   17   18 ar
    35   17   36 1
    36   18   19 1
    37   19   20 1
    38   20   21 2
@<TRIPOS>MOLECULE
ZINC03876173
   36    38     0     0     0
SMALL
USER_CHARGES

@<TRIPOS>ATOM
      1 C1         -0.4428    1.4447   -0.1974 C.3       1 <0>        -0.1579
      2 C2         -0.2549   -0.0731   -0.1551 C.3       1 <0>        -0.0973
      3 C3          0.7182   -0.4975   -1.2568 C.3       1 <0>         0.0656
      4 H1          0.3922   -0.0809   -2.2098 H         1 <0>         0.0555
      5 C4          2.0985    0.0124   -0.9315 C.ar      1 <0>        -0.0332
      6 C5          2.7393   -0.4124    0.2173 C.ar      1 <0>        -0.1066
      7 C6          4.0055    0.0553    0.5157 C.ar      1 <0>        -0.1297
      8 C7          4.6310    0.9474   -0.3351 C.ar      1 <0>        -0.1447
      9 C8          3.9906    1.3715   -1.4844 C.ar      1 <0>        -0.1290
     10 C9          2.7262    0.9005   -1.7849 C.ar      1 <0>        -0.1176
     11 C10         0.7471   -2.0014   -1.3496 C.2       1 <0>        -0.4775
     12 C11         1.2474   -2.6317   -2.5083 C.2       1 <0>         0.4197
     13 O1          1.6649   -1.9827   -3.4536 O.2       1 <0>        -0.5464
     14 C12         1.2461   -4.1086   -2.5313 C.ar      1 <0>        -0.2119
     15 C13         1.7214   -4.8173   -3.6329 C.ar      1 <0>        -0.0419
     16 C14         1.7033   -6.1951   -3.6143 C.ar      1 <0>        -0.1709
     17 C15         1.2149   -6.8732   -2.5073 C.ar      1 <0>        -0.0787
     18 C16         0.7420   -6.1827   -1.4116 C.ar      1 <0>        -0.1574
     19 C17         0.7523   -4.7934   -1.4107 C.ar      1 <0>         0.1620
     20 O2          0.2952   -4.0974   -0.3485 O.3       1 <0>        -0.2756
     21 C18         0.2968   -2.7589   -0.3156 C.2       1 <0>         0.4489
     22 O3         -0.1724   -2.1373    0.7868 O.3       1 <0>        -0.6289
     23 H2          0.5185    1.9343   -0.0415 H         1 <0>         0.0441
     24 H3         -0.8446    1.7342   -1.1684 H         1 <0>         0.0385
     25 H4         -1.1361    1.7471    0.5874 H         1 <0>         0.0407
     26 H5          0.1469   -0.3625    0.8159 H         1 <0>         0.0987
     27 H6         -1.2162   -0.5627   -0.3110 H         1 <0>         0.0558
     28 H7          2.2506   -1.1093    0.8820 H         1 <0>         0.1233
     29 H8          4.5058   -0.2760    1.4136 H         1 <0>         0.1103
     30 H9          5.6200    1.3134   -0.1016 H         1 <0>         0.1086
     31 H10         4.4792    2.0687   -2.1489 H         1 <0>         0.1098
     32 H11         2.2273    1.2289   -2.6848 H         1 <0>         0.1132
     33 H12         2.1012   -4.2902   -4.4956 H         1 <0>         0.1307
     34 H13         2.0705   -6.7492   -4.4655 H         1 <0>         0.1219
     35 H14         1.2046   -7.9532   -2.5037 H         1 <0>         0.1262
     36 H15         0.3638   -6.7211   -0.5552 H         1 <0>         0.1313
@<TRIPOS>BOND
     1    1    2 1
     2    1   23 1
     3    1   24 1
     4    1   25 1
     5    2    3 1
     6    2   26 1
     7    2   27 1
     8    3    4 1
     9    3    5 1
    10    3   11 1
    11    5   10 ar
    12    5    6 ar
    13    6    7 ar
    14    6   28 1
    15    7    8 ar
    16    7   29 1
    17    8    9 ar
    18    8   30 1
    19    9   10 ar
    20    9   31 1
    21   10   32 1
    22   11   21 2
    23   11   12 1
    24   12   13 2
    25   12   14 1
    26   14   19 ar
    27   14   15 ar
    28   15   16 ar
    29   15   33 1
    30   16   17 ar
    31   16   34 1
    32   17   18 ar
    33   17   35 1
    34   18   19 ar
    35   18   36 1
    36   19   20 1
    37   20   21 1
    38   21   22 1
@<TRIPOS>MOLECULE
ZINC03876173
   37    39     0     0     0
SMALL
USER_CHARGES

@<TRIPOS>ATOM
      1 C1          0.0311    1.4460    0.4361 C.3       1 <0>        -0.1536
      2 C2          0.0024   -0.0754    0.2767 C.3       1 <0>        -0.1088
      3 C3         -1.4333   -0.5336    0.0129 C.3       1 <0>         0.0244
      4 H1         -2.0911   -0.1282    0.7816 H         1 <0>         0.0909
      5 C4         -1.8776   -0.0400   -1.3399 C.ar      1 <0>        -0.0663
      6 C5         -1.2118   -0.4524   -2.4790 C.ar      1 <0>        -0.1132
      7 C6         -1.6194    0.0004   -3.7199 C.ar      1 <0>        -0.1224
      8 C7         -2.6930    0.8652   -3.8217 C.ar      1 <0>        -0.1241
      9 C8         -3.3593    1.2768   -2.6826 C.ar      1 <0>        -0.1190
     10 C9         -2.9545    0.8207   -1.4421 C.ar      1 <0>        -0.1044
     11 C10        -1.4937   -2.0391    0.0430 C.2       1 <0>        -0.2677
     12 C11        -0.3476   -2.7750   -0.0817 C.2       1 <0>         0.2348
     13 C12        -0.4609   -4.2414   -0.0459 C.ar      1 <0>        -0.1909
     14 C13         0.6682   -5.0542   -0.1669 C.ar      1 <0>        -0.0665
     15 C14         0.5280   -6.4237   -0.1290 C.ar      1 <0>        -0.1353
     16 C15        -0.7262   -6.9952    0.0283 C.ar      1 <0>        -0.0577
     17 C16        -1.8492   -6.2040    0.1484 C.ar      1 <0>        -0.1313
     18 C17        -1.7299   -4.8206    0.1132 C.ar      1 <0>         0.1647
     19 O1         -2.8192   -4.0309    0.2308 O.3       1 <0>        -0.2741
     20 C18        -2.7252   -2.6918    0.2047 C.2       1 <0>         0.5275
     21 O2         -3.7385   -2.0246    0.3198 O.2       1 <0>        -0.4543
     22 O3          0.8538   -2.1727   -0.2336 O.3       1 <0>        -0.4263
     23 H2          1.0539    1.7724    0.6240 H         1 <0>         0.0547
     24 H3         -0.3378    1.9139   -0.4767 H         1 <0>         0.0559
     25 H4         -0.6025    1.7355    1.2744 H         1 <0>         0.0527
     26 H5          0.6360   -0.3649   -0.5617 H         1 <0>         0.0881
     27 H6          0.3713   -0.5434    1.1894 H         1 <0>         0.0661
     28 H7         -0.3731   -1.1281   -2.3995 H         1 <0>         0.1157
     29 H8         -1.0988   -0.3213   -4.6098 H         1 <0>         0.1189
     30 H9         -3.0110    1.2195   -4.7911 H         1 <0>         0.1198
     31 H10        -4.1979    1.9528   -2.7621 H         1 <0>         0.1214
     32 H11        -3.4774    1.1394   -0.5525 H         1 <0>         0.1218
     33 H12         1.6456   -4.6115   -0.2898 H         1 <0>         0.1370
     34 H13         1.3987   -7.0558   -0.2226 H         1 <0>         0.1399
     35 H14        -0.8241   -8.0704    0.0566 H         1 <0>         0.1444
     36 H15        -2.8208   -6.6596    0.2697 H         1 <0>         0.1486
     37 H16         1.5953   -2.7884   -0.3121 H         1 <0>         0.3887
@<TRIPOS>BOND
     1    1    2 1
     2    1   23 1
     3    1   24 1
     4    1   25 1
     5    2    3 1
     6    2   26 1
     7    2   27 1
     8    3    4 1
     9    3    5 1
    10    3   11 1
    11    5   10 ar
    12    5    6 ar
    13    6    7 ar
    14    6   28 1
    15    7    8 ar
    16    7   29 1
    17    8    9 ar
    18    8   30 1
    19    9   10 ar
    20    9   31 1
    21   10   32 1
    22   11   20 1
    23   11   12 2
    24   12   13 1
    25   12   22 1
    26   13   18 ar
    27   13   14 ar
    28   14   15 ar
    29   14   33 1
    30   15   16 ar
    31   15   34 1
    32   16   17 ar
    33   16   35 1
    34   17   18 ar
    35   17   36 1
    36   18   19 1
    37   19   20 1
    38   20   21 2
    39   22   37 1
@<TRIPOS>MOLECULE
ZINC03876173
   37    39     0     0     0
SMALL
USER_CHARGES

@<TRIPOS>ATOM
      1 C1          0.0153    1.4472    0.4822 C.3       1 <0>        -0.1537
      2 C2         -0.0038   -0.0722    0.3036 C.3       1 <0>        -0.1105
      3 C3         -1.4333   -0.5336    0.0129 C.3       1 <0>         0.0303
      4 H1         -2.1061   -0.1311    0.7701 H         1 <0>         0.0893
      5 C4         -1.8541   -0.0389   -1.3470 C.ar      1 <0>        -0.0629
      6 C5         -1.1688   -0.4505   -2.4747 C.ar      1 <0>        -0.1139
      7 C6         -1.5548    0.0032   -3.7221 C.ar      1 <0>        -0.1224
      8 C7         -2.6264    0.8683   -3.8418 C.ar      1 <0>        -0.1258
      9 C8         -3.3122    1.2792   -2.7141 C.ar      1 <0>        -0.1191
     10 C9         -2.9289    0.8220   -1.4671 C.ar      1 <0>        -0.1061
     11 C10        -1.4904   -2.0393    0.0395 C.2       1 <0>        -0.3171
     12 C11        -2.7279   -2.7004    0.1877 C.2       1 <0>         0.4367
     13 O1         -3.7712   -2.0770    0.2965 O.2       1 <0>        -0.4635
     14 C12        -2.7100   -4.1773    0.2055 C.ar      1 <0>        -0.2151
     15 C13        -3.8836   -4.9151    0.3471 C.ar      1 <0>        -0.0312
     16 C14        -3.8239   -6.2918    0.3584 C.ar      1 <0>        -0.1435
     17 C15        -2.6043   -6.9400    0.2302 C.ar      1 <0>        -0.0594
     18 C16        -1.4367   -6.2205    0.0895 C.ar      1 <0>        -0.1370
     19 C17        -1.4759   -4.8318    0.0753 C.ar      1 <0>         0.1505
     20 O2         -0.3452   -4.1077   -0.0623 O.3       1 <0>        -0.2591
     21 C18        -0.3511   -2.7690   -0.0848 C.2       1 <0>         0.3553
     22 O3          0.8223   -2.1182   -0.2318 O.3       1 <0>        -0.3987
     23 H2          1.0337    1.7759    0.6892 H         1 <0>         0.0542
     24 H3         -0.3422    1.9248   -0.4301 H         1 <0>         0.0558
     25 H4         -0.6320    1.7233    1.3146 H         1 <0>         0.0529
     26 H5          0.6435   -0.3484   -0.5288 H         1 <0>         0.0879
     27 H6          0.3537   -0.5498    1.2158 H         1 <0>         0.0658
     28 H7         -0.3316   -1.1264   -2.3812 H         1 <0>         0.1146
     29 H8         -1.0190   -0.3178   -4.6032 H         1 <0>         0.1183
     30 H9         -2.9275    1.2234   -4.8163 H         1 <0>         0.1191
     31 H10        -4.1492    1.9553   -2.8076 H         1 <0>         0.1205
     32 H11        -3.4671    1.1401   -0.5865 H         1 <0>         0.1208
     33 H12        -4.8336   -4.4114    0.4476 H         1 <0>         0.1443
     34 H13        -4.7305   -6.8685    0.4678 H         1 <0>         0.1385
     35 H14        -2.5690   -8.0194    0.2411 H         1 <0>         0.1430
     36 H15        -0.4927   -6.7358   -0.0092 H         1 <0>         0.1440
     37 H16         1.5884   -2.7025   -0.3141 H         1 <0>         0.3972
@<TRIPOS>BOND
     1    1    2 1
     2    1   23 1
     3    1   24 1
     4    1   25 1
     5    2    3 1
     6    2   26 1
     7    2   27 1
     8    3    4 1
     9    3    5 1
    10    3   11 1
    11    5   10 ar
    12    5    6 ar
    13    6    7 ar
    14    6   28 1
    15    7    8 ar
    16    7   29 1
    17    8    9 ar
    18    8   30 1
    19    9   10 ar
    20    9   31 1
    21   10   32 1
    22   11   21 2
    23   11   12 1
    24   12   13 2
    25   12   14 1
    26   14   19 ar
    27   14   15 ar
    28   15   16 ar
    29   15   33 1
    30   16   17 ar
    31   16   34 1
    32   17   18 ar
    33   17   35 1
    34   18   19 ar
    35   18   36 1
    36   19   20 1
    37   20   21 1
    38   21   22 1
    39   22   37 1
@<TRIPOS>MOLECULE
ZINC03876174
   36    38     0     0     0
SMALL
USER_CHARGES

@<TRIPOS>ATOM
      1 C1          0.1165    1.8008   -0.4832 C.3       1 <0>        -0.1269
      2 C2         -0.0659    0.3052   -0.2168 C.3       1 <0>        -0.1176
      3 C3          0.7182   -0.4975   -1.2568 C.3       1 <0>         0.0645
      4 H1          0.2369   -0.3995   -2.2298 H         1 <0>         0.0623
      5 C4          0.7461   -1.9494   -0.8541 C.ar      1 <0>        -0.0442
      6 C5          1.1607   -2.3068    0.4152 C.ar      1 <0>        -0.1122
      7 C6          1.1862   -3.6387    0.7846 C.ar      1 <0>        -0.1330
      8 C7          0.7967   -4.6131   -0.1153 C.ar      1 <0>        -0.1443
      9 C8          0.3812   -4.2556   -1.3843 C.ar      1 <0>        -0.1326
     10 C9          0.3516   -2.9234   -1.7522 C.ar      1 <0>        -0.1232
     11 C10         2.1282    0.0283   -1.3385 C.2       1 <0>        -0.4699
     12 C11         2.7941    0.0841   -2.5810 C.2       1 <0>         0.4180
     13 O1          2.2516   -0.2872   -3.6090 O.2       1 <0>        -0.5508
     14 C12         4.1743    0.6104   -2.5877 C.ar      1 <0>        -0.2115
     15 C13         4.9094    0.7031   -3.7678 C.ar      1 <0>        -0.0422
     16 C14         6.1941    1.2004   -3.7313 C.ar      1 <0>        -0.1706
     17 C15         6.7531    1.6058   -2.5284 C.ar      1 <0>        -0.0788
     18 C16         6.0353    1.5187   -1.3544 C.ar      1 <0>        -0.1570
     19 C17         4.7384    1.0206   -1.3704 C.ar      1 <0>         0.1617
     20 O2          4.0175    0.9275   -0.2332 O.3       1 <0>        -0.2752
     21 C18         2.7641    0.4567   -0.2170 C.2       1 <0>         0.4542
     22 O3          2.1081    0.4010    0.9612 O.3       1 <0>        -0.6263
     23 H2          1.1743    2.0553   -0.4167 H         1 <0>         0.0573
     24 H3         -0.2526    2.0398   -1.4806 H         1 <0>         0.0315
     25 H4         -0.4421    2.3727    0.2577 H         1 <0>         0.0328
     26 H5          0.3032    0.0662    0.7806 H         1 <0>         0.1049
     27 H6         -1.1237    0.0507   -0.2833 H         1 <0>         0.0283
     28 H7          1.4650   -1.5456    1.1182 H         1 <0>         0.1492
     29 H8          1.5109   -3.9180    1.7760 H         1 <0>         0.1100
     30 H9          0.8173   -5.6537    0.1731 H         1 <0>         0.1077
     31 H10         0.0772   -5.0169   -2.0874 H         1 <0>         0.1092
     32 H11         0.0234   -2.6439   -2.7424 H         1 <0>         0.1140
     33 H12         4.4753    0.3871   -4.7049 H         1 <0>         0.1308
     34 H13         6.7682    1.2744   -4.6431 H         1 <0>         0.1220
     35 H14         7.7610    1.9933   -2.5111 H         1 <0>         0.1263
     36 H15         6.4808    1.8370   -0.4234 H         1 <0>         0.1313
@<TRIPOS>BOND
     1    1    2 1
     2    1   23 1
     3    1   24 1
     4    1   25 1
     5    2    3 1
     6    2   26 1
     7    2   27 1
     8    3    4 1
     9    3    5 1
    10    3   11 1
    11    5   10 ar
    12    5    6 ar
    13    6    7 ar
    14    6   28 1
    15    7    8 ar
    16    7   29 1
    17    8    9 ar
    18    8   30 1
    19    9   10 ar
    20    9   31 1
    21   10   32 1
    22   11   21 2
    23   11   12 1
    24   12   13 2
    25   12   14 1
    26   14   19 ar
    27   14   15 ar
    28   15   16 ar
    29   15   33 1
    30   16   17 ar
    31   16   34 1
    32   17   18 ar
    33   17   35 1
    34   18   19 ar
    35   18   36 1
    36   19   20 1
    37   20   21 1
    38   21   22 1
@<TRIPOS>MOLECULE
ZINC03876174
   36    38     0     0     0
SMALL
USER_CHARGES

@<TRIPOS>ATOM
      1 C1         -0.0015    1.8898   -1.0980 C.3       1 <0>        -0.1362
      2 C2          0.2902    0.6173   -0.3002 C.3       1 <0>        -0.1293
      3 C3          0.7182   -0.4975   -1.2568 C.3       1 <0>         0.0633
      4 H1         -0.0069   -0.5798   -2.0664 H         1 <0>         0.0670
      5 C4          0.7855   -1.8036   -0.5080 C.ar      1 <0>        -0.0470
      6 C5          1.1100   -1.8140    0.8357 C.ar      1 <0>        -0.0846
      7 C6          1.1717   -3.0121    1.5225 C.ar      1 <0>        -0.1365
      8 C7          0.9086   -4.1997    0.8657 C.ar      1 <0>        -0.1427
      9 C8          0.5833   -4.1891   -0.4778 C.ar      1 <0>        -0.1360
     10 C9          0.5173   -2.9907   -1.1636 C.ar      1 <0>        -0.1229
     11 C10         2.0750   -0.1756   -1.8283 C.2       1 <0>        -0.4554
     12 C11         3.1169    0.1266   -0.9956 C.2       1 <0>         0.3457
     13 C12         4.4208    0.4335   -1.6038 C.ar      1 <0>        -0.1679
     14 C13         5.5277    0.7500   -0.8134 C.ar      1 <0>        -0.0417
     15 C14         6.7345    1.0319   -1.4140 C.ar      1 <0>        -0.1684
     16 C15         6.8528    1.0024   -2.7959 C.ar      1 <0>        -0.0848
     17 C16         5.7675    0.6918   -3.5878 C.ar      1 <0>        -0.1557
     18 C17         4.5414    0.4038   -3.0022 C.ar      1 <0>         0.1516
     19 O1          3.4687    0.0963   -3.7630 O.3       1 <0>        -0.3003
     20 C18         2.2761   -0.1903   -3.2170 C.2       1 <0>         0.5122
     21 O2          1.3409   -0.4662   -3.9480 O.2       1 <0>        -0.5422
     22 O3          2.9533    0.1434    0.3469 O.3       1 <0>        -0.6428
     23 H2          0.8965    2.1962   -1.6344 H         1 <0>         0.0501
     24 H3         -0.8025    1.6958   -1.8114 H         1 <0>         0.0402
     25 H4         -0.3064    2.6840   -0.4165 H         1 <0>         0.0377
     26 H5          1.0912    0.8113    0.4132 H         1 <0>         0.1010
     27 H6         -0.6078    0.3109    0.2362 H         1 <0>         0.0390
     28 H7          1.3156   -0.8862    1.3488 H         1 <0>         0.1393
     29 H8          1.4259   -3.0203    2.5721 H         1 <0>         0.1087
     30 H9          0.9575   -5.1357    1.4022 H         1 <0>         0.1067
     31 H10         0.3780   -5.1170   -0.9910 H         1 <0>         0.1083
     32 H11         0.2595   -2.9821   -2.2123 H         1 <0>         0.1134
     33 H12         5.4378    0.7740    0.2626 H         1 <0>         0.1342
     34 H13         7.5929    1.2775   -0.8063 H         1 <0>         0.1210
     35 H14         7.8042    1.2252   -3.2560 H         1 <0>         0.1251
     36 H15         5.8708    0.6724   -4.6627 H         1 <0>         0.1296
@<TRIPOS>BOND
     1    1    2 1
     2    1   23 1
     3    1   24 1
     4    1   25 1
     5    2    3 1
     6    2   26 1
     7    2   27 1
     8    3    4 1
     9    3    5 1
    10    3   11 1
    11    5   10 ar
    12    5    6 ar
    13    6    7 ar
    14    6   28 1
    15    7    8 ar
    16    7   29 1
    17    8    9 ar
    18    8   30 1
    19    9   10 ar
    20    9   31 1
    21   10   32 1
    22   11   20 1
    23   11   12 2
    24   12   13 1
    25   12   22 1
    26   13   18 ar
    27   13   14 ar
    28   14   15 ar
    29   14   33 1
    30   15   16 ar
    31   15   34 1
    32   16   17 ar
    33   16   35 1
    34   17   18 ar
    35   17   36 1
    36   18   19 1
    37   19   20 1
    38   20   21 2
@<TRIPOS>MOLECULE
ZINC03876174
   37    39     0     0     0
SMALL
USER_CHARGES

@<TRIPOS>ATOM
      1 C1         -0.9909    1.8669    0.5460 C.3       1 <0>        -0.1504
      2 C2         -0.4184    0.6054   -0.1034 C.3       1 <0>        -0.1224
      3 C3         -1.4333   -0.5336    0.0129 C.3       1 <0>         0.0222
      4 H1         -1.7655   -0.6201    1.0474 H         1 <0>         0.0986
      5 C4         -0.7892   -1.8263   -0.4176 C.ar      1 <0>        -0.0757
      6 C5          0.2111   -1.8160   -1.3716 C.ar      1 <0>        -0.1030
      7 C6          0.8019   -3.0017   -1.7664 C.ar      1 <0>        -0.1260
      8 C7          0.3927   -4.1977   -1.2069 C.ar      1 <0>        -0.1235
      9 C8         -0.6069   -4.2079   -0.2522 C.ar      1 <0>        -0.1219
     10 C9         -1.1948   -3.0217    0.1457 C.ar      1 <0>        -0.1129
     11 C10        -2.6178   -0.2434   -0.8725 C.2       1 <0>        -0.2649
     12 C11        -2.4303    0.0598   -2.1928 C.2       1 <0>         0.2424
     13 C12        -3.6195    0.3351   -3.0140 C.ar      1 <0>        -0.1904
     14 C13        -3.5018    0.6507   -4.3693 C.ar      1 <0>        -0.0667
     15 C14        -4.6349    0.9027   -5.1103 C.ar      1 <0>        -0.1346
     16 C15        -5.8873    0.8439   -4.5166 C.ar      1 <0>        -0.0580
     17 C16        -6.0175    0.5338   -3.1793 C.ar      1 <0>        -0.1307
     18 C17        -4.8874    0.2758   -2.4140 C.ar      1 <0>         0.1639
     19 O1         -4.9970   -0.0308   -1.1032 O.3       1 <0>        -0.2734
     20 C18        -3.9181   -0.2887   -0.3470 C.2       1 <0>         0.5286
     21 O2         -4.0720   -0.5651    0.8299 O.2       1 <0>        -0.4594
     22 O3         -1.1888    0.1056   -2.7275 O.3       1 <0>        -0.4311
     23 H2         -0.2679    2.6783    0.4631 H         1 <0>         0.0551
     24 H3         -1.9138    2.1494    0.0395 H         1 <0>         0.0478
     25 H4         -1.1989    1.6716    1.5980 H         1 <0>         0.0558
     26 H5         -0.2104    0.8006   -1.1554 H         1 <0>         0.0831
     27 H6          0.5045    0.3228    0.4031 H         1 <0>         0.0688
     28 H7          0.5307   -0.8816   -1.8088 H         1 <0>         0.1311
     29 H8          1.5829   -2.9937   -2.5123 H         1 <0>         0.1192
     30 H9          0.8538   -5.1241   -1.5159 H         1 <0>         0.1189
     31 H10        -0.9268   -5.1423    0.1847 H         1 <0>         0.1203
     32 H11        -1.9732   -3.0293    0.8943 H         1 <0>         0.1211
     33 H12        -2.5277    0.6974   -4.8335 H         1 <0>         0.1365
     34 H13        -4.5481    1.1475   -6.1586 H         1 <0>         0.1400
     35 H14        -6.7690    1.0434   -5.1075 H         1 <0>         0.1446
     36 H15        -6.9974    0.4916   -2.7272 H         1 <0>         0.1488
     37 H16        -1.1737    0.3294   -3.6681 H         1 <0>         0.3983
@<TRIPOS>BOND
     1    1    2 1
     2    1   23 1
     3    1   24 1
     4    1   25 1
     5    2    3 1
     6    2   26 1
     7    2   27 1
     8    3    4 1
     9    3    5 1
    10    3   11 1
    11    5   10 ar
    12    5    6 ar
    13    6    7 ar
    14    6   28 1
    15    7    8 ar
    16    7   29 1
    17    8    9 ar
    18    8   30 1
    19    9   10 ar
    20    9   31 1
    21   10   32 1
    22   11   20 1
    23   11   12 2
    24   12   13 1
    25   12   22 1
    26   13   18 ar
    27   13   14 ar
    28   14   15 ar
    29   14   33 1
    30   15   16 ar
    31   15   34 1
    32   16   17 ar
    33   16   35 1
    34   17   18 ar
    35   17   36 1
    36   18   19 1
    37   19   20 1
    38   20   21 2
    39   22   37 1
@<TRIPOS>MOLECULE
ZINC03876174
   37    39     0     0     0
SMALL
USER_CHARGES

@<TRIPOS>ATOM
      1 C1         -0.5284    1.7918    0.1383 C.3       1 <0>        -0.1460
      2 C2         -0.1642    0.3061    0.1711 C.3       1 <0>        -0.1191
      3 C3         -1.4333   -0.5336    0.0129 C.3       1 <0>         0.0288
      4 H1         -2.0390   -0.4503    0.9153 H         1 <0>         0.0934
      5 C4         -1.0569   -1.9761   -0.2080 C.ar      1 <0>        -0.0705
      6 C5         -0.1535   -2.3106   -1.1994 C.ar      1 <0>        -0.1193
      7 C6          0.1918   -3.6337   -1.4021 C.ar      1 <0>        -0.1238
      8 C7         -0.3660   -4.6222   -0.6131 C.ar      1 <0>        -0.1255
      9 C8         -1.2687   -4.2876    0.3789 C.ar      1 <0>        -0.1199
     10 C9         -1.6108   -2.9641    0.5844 C.ar      1 <0>        -0.1110
     11 C10        -2.2224   -0.0336   -1.1696 C.2       1 <0>        -0.3113
     12 C11        -3.6323   -0.0138   -1.1252 C.2       1 <0>         0.4371
     13 O1         -4.2415   -0.3961   -0.1394 O.2       1 <0>        -0.4674
     14 C12        -4.3416    0.4889   -2.3194 C.ar      1 <0>        -0.2152
     15 C13        -5.7331    0.5457   -2.3661 C.ar      1 <0>        -0.0311
     16 C14        -6.3564    1.0217   -3.4992 C.ar      1 <0>        -0.1434
     17 C15        -5.6049    1.4413   -4.5869 C.ar      1 <0>        -0.0592
     18 C16        -4.2275    1.3897   -4.5521 C.ar      1 <0>        -0.1369
     19 C17        -3.5803    0.9135   -3.4187 C.ar      1 <0>         0.1510
     20 O2         -2.2330    0.8552   -3.3628 O.3       1 <0>        -0.2591
     21 C18        -1.5804    0.4062   -2.2833 C.2       1 <0>         0.3616
     22 O3         -0.2310    0.3849   -2.3043 O.3       1 <0>        -0.4035
     23 H2          0.3758    2.3901    0.2510 H         1 <0>         0.0540
     24 H3         -1.0043    2.0283   -0.8134 H         1 <0>         0.0458
     25 H4         -1.2160    2.0154    0.9539 H         1 <0>         0.0519
     26 H5          0.5235    0.0825   -0.6445 H         1 <0>         0.0882
     27 H6          0.3117    0.0696    1.1227 H         1 <0>         0.0655
     28 H7          0.2823   -1.5383   -1.8159 H         1 <0>         0.1295
     29 H8          0.8970   -3.8951   -2.1771 H         1 <0>         0.1188
     30 H9         -0.0968   -5.6560   -0.7719 H         1 <0>         0.1191
     31 H10        -1.7048   -5.0600    0.9952 H         1 <0>         0.1207
     32 H11        -2.3132   -2.7023    1.3619 H         1 <0>         0.1222
     33 H12        -6.3192    0.2185   -1.5201 H         1 <0>         0.1445
     34 H13        -7.4346    1.0679   -3.5406 H         1 <0>         0.1387
     35 H14        -6.1037    1.8120   -5.4702 H         1 <0>         0.1431
     36 H15        -3.6525    1.7188   -5.4050 H         1 <0>         0.1441
     37 H16         0.1548    0.7123   -3.1284 H         1 <0>         0.4040
@<TRIPOS>BOND
     1    1    2 1
     2    1   23 1
     3    1   24 1
     4    1   25 1
     5    2    3 1
     6    2   26 1
     7    2   27 1
     8    3    4 1
     9    3    5 1
    10    3   11 1
    11    5   10 ar
    12    5    6 ar
    13    6    7 ar
    14    6   28 1
    15    7    8 ar
    16    7   29 1
    17    8    9 ar
    18    8   30 1
    19    9   10 ar
    20    9   31 1
    21   10   32 1
    22   11   21 2
    23   11   12 1
    24   12   13 2
    25   12   14 1
    26   14   19 ar
    27   14   15 ar
    28   15   16 ar
    29   15   33 1
    30   16   17 ar
    31   16   34 1
    32   17   18 ar
    33   17   35 1
    34   18   19 ar
    35   18   36 1
    36   19   20 1
    37   20   21 1
    38   21   22 1
    39   22   37 1
@<TRIPOS>MOLECULE
ZINC03925398
   88    90     0     0     0
SMALL
USER_CHARGES

@<TRIPOS>ATOM
      1 C1          0.7545   -1.8378    2.6635 C.3       1 <0>        -0.1562
      2 C2          0.9150   -0.6438    1.7204 C.3       1 <0>        -0.1383
      3 C3          1.9947   -0.9556    0.6821 C.3       1 <0>        -0.1386
      4 C4         -0.4127   -0.3729    1.0099 C.3       1 <0>         0.1318
      5 N1         -1.4290   -0.0038    1.9984 N.pl3     1 <0>        -0.9845
      6 C5         -2.5986   -0.8622    2.2019 C.3       1 <0>         0.1538
      7 H1         -3.2231   -0.4442    2.9914 H         1 <0>         0.1042
      8 C6         -3.4040   -0.9431    0.9036 C.3       1 <0>        -0.1215
      9 C7         -3.9812    0.4352    0.5747 C.3       1 <0>        -0.1262
     10 C8         -4.7866    0.3543   -0.7236 C.3       1 <0>        -0.1265
     11 C9         -5.3637    1.7326   -1.0524 C.3       1 <0>         0.1264
     12 N2         -6.1349    1.6552   -2.2956 N.am      1 <0>        -0.7258
     13 C10        -6.7394    2.7566   -2.7834 C.2       1 <0>         0.5021
     14 O1         -6.6449    3.8119   -2.1931 O.2       1 <0>        -0.5011
     15 C11        -7.5327    2.6770   -4.0622 C.3       1 <0>         0.1659
     16 H2         -8.0990    1.7459   -4.0810 H         1 <0>         0.1131
     17 C12        -6.5786    2.7178   -5.2576 C.3       1 <0>        -0.0217
     18 C13        -5.6286    1.5504   -5.1822 C.ar      1 <0>        -0.0742
     19 C14        -6.1209    0.2588   -5.1630 C.ar      1 <0>        -0.1288
     20 C15        -5.2495   -0.8120   -5.0939 C.ar      1 <0>        -0.1146
     21 C16        -3.8858   -0.5914   -5.0444 C.ar      1 <0>        -0.1157
     22 C17        -3.3934    0.7002   -5.0645 C.ar      1 <0>        -0.1108
     23 C18        -4.2647    1.7709   -5.1380 C.ar      1 <0>        -0.0994
     24 C19        -7.3719    2.6382   -6.5364 C.ar      1 <0>        -0.0656
     25 C20        -8.3213    1.6469   -6.7002 C.ar      1 <0>        -0.1194
     26 C21        -9.0490    1.5738   -7.8732 C.ar      1 <0>        -0.1145
     27 C22        -8.8275    2.4923   -8.8823 C.ar      1 <0>        -0.1198
     28 C23        -7.8787    3.4841   -8.7182 C.ar      1 <0>        -0.1139
     29 C24        -7.1541    3.5598   -7.5434 C.ar      1 <0>        -0.1080
     30 N3         -8.4562    3.8119   -4.1355 N.am      1 <0>        -0.6963
     31 C25        -7.9776    5.0718   -4.1271 C.2       1 <0>         0.6552
     32 O2         -6.7801    5.2663   -4.0589 O.2       1 <0>        -0.5417
     33 O3         -8.8263    6.1148   -4.1945 O.3       1 <0>        -0.3690
     34 C26        -8.2497    7.4222   -4.1811 C.3       1 <0>         0.0577
     35 C27        -2.1381   -2.2646    2.6046 C.3       1 <0>         0.0632
     36 O4         -1.4433   -2.8698    1.5123 O.3       1 <0>        -0.5574
     37 S1         -1.2558    1.3836    2.8856 S.o2      1 <0>         2.6869
     38 O5         -1.8573    1.1356    4.1489 O.2       1 <0>        -0.9667
     39 O6          0.1014    1.7835    2.7534 O.2       1 <0>        -0.9562
     40 C28        -2.2260    2.6280    2.1014 C.ar      1 <0>        -0.7374
     41 C29        -1.6987    3.3521    1.0479 C.ar      1 <0>         0.0320
     42 C30        -2.4564    4.3281    0.4310 C.ar      1 <0>        -0.2196
     43 C31        -3.7496    4.5821    0.8700 C.ar      1 <0>         0.2816
     44 C32        -4.2762    3.8529    1.9286 C.ar      1 <0>        -0.2184
     45 C33        -3.5151    2.8744    2.5373 C.ar      1 <0>         0.0292
     46 N4         -4.5186    5.5688    0.2487 N.pl3     1 <0>        -0.8535
     47 H3          0.4034   -2.7018    2.0993 H         1 <0>         0.0747
     48 H4          1.7154   -2.0697    3.1228 H         1 <0>         0.0444
     49 H5          0.0302   -1.5924    3.4403 H         1 <0>         0.0497
     50 H6          1.2061    0.2360    2.2943 H         1 <0>         0.1008
     51 H7          1.7036   -1.8354    0.1082 H         1 <0>         0.0535
     52 H8          2.1091   -0.1050    0.0102 H         1 <0>         0.0530
     53 H9          2.9406   -1.1486    1.1882 H         1 <0>         0.0546
     54 H10        -0.2843    0.4430    0.2987 H         1 <0>         0.0581
     55 H11        -0.7307   -1.2705    0.4796 H         1 <0>         0.1125
     56 H12        -2.7530   -1.2675    0.0918 H         1 <0>         0.0817
     57 H13        -4.2177   -1.6582    1.0247 H         1 <0>         0.0716
     58 H14        -4.6322    0.7596    1.3865 H         1 <0>         0.0630
     59 H15        -3.1675    1.1503    0.4536 H         1 <0>         0.0746
     60 H16        -4.1355    0.0299   -1.5354 H         1 <0>         0.0694
     61 H17        -5.6002   -0.3608   -0.6025 H         1 <0>         0.0662
     62 H18        -6.0147    2.0570   -0.2406 H         1 <0>         0.0625
     63 H19        -4.5500    2.4477   -1.1736 H         1 <0>         0.0658
     64 H20        -6.2104    0.8112   -2.7677 H         1 <0>         0.3976
     65 H21        -6.0122    3.6489   -5.2388 H         1 <0>         0.1164
     66 H22        -7.1863    0.0864   -5.2017 H         1 <0>         0.1228
     67 H23        -5.6341   -1.8211   -5.0782 H         1 <0>         0.1240
     68 H24        -3.2050   -1.4280   -4.9897 H         1 <0>         0.1226
     69 H25        -2.3280    0.8726   -5.0255 H         1 <0>         0.1226
     70 H26        -3.8799    2.7799   -5.1574 H         1 <0>         0.1198
     71 H27        -8.4943    0.9293   -5.9118 H         1 <0>         0.1197
     72 H28        -9.7903    0.7990   -8.0015 H         1 <0>         0.1230
     73 H29        -9.3956    2.4348   -9.7991 H         1 <0>         0.1220
     74 H30        -7.7055    4.2015   -9.5067 H         1 <0>         0.1222
     75 H31        -6.4154    4.3370   -7.4137 H         1 <0>         0.1191
     76 H32        -9.4121    3.6565   -4.1900 H         1 <0>         0.4118
     77 H33        -9.0415    8.1691   -4.2403 H         1 <0>         0.1012
     78 H34        -7.6870    7.5617   -3.2581 H         1 <0>         0.0600
     79 H35        -7.5810    7.5332   -5.0347 H         1 <0>         0.0589
     80 H36        -1.4725   -2.1954    3.4650 H         1 <0>         0.0624
     81 H37        -3.0056   -2.8713    2.8642 H         1 <0>         0.0545
     82 H38        -1.1220   -3.7629    1.6970 H         1 <0>         0.3763
     83 H39        -0.6930    3.1543    0.7074 H         1 <0>         0.1329
     84 H40        -2.0438    4.8935   -0.3915 H         1 <0>         0.1261
     85 H41        -5.2812    4.0481    2.2725 H         1 <0>         0.1261
     86 H42        -3.9254    2.3041    3.3574 H         1 <0>         0.1343
     87 H43        -4.1496    6.0776   -0.4902 H         1 <0>         0.4030
     88 H44        -5.4215    5.7453    0.5561 H         1 <0>         0.4028
@<TRIPOS>BOND
     1    1    2 1
     2    1   47 1
     3    1   48 1
     4    1   49 1
     5    2    3 1
     6    2    4 1
     7    2   50 1
     8    3   51 1
     9    3   52 1
    10    3   53 1
    11    4    5 1
    12    4   54 1
    13    4   55 1
    14    5    6 1
    15    5   37 1
    16    6    7 1
    17    6    8 1
    18    6   35 1
    19    8    9 1
    20    8   56 1
    21    8   57 1
    22    9   10 1
    23    9   58 1
    24    9   59 1
    25   10   11 1
    26   10   60 1
    27   10   61 1
    28   11   12 1
    29   11   62 1
    30   11   63 1
    31   12   13 am
    32   12   64 1
    33   13   14 2
    34   13   15 1
    35   15   16 1
    36   15   17 1
    37   15   30 1
    38   17   18 1
    39   17   24 1
    40   17   65 1
    41   18   23 ar
    42   18   19 ar
    43   19   20 ar
    44   19   66 1
    45   20   21 ar
    46   20   67 1
    47   21   22 ar
    48   21   68 1
    49   22   23 ar
    50   22   69 1
    51   23   70 1
    52   24   29 ar
    53   24   25 ar
    54   25   26 ar
    55   25   71 1
    56   26   27 ar
    57   26   72 1
    58   27   28 ar
    59   27   73 1
    60   28   29 ar
    61   28   74 1
    62   29   75 1
    63   30   31 am
    64   30   76 1
    65   31   32 2
    66   31   33 1
    67   33   34 1
    68   34   77 1
    69   34   78 1
    70   34   79 1
    71   35   36 1
    72   35   80 1
    73   35   81 1
    74   36   82 1
    75   37   38 2
    76   37   39 2
    77   37   40 1
    78   40   45 ar
    79   40   41 ar
    80   41   42 ar
    81   41   83 1
    82   42   43 ar
    83   42   84 1
    84   43   44 ar
    85   43   46 1
    86   44   45 ar
    87   44   85 1
    88   45   86 1
    89   46   87 1
    90   46   88 1
@<TRIPOS>MOLECULE
ZINC04262049
   65    67     0     0     0
SMALL
USER_CHARGES
(2S)-6-(tert-butoxycarbonylamino)-2-(9H-fluoren-9-ylmethoxycarbonylamino)hexanoic acid
@<TRIPOS>ATOM
      1 C1         -9.1088   -1.8179   -3.7910 C.3       1 <0>        -0.1837
      2 C2         -9.8632   -1.0197   -4.8563 C.3       1 <0>         0.1363
      3 C3        -11.3256   -1.4684   -4.8893 C.3       1 <0>        -0.1409
      4 C4         -9.2238   -1.2640   -6.2246 C.3       1 <0>        -0.1840
      5 O1         -9.7981    0.3953   -4.5373 O.3       1 <0>        -0.3668
      6 C5         -8.5736    0.9507   -4.4687 C.2       1 <0>         0.6477
      7 O2         -7.5863    0.2716   -4.6699 O.2       1 <0>        -0.5689
      8 N1         -8.4429    2.2600   -4.1769 N.am      1 <0>        -0.7099
      9 C6         -7.1105    2.8644   -4.1023 C.3       1 <0>         0.1359
     10 C7         -7.2426    4.3493   -3.7580 C.3       1 <0>        -0.1315
     11 C8         -5.8511    4.9806   -3.6801 C.3       1 <0>        -0.1151
     12 C9         -5.9832    6.4655   -3.3359 C.3       1 <0>        -0.1069
     13 C10        -4.5917    7.0967   -3.2580 C.3       1 <0>         0.1179
     14 H1         -4.0564    6.9125   -4.1894 H         1 <0>         0.0923
     15 C11        -4.7253    8.5820   -3.0407 C.2       1 <0>         0.4567
     16 O3         -4.2488    9.0937   -2.0553 O.co2     1 <0>        -0.6273
     17 N2         -3.8488    6.5049   -2.1426 N.am      1 <0>        -0.6771
     18 C12        -2.5011    6.4979   -2.1588 C.2       1 <0>         0.6529
     19 O4         -1.9023    6.9824   -3.0986 O.2       1 <0>        -0.5740
     20 O5         -1.8183    5.9540   -1.1337 O.3       1 <0>        -0.3737
     21 C13        -0.3691    5.9817   -1.2185 C.3       1 <0>         0.1096
     22 C14         0.2273    5.3234    0.0272 C.3       1 <0>        -0.0104
     23 C15        -0.0641    3.8428    0.0224 C.ar      1 <0>        -0.0776
     24 C16        -1.2453    3.1318    0.0294 C.ar      1 <0>        -0.0857
     25 C17        -1.2212    1.7483    0.0173 C.ar      1 <0>        -0.1131
     26 C18        -0.0126    1.0758    0.0080 C.ar      1 <0>        -0.1206
     27 C19         1.1742    1.7791    0.0004 C.ar      1 <0>        -0.0987
     28 C20         1.1575    3.1749    0.0076 C.ar      1 <0>        -0.0610
     29 C21         2.2622    4.1657    0.0022 C.ar      1 <0>        -0.0490
     30 C22         1.7308    5.4525    0.0137 C.ar      1 <0>        -0.0834
     31 C23         2.5657    6.5497    0.0110 C.ar      1 <0>        -0.0936
     32 C24         3.9383    6.3757   -0.0032 C.ar      1 <0>        -0.1134
     33 C25         4.4757    5.1012   -0.0147 C.ar      1 <0>        -0.1173
     34 C26         3.6479    3.9977   -0.0116 C.ar      1 <0>        -0.0989
     35 H2         -9.5643   -1.6439   -2.8162 H         1 <0>         0.0591
     36 H3         -9.1576   -2.8801   -4.0305 H         1 <0>         0.0693
     37 H4         -8.0670   -1.4983   -3.7675 H         1 <0>         0.0880
     38 H5        -11.8630   -0.8998   -5.6482 H         1 <0>         0.0664
     39 H6        -11.3744   -2.5307   -5.1288 H         1 <0>         0.0796
     40 H7        -11.7811   -1.2944   -3.9145 H         1 <0>         0.0663
     41 H8         -8.1820   -0.9443   -6.2011 H         1 <0>         0.0880
     42 H9         -9.2726   -2.3262   -6.4641 H         1 <0>         0.0693
     43 H10        -9.7612   -0.6954   -6.9835 H         1 <0>         0.0593
     44 H11        -9.2311    2.8021   -4.0162 H         1 <0>         0.4063
     45 H12        -6.6088    2.7577   -5.0640 H         1 <0>         0.0712
     46 H13        -6.5268    2.3630   -3.3302 H         1 <0>         0.0705
     47 H14        -7.7444    4.4561   -2.7963 H         1 <0>         0.0716
     48 H15        -7.8263    4.8507   -4.5300 H         1 <0>         0.0739
     49 H16        -5.3493    4.8738   -4.6418 H         1 <0>         0.0671
     50 H17        -5.2674    4.4792   -2.9081 H         1 <0>         0.0643
     51 H18        -6.4850    6.5723   -2.3742 H         1 <0>         0.0643
     52 H19        -6.5669    6.9669   -4.1079 H         1 <0>         0.0921
     53 H20        -4.3268    6.1181   -1.3924 H         1 <0>         0.3975
     54 H21        -0.0285    7.0152   -1.2817 H         1 <0>         0.0772
     55 H22        -0.0466    5.4379   -2.1065 H         1 <0>         0.0714
     56 H23        -0.1808    5.7833    0.9272 H         1 <0>         0.1148
     57 H24        -2.1901    3.6550    0.0409 H         1 <0>         0.1317
     58 H25        -2.1474    1.1928    0.0191 H         1 <0>         0.1270
     59 H26         0.0021   -0.0041    0.0020 H         1 <0>         0.1245
     60 H27         2.1156    1.2500   -0.0107 H         1 <0>         0.1205
     61 H28         2.1480    7.5457    0.0203 H         1 <0>         0.1290
     62 H29         4.5910    7.2362   -0.0057 H         1 <0>         0.1283
     63 H30         5.5476    4.9695   -0.0254 H         1 <0>         0.1259
     64 H31         4.0717    3.0044   -0.0203 H         1 <0>         0.1223
     65 O6         -5.3736    9.3364   -3.9419 O.co2     1 <0>        -0.7640
@<TRIPOS>BOND
     1    1    2 1
     2    1   35 1
     3    1   36 1
     4    1   37 1
     5    2    3 1
     6    2    4 1
     7    2    5 1
     8    3   38 1
     9    3   39 1
    10    3   40 1
    11    4   41 1
    12    4   42 1
    13    4   43 1
    14    5    6 1
    15    6    7 2
    16    6    8 am
    17    8    9 1
    18    8   44 1
    19    9   10 1
    20    9   45 1
    21    9   46 1
    22   10   11 1
    23   10   47 1
    24   10   48 1
    25   11   12 1
    26   11   49 1
    27   11   50 1
    28   12   13 1
    29   12   51 1
    30   12   52 1
    31   13   14 1
    32   13   15 1
    33   13   17 1
    34   15   16 2
    35   15   65 1
    36   17   18 am
    37   17   53 1
    38   18   19 2
    39   18   20 1
    40   20   21 1
    41   21   22 1
    42   21   54 1
    43   21   55 1
    44   22   30 1
    45   22   23 1
    46   22   56 1
    47   23   28 ar
    48   23   24 ar
    49   24   25 ar
    50   24   57 1
    51   25   26 ar
    52   25   58 1
    53   26   27 ar
    54   26   59 1
    55   27   28 ar
    56   27   60 1
    57   28   29 1
    58   29   34 ar
    59   29   30 ar
    60   30   31 ar
    61   31   32 ar
    62   31   61 1
    63   32   33 ar
    64   32   62 1
    65   33   34 ar
    66   33   63 1
    67   34   64 1
@<TRIPOS>MOLECULE
ZINC01645454
   53    56     0     0     0
SMALL
USER_CHARGES
hydroxy-tetramethyl-propyl-BLAHone
@<TRIPOS>ATOM
      1 C1         -4.2062    0.1376    1.4359 C.3       1 <0>        -0.1491
      2 C2         -2.8720    0.8864    1.4362 C.3       1 <0>        -0.1110
      3 C3         -2.5585    1.3705    0.0191 C.3       1 <0>        -0.0950
      4 C4         -1.2443    2.1081    0.0194 C.2       1 <0>         0.0645
      5 C5         -1.2136    3.4659    0.0450 C.2       1 <0>        -0.2815
      6 C6          0.0239    4.1399    0.0388 C.2       1 <0>         0.5119
      7 O1          0.0430    5.3577    0.0575 O.2       1 <0>        -0.4615
      8 O2          1.1833    3.4609    0.0131 O.3       1 <0>        -0.2725
      9 C7          1.1969    2.1089   -0.0087 C.ar      1 <0>         0.2273
     10 C8         -0.0170    1.3966   -0.0012 C.ar      1 <0>        -0.2081
     11 C9          0.0020   -0.0038   -0.0198 C.ar      1 <0>         0.2420
     12 C10         1.2264   -0.6712   -0.0533 C.ar      1 <0>        -0.1953
     13 C11         2.4332    0.0478   -0.0666 C.ar      1 <0>         0.2655
     14 C12         2.4120    1.4299   -0.0386 C.ar      1 <0>        -0.2558
     15 C13         3.6812    2.2345   -0.0380 C.3       1 <0>         0.1706
     16 H1          3.5782    3.0564   -0.7464 H         1 <0>         0.0772
     17 C14         4.8868    1.3993   -0.4245 C.3       1 <0>        -0.1195
     18 H2          5.7897    1.8935   -0.0659 H         1 <0>         0.1097
     19 C15         4.8237    0.0012    0.1623 C.3       1 <0>         0.0969
     20 H3          5.6357   -0.5944   -0.2551 H         1 <0>         0.1237
     21 O3          3.5952   -0.6405   -0.1147 O.3       1 <0>        -0.2883
     22 C16         5.0049    0.0928    1.6788 C.3       1 <0>        -0.1815
     23 C17         4.9494    1.2959   -1.9497 C.3       1 <0>        -0.1509
     24 O4          3.8891    2.7724    1.2694 O.3       1 <0>        -0.5538
     25 C18         1.2217   -2.1497   -0.0733 C.2       1 <0>        -0.0697
     26 C19         0.0854   -2.7680   -0.3906 C.2       1 <0>        -0.1957
     27 C20        -1.1410   -1.9615   -0.7279 C.3       1 <0>         0.1425
     28 O5         -1.1429   -0.7286   -0.0066 O.3       1 <0>        -0.2773
     29 C21        -2.3903   -2.7642   -0.3593 C.3       1 <0>        -0.1384
     30 C22        -1.1551   -1.6680   -2.2294 C.3       1 <0>        -0.1749
     31 H4         -4.9978    0.8058    1.0968 H         1 <0>         0.0537
     32 H5         -4.1418   -0.7192    0.7652 H         1 <0>         0.0573
     33 H6         -4.4295   -0.2073    2.4455 H         1 <0>         0.0560
     34 H7         -2.0804    0.2182    1.7753 H         1 <0>         0.0711
     35 H8         -2.9363    1.7432    2.1069 H         1 <0>         0.0603
     36 H9         -3.3501    2.0387   -0.3200 H         1 <0>         0.0802
     37 H10        -2.4941    0.5137   -0.6516 H         1 <0>         0.1022
     38 H11        -2.1357    4.0278    0.0650 H         1 <0>         0.1627
     39 H12         5.0089   -0.9102    2.1055 H         1 <0>         0.0635
     40 H13         5.9505    0.5866    1.9025 H         1 <0>         0.0765
     41 H14         4.1844    0.6672    2.1087 H         1 <0>         0.0748
     42 H15         4.0602    0.7830   -2.3160 H         1 <0>         0.0588
     43 H16         4.9950    2.2963   -2.3801 H         1 <0>         0.0659
     44 H17         5.8378    0.7349   -2.2397 H         1 <0>         0.0690
     45 H18         3.1598    3.3207    1.5897 H         1 <0>         0.3814
     46 H19         2.1132   -2.7117    0.1627 H         1 <0>         0.1397
     47 H20         0.0437   -3.8471   -0.4063 H         1 <0>         0.1365
     48 H21        -3.2802   -2.1907   -0.6187 H         1 <0>         0.0721
     49 H22        -2.3921   -3.7059   -0.9081 H         1 <0>         0.0837
     50 H23        -2.3886   -2.9676    0.7116 H         1 <0>         0.0709
     51 H24        -0.2710   -1.0884   -2.4947 H         1 <0>         0.0610
     52 H25        -1.1537   -2.6069   -2.7831 H         1 <0>         0.0799
     53 H26        -2.0508   -1.0997   -2.4801 H         1 <0>         0.0712
@<TRIPOS>BOND
     1    1    2 1
     2    1   31 1
     3    1   32 1
     4    1   33 1
     5    2    3 1
     6    2   34 1
     7    2   35 1
     8    3    4 1
     9    3   36 1
    10    3   37 1
    11    4   10 1
    12    4    5 2
    13    5    6 1
    14    5   38 1
    15    6    7 2
    16    6    8 1
    17    8    9 1
    18    9   14 ar
    19    9   10 ar
    20   10   11 ar
    21   11   28 1
    22   11   12 ar
    23   12   13 ar
    24   12   25 1
    25   13   21 1
    26   13   14 ar
    27   14   15 1
    28   15   16 1
    29   15   17 1
    30   15   24 1
    31   17   18 1
    32   17   19 1
    33   17   23 1
    34   19   20 1
    35   19   21 1
    36   19   22 1
    37   22   39 1
    38   22   40 1
    39   22   41 1
    40   23   42 1
    41   23   43 1
    42   23   44 1
    43   24   45 1
    44   25   26 2
    45   25   46 1
    46   26   27 1
    47   26   47 1
    48   27   28 1
    49   27   29 1
    50   27   30 1
    51   29   48 1
    52   29   49 1
    53   29   50 1
    54   30   51 1
    55   30   52 1
    56   30   53 1
@<TRIPOS>MOLECULE
ZINC13741431
   47    49     0     0     0
SMALL
USER_CHARGES
4-hydroxy-3-[(1S)-1-phenylpropyl]-5,6,7,8,9,10-hexahydrocycloocta[e]pyran-2-one
@<TRIPOS>ATOM
      1 C1          0.0315   -5.2749   -3.2724 C.3       1 <0>        -0.1500
      2 C2          0.0523   -4.4315   -1.9961 C.3       1 <0>        -0.1271
      3 C3         -0.2488   -2.9723   -2.3440 C.3       1 <0>         0.0262
      4 H1          0.4524   -2.6278   -3.1041 H         1 <0>         0.0895
      5 C4         -1.6560   -2.8619   -2.8719 C.ar      1 <0>        -0.0695
      6 C5         -2.7277   -3.1565   -2.0500 C.ar      1 <0>        -0.1235
      7 C6         -4.0186   -3.0510   -2.5329 C.ar      1 <0>        -0.1218
      8 C7         -4.2376   -2.6601   -3.8407 C.ar      1 <0>        -0.1239
      9 C8         -3.1657   -2.3701   -4.6640 C.ar      1 <0>        -0.1227
     10 C9         -1.8749   -2.4714   -4.1798 C.ar      1 <0>        -0.1128
     11 C10        -0.1078   -2.1218   -1.1080 C.2       1 <0>        -0.2648
     12 C11         0.5098   -0.8832   -1.1703 C.2       1 <0>         0.2402
     13 C12         0.6144   -0.1295    0.0119 C.2       1 <0>        -0.2363
     14 C13         0.1278   -0.6098    1.1778 C.2       1 <0>         0.1618
     15 O1         -0.4704   -1.8072    1.2261 O.3       1 <0>        -0.2569
     16 C14        -0.5991   -2.5682    0.1250 C.2       1 <0>         0.5071
     17 O2         -1.1473   -3.6554    0.2008 O.2       1 <0>        -0.4614
     18 C15         0.2859    0.2313    2.4178 C.3       1 <0>        -0.0887
     19 C16         1.4093   -0.3515    3.2725 C.3       1 <0>        -0.1191
     20 C17         2.7096   -0.3891    2.4261 C.3       1 <0>        -0.1279
     21 C18         2.9943    1.0432    1.9395 C.3       1 <0>        -0.1216
     22 C19         2.6947    1.1713    0.4609 C.3       1 <0>        -0.1193
     23 C20         1.2605    1.2289    0.0373 C.3       1 <0>        -0.0636
     24 O3          1.0000   -0.4104   -2.3403 O.3       1 <0>        -0.4774
     25 H2          0.2460   -6.3144   -3.0246 H         1 <0>         0.0549
     26 H3         -0.9525   -5.2076   -3.7364 H         1 <0>         0.0566
     27 H4          0.7862   -4.9035   -3.9657 H         1 <0>         0.0499
     28 H5          1.0364   -4.4987   -1.5322 H         1 <0>         0.0583
     29 H6         -0.7024   -4.8029   -1.3028 H         1 <0>         0.0961
     30 H7         -2.5565   -3.4659   -1.0295 H         1 <0>         0.1420
     31 H8         -4.8561   -3.2773   -1.8895 H         1 <0>         0.1193
     32 H9         -5.2460   -2.5810   -4.2190 H         1 <0>         0.1191
     33 H10        -3.3368   -2.0647   -5.6857 H         1 <0>         0.1202
     34 H11        -1.0375   -2.2452   -4.8232 H         1 <0>         0.1191
     35 H12         0.5353    1.2542    2.1355 H         1 <0>         0.1171
     36 H13        -0.6451    0.2242    2.9846 H         1 <0>         0.0957
     37 H14         1.5629    0.2749    4.1512 H         1 <0>         0.0829
     38 H15         1.1445   -1.3615    3.5853 H         1 <0>         0.0723
     39 H16         3.5389   -0.7427    3.0387 H         1 <0>         0.0697
     40 H17         2.5739   -1.0499    1.5699 H         1 <0>         0.0618
     41 H18         2.3695    1.7426    2.4950 H         1 <0>         0.0683
     42 H19         4.0434    1.2809    2.1157 H         1 <0>         0.0686
     43 H20         3.1569    0.3244   -0.0462 H         1 <0>         0.0560
     44 H21         3.1841    2.0759    0.1001 H         1 <0>         0.0661
     45 H22         1.2043    1.6651   -0.9600 H         1 <0>         0.0846
     46 H23         0.7130    1.8671    0.7309 H         1 <0>         0.0802
     47 H24         1.9213   -0.6524   -2.5072 H         1 <0>         0.4047
@<TRIPOS>BOND
     1    1    2 1
     2    1   25 1
     3    1   26 1
     4    1   27 1
     5    2    3 1
     6    2   28 1
     7    2   29 1
     8    3    4 1
     9    3    5 1
    10    3   11 1
    11    5   10 ar
    12    5    6 ar
    13    6    7 ar
    14    6   30 1
    15    7    8 ar
    16    7   31 1
    17    8    9 ar
    18    8   32 1
    19    9   10 ar
    20    9   33 1
    21   10   34 1
    22   11   16 1
    23   11   12 2
    24   12   13 1
    25   12   24 1
    26   13   23 1
    27   13   14 2
    28   14   15 1
    29   14   18 1
    30   15   16 1
    31   16   17 2
    32   18   19 1
    33   18   35 1
    34   18   36 1
    35   19   20 1
    36   19   37 1
    37   19   38 1
    38   20   21 1
    39   20   39 1
    40   20   40 1
    41   21   22 1
    42   21   41 1
    43   21   42 1
    44   22   23 1
    45   22   43 1
    46   22   44 1
    47   23   45 1
    48   23   46 1
    49   24   47 1
@<TRIPOS>MOLECULE
ZINC13741432
   47    49     0     0     0
SMALL
USER_CHARGES
4-hydroxy-3-[(1R)-1-phenylpropyl]-5,6,7,8,9,10-hexahydrocycloocta[e]pyran-2-one
@<TRIPOS>ATOM
      1 C1         -2.4926    3.7219    1.5394 C.3       1 <0>        -0.1493
      2 C2         -1.2213    2.8968    1.3297 C.3       1 <0>        -0.1297
      3 C3         -1.3319    2.1138    0.0199 C.3       1 <0>         0.0253
      4 H1         -2.2422    1.5144    0.0306 H         1 <0>         0.0933
      5 C4         -0.1360    1.2085   -0.1266 C.ar      1 <0>        -0.0836
      6 C5         -0.2725   -0.0232   -0.7392 C.ar      1 <0>        -0.1122
      7 C6          0.8229   -0.8566   -0.8672 C.ar      1 <0>        -0.1269
      8 C7          2.0552   -0.4574   -0.3847 C.ar      1 <0>        -0.1210
      9 C8          2.1918    0.7745    0.2274 C.ar      1 <0>        -0.1259
     10 C9          1.0961    1.6073    0.3566 C.ar      1 <0>        -0.0945
     11 C10        -1.3779    3.0766   -1.1386 C.2       1 <0>        -0.2556
     12 C11        -2.4156    3.0266   -2.0539 C.2       1 <0>         0.2335
     13 C12        -2.4183    3.9512   -3.1164 C.2       1 <0>        -0.2278
     14 C13        -1.4133    4.8466   -3.2347 C.2       1 <0>         0.1504
     15 O1         -0.4144    4.8884   -2.3469 O.3       1 <0>        -0.2572
     16 C14        -0.3689    4.0324   -1.3098 C.2       1 <0>         0.5070
     17 O2          0.5550    4.0895   -0.5151 O.2       1 <0>        -0.4599
     18 C15        -1.4614    5.7826   -4.4131 C.3       1 <0>        -0.0753
     19 C16        -2.3183    6.9815   -4.1594 C.3       1 <0>        -0.1199
     20 C17        -3.8201    6.8176   -4.2741 C.3       1 <0>        -0.1211
     21 C18        -4.3730    6.0575   -3.0551 C.3       1 <0>        -0.1264
     22 C19        -4.7559    4.6281   -3.5219 C.3       1 <0>        -0.1148
     23 C20        -3.5238    3.9668   -4.1385 C.3       1 <0>        -0.0726
     24 O3         -3.4070    2.1134   -1.9279 O.3       1 <0>        -0.4783
     25 H2         -2.4139    4.2798    2.4725 H         1 <0>         0.0576
     26 H3         -2.6152    4.4177    0.7094 H         1 <0>         0.0463
     27 H4         -3.3544    3.0561    1.5857 H         1 <0>         0.0528
     28 H5         -1.0987    2.2010    2.1597 H         1 <0>         0.0697
     29 H6         -0.3596    3.5626    1.2833 H         1 <0>         0.0869
     30 H7         -1.2352   -0.3348   -1.1168 H         1 <0>         0.1194
     31 H8          0.7162   -1.8190   -1.3457 H         1 <0>         0.1197
     32 H9          2.9114   -1.1078   -0.4863 H         1 <0>         0.1191
     33 H10         3.1547    1.0864    0.6043 H         1 <0>         0.1202
     34 H11         1.2029    2.5698    0.8349 H         1 <0>         0.1366
     35 H12        -0.4486    6.1151   -4.6406 H         1 <0>         0.0944
     36 H13        -1.8552    5.2440   -5.2750 H         1 <0>         0.1084
     37 H14        -2.0147    7.7609   -4.8584 H         1 <0>         0.0763
     38 H15        -2.0990    7.3391   -3.1533 H         1 <0>         0.0641
     39 H16        -4.0535    6.2612   -5.1820 H         1 <0>         0.0700
     40 H17        -4.2869    7.8011   -4.3277 H         1 <0>         0.0702
     41 H18        -5.2553    6.5689   -2.6702 H         1 <0>         0.0660
     42 H19        -3.6103    6.0004   -2.2785 H         1 <0>         0.0611
     43 H20        -5.5501    4.6871   -4.2661 H         1 <0>         0.0731
     44 H21        -5.0971    4.0417   -2.6688 H         1 <0>         0.0589
     45 H22        -3.2045    4.5332   -5.0134 H         1 <0>         0.0878
     46 H23        -3.7638    2.9450   -4.4326 H         1 <0>         0.0810
     47 H24        -4.1570    2.4176   -1.3987 H         1 <0>         0.4030
@<TRIPOS>BOND
     1    1    2 1
     2    1   25 1
     3    1   26 1
     4    1   27 1
     5    2    3 1
     6    2   28 1
     7    2   29 1
     8    3    4 1
     9    3    5 1
    10    3   11 1
    11    5   10 ar
    12    5    6 ar
    13    6    7 ar
    14    6   30 1
    15    7    8 ar
    16    7   31 1
    17    8    9 ar
    18    8   32 1
    19    9   10 ar
    20    9   33 1
    21   10   34 1
    22   11   16 1
    23   11   12 2
    24   12   13 1
    25   12   24 1
    26   13   23 1
    27   13   14 2
    28   14   15 1
    29   14   18 1
    30   15   16 1
    31   16   17 2
    32   18   19 1
    33   18   35 1
    34   18   36 1
    35   19   20 1
    36   19   37 1
    37   19   38 1
    38   20   21 1
    39   20   39 1
    40   20   40 1
    41   21   22 1
    42   21   41 1
    43   21   42 1
    44   22   23 1
    45   22   43 1
    46   22   44 1
    47   23   45 1
    48   23   46 1
    49   24   47 1
@<TRIPOS>MOLECULE
ZINC00833967
   53    56     0     0     0
SMALL
USER_CHARGES
hydroxy-tetramethyl-propyl-BLAHone
@<TRIPOS>ATOM
      1 C1         -3.7361    4.2145    0.5694 C.3       1 <0>        -0.1484
      2 C2         -2.3955    4.9011    0.8380 C.3       1 <0>        -0.1115
      3 C3         -1.4375    4.6207   -0.3216 C.3       1 <0>        -0.0931
      4 C4         -0.1170    5.2969   -0.0571 C.2       1 <0>         0.0596
      5 C5          0.1953    6.4751   -0.6584 C.2       1 <0>        -0.2781
      6 C6          1.4357    7.0852   -0.3934 C.2       1 <0>         0.5018
      7 O1          1.7015    8.1408   -0.9400 O.2       1 <0>        -0.4687
      8 O2          2.3329    6.5441    0.4396 O.3       1 <0>        -0.2351
      9 C7          2.0556    5.3756    1.0557 C.ar      1 <0>         0.2399
     10 C8          0.8320    4.7198    0.8268 C.ar      1 <0>        -0.2107
     11 C9          0.5631    3.5063    1.4718 C.ar      1 <0>         0.2401
     12 C10         1.5079    2.9720    2.3480 C.ar      1 <0>        -0.1964
     13 C11         2.7268    3.6321    2.5732 C.ar      1 <0>         0.2577
     14 C12         2.9954    4.8224    1.9243 C.ar      1 <0>        -0.2198
     15 C13         4.2964    5.5481    2.1224 C.3       1 <0>         0.1729
     16 H1          4.9124    5.4197    1.2324 H         1 <0>         0.0672
     17 C14         5.0597    5.0340    3.3279 C.3       1 <0>        -0.1605
     18 H2          6.1103    5.3050    3.2237 H         1 <0>         0.0993
     19 C15         4.9512    3.5272    3.4724 C.3       1 <0>         0.0993
     20 H3          5.3964    3.2300    4.4219 H         1 <0>         0.1250
     21 O3          3.6103    3.0816    3.4352 O.3       1 <0>        -0.2892
     22 C16         5.7250    2.8623    2.3322 C.3       1 <0>        -0.1874
     23 C17         4.5009    5.6957    4.5892 C.3       1 <0>        -0.1420
     24 O4          4.0284    6.9399    2.3040 O.3       1 <0>        -0.5413
     25 C18         1.1918    1.6982    3.0305 C.2       1 <0>        -0.0685
     26 C19         0.2235    0.9408    2.5155 C.2       1 <0>        -0.1966
     27 C20        -0.5047    1.3986    1.2777 C.3       1 <0>         0.1417
     28 O5         -0.5907    2.8264    1.2575 O.3       1 <0>        -0.2775
     29 C21         0.2516    0.9183    0.0375 C.3       1 <0>        -0.1746
     30 C22        -1.9160    0.8079    1.2717 C.3       1 <0>        -0.1377
     31 H4         -4.1631    4.6007   -0.3562 H         1 <0>         0.0535
     32 H5         -3.5818    3.1394    0.4775 H         1 <0>         0.0570
     33 H6         -4.4186    4.4143    1.3955 H         1 <0>         0.0555
     34 H7         -1.9685    4.5149    1.7635 H         1 <0>         0.0706
     35 H8         -2.5498    5.9762    0.9299 H         1 <0>         0.0602
     36 H9         -1.8645    5.0069   -1.2472 H         1 <0>         0.0796
     37 H10        -1.2832    3.5456   -0.4135 H         1 <0>         0.1022
     38 H11        -0.5046    6.9407   -1.3364 H         1 <0>         0.1617
     39 H12         6.7718    3.1623    2.3801 H         1 <0>         0.0786
     40 H13         5.6529    1.7788    2.4275 H         1 <0>         0.0724
     41 H14         5.3016    3.1719    1.3767 H         1 <0>         0.0623
     42 H15         3.4438    5.4497    4.6906 H         1 <0>         0.0577
     43 H16         5.0439    5.3318    5.4614 H         1 <0>         0.0581
     44 H17         4.6167    6.7769    4.5140 H         1 <0>         0.0697
     45 H18         4.8222    7.4893    2.3599 H         1 <0>         0.3808
     46 H19         1.7277    1.3923    3.9168 H         1 <0>         0.1394
     47 H20        -0.0381    0.0030    2.9830 H         1 <0>         0.1359
     48 H21         0.3081   -0.1702    0.0452 H         1 <0>         0.0794
     49 H22         1.2590    1.3345    0.0424 H         1 <0>         0.0611
     50 H23        -0.2735    1.2485   -0.8588 H         1 <0>         0.0710
     51 H24        -1.8544   -0.2803    1.2813 H         1 <0>         0.0832
     52 H25        -2.4564    1.1490    2.1547 H         1 <0>         0.0709
     53 H26        -2.4426    1.1342    0.3749 H         1 <0>         0.0718
@<TRIPOS>BOND
     1    1    2 1
     2    1   31 1
     3    1   32 1
     4    1   33 1
     5    2    3 1
     6    2   34 1
     7    2   35 1
     8    3    4 1
     9    3   36 1
    10    3   37 1
    11    4   10 1
    12    4    5 2
    13    5    6 1
    14    5   38 1
    15    6    7 2
    16    6    8 1
    17    8    9 1
    18    9   14 ar
    19    9   10 ar
    20   10   11 ar
    21   11   28 1
    22   11   12 ar
    23   12   13 ar
    24   12   25 1
    25   13   21 1
    26   13   14 ar
    27   14   15 1
    28   15   16 1
    29   15   17 1
    30   15   24 1
    31   17   18 1
    32   17   19 1
    33   17   23 1
    34   19   20 1
    35   19   21 1
    36   19   22 1
    37   22   39 1
    38   22   40 1
    39   22   41 1
    40   23   42 1
    41   23   43 1
    42   23   44 1
    43   24   45 1
    44   25   26 2
    45   25   46 1
    46   26   27 1
    47   26   47 1
    48   27   28 1
    49   27   29 1
    50   27   30 1
    51   29   48 1
    52   29   49 1
    53   29   50 1
    54   30   51 1
    55   30   52 1
    56   30   53 1
@<TRIPOS>MOLECULE
ZINC00005691
   33    35     0     0     0
SMALL
USER_CHARGES

@<TRIPOS>ATOM
      1 C1          6.4689   -3.4761   -2.6365 C.ar      1 <0>        -0.0637
      2 C2          5.2654   -3.9439   -2.1429 C.ar      1 <0>        -0.1462
      3 C3          4.4819   -3.1300   -1.3463 C.ar      1 <0>        -0.0160
      4 C4          4.9022   -1.8485   -1.0429 C.ar      1 <0>        -0.6563
      5 C5          6.1062   -1.3811   -1.5357 C.ar      1 <0>        -0.0228
      6 C6          6.8890   -2.1945   -2.3335 C.ar      1 <0>        -0.1441
      7 S1          3.9031   -0.8106   -0.0283 S.o2      1 <0>         2.6010
      8 O1          4.2605    0.5286   -0.3411 O.2       1 <0>        -0.9382
      9 O2          2.5706   -1.2905   -0.1444 O.2       1 <0>        -0.9052
     10 C7          4.3938   -1.0860    1.6414 C.2       1 <0>        -0.6558
     11 C8          5.2568   -0.2628    2.4046 C.ar      1 <0>        -0.0367
     12 C9          5.9451    0.9259    2.1287 C.ar      1 <0>        -0.0663
     13 C10         6.7221    1.5001    3.0934 C.ar      1 <0>        -0.0435
     14 C11         6.8378    0.9154    4.3496 C.ar      1 <0>        -0.0794
     15 C12         6.1713   -0.2527    4.6437 C.ar      1 <0>        -0.1076
     16 C13         5.3722   -0.8564    3.6765 C.ar      1 <0>         0.1032
     17 N1          4.6024   -1.9960    3.6696 N.pl3     1 <0>        -0.5548
     18 H1          4.4923   -2.6077    4.4143 H         1 <0>         0.4261
     19 C14         4.0073   -2.1231    2.4294 C.2       1 <0>         0.1519
     20 C15         3.1027   -3.2099    2.0253 C.2       1 <0>         0.5636
     21 O3          2.7192   -3.2854    0.8733 O.2       1 <0>        -0.4670
     22 N2          2.6984   -4.1222    2.9313 N.am      1 <0>        -0.8422
     23 Cl1         7.5737    2.9730    2.7484 Cl        1 <0>        -0.0572
     24 H2          7.0831   -4.1136   -3.2553 H         1 <0>         0.1302
     25 H3          4.9370   -4.9450   -2.3800 H         1 <0>         0.1320
     26 H4          3.5413   -3.4951   -0.9612 H         1 <0>         0.1593
     27 H5          6.4344   -0.3798   -1.2989 H         1 <0>         0.1405
     28 H6          7.8294   -1.8292   -2.7189 H         1 <0>         0.1332
     29 H7          5.8616    1.3867    1.1555 H         1 <0>         0.1595
     30 H8          7.4567    1.3819    5.1017 H         1 <0>         0.1459
     31 H9          6.2681   -0.6996    5.6221 H         1 <0>         0.1394
     32 H10         3.0042   -4.0619    3.8499 H         1 <0>         0.3986
     33 H11         2.1018   -4.8390    2.6647 H         1 <0>         0.4189
@<TRIPOS>BOND
     1    1    6 ar
     2    1    2 ar
     3    1   24 1
     4    2    3 ar
     5    2   25 1
     6    3    4 ar
     7    3   26 1
     8    4    5 ar
     9    4    7 1
    10    5    6 ar
    11    5   27 1
    12    6   28 1
    13    7    8 2
    14    7    9 2
    15    7   10 1
    16   10   19 2
    17   10   11 1
    18   11   16 ar
    19   11   12 ar
    20   12   13 ar
    21   12   29 1
    22   13   14 ar
    23   13   23 1
    24   14   15 ar
    25   14   30 1
    26   15   16 ar
    27   15   31 1
    28   16   17 1
    29   17   18 1
    30   17   19 1
    31   19   20 1
    32   20   21 2
    33   20   22 am
    34   22   32 1
    35   22   33 1
@<TRIPOS>MOLECULE
ZINC13604416
   70    72     0     0     0
SMALL
USER_CHARGES
(4R,5S,6S,7R)-4,7-dibenzyl-1,3-dibutyl-5,6-dihydroxy-1,3-diazepan-2-one
@<TRIPOS>ATOM
      1 C1         -3.3646    8.8120   -8.4365 C.3       1 <0>        -0.1507
      2 C2         -2.3349    7.8362   -7.8635 C.3       1 <0>        -0.1188
      3 C3         -2.2667    8.0009   -6.3439 C.3       1 <0>        -0.1336
      4 C4         -1.2370    7.0251   -5.7708 C.3       1 <0>         0.1195
      5 N1         -1.1716    7.1832   -4.3128 N.am      1 <0>        -0.6022
      6 C5         -0.1888    8.1292   -3.7938 C.3       1 <0>         0.1599
      7 H1         -0.2048    9.0171   -4.4486 H         1 <0>         0.0950
      8 C6         -0.5532    8.5786   -2.3793 C.3       1 <0>         0.0764
      9 H2         -1.6379    8.7355   -2.3219 H         1 <0>         0.0737
     10 C7         -0.1463    7.5611   -1.3354 C.3       1 <0>         0.0661
     11 H3          0.9420    7.5344   -1.2502 H         1 <0>         0.0758
     12 C8         -0.6563    6.1599   -1.5880 C.3       1 <0>         0.1648
     13 H4          0.0731    5.6058   -2.1824 H         1 <0>         0.0859
     14 N2         -1.9377    6.1718   -2.2901 N.am      1 <0>        -0.6186
     15 C9         -2.0272    6.4884   -3.5905 C.2       1 <0>         0.7063
     16 O1         -3.0216    6.0830   -4.1766 O.2       1 <0>        -0.5895
     17 C10        -3.1598    5.8246   -1.5532 C.3       1 <0>         0.1233
     18 C11        -3.8142    7.1009   -1.0207 C.3       1 <0>        -0.1363
     19 C12        -5.0873    6.7392   -0.2530 C.3       1 <0>        -0.1205
     20 C13        -5.7418    8.0155    0.2795 C.3       1 <0>        -0.1503
     21 C14        -0.8314    5.4414   -0.2445 C.3       1 <0>        -0.0764
     22 C15         0.5106    5.2938    0.4249 C.ar      1 <0>        -0.0824
     23 C16         0.9102    6.2080    1.3817 C.ar      1 <0>        -0.1009
     24 C17         2.1412    6.0726    1.9957 C.ar      1 <0>        -0.1249
     25 C18         2.9728    5.0228    1.6529 C.ar      1 <0>        -0.1211
     26 C19         2.5755    4.1116    0.6924 C.ar      1 <0>        -0.1207
     27 C20         1.3420    4.2438    0.0825 C.ar      1 <0>        -0.1191
     28 O2         -0.6539    7.9970   -0.0638 O.3       1 <0>        -0.5524
     29 O3          0.0906    9.8286   -2.0983 O.3       1 <0>        -0.5542
     30 C21         1.2118    7.5298   -3.8527 C.3       1 <0>        -0.0946
     31 C22         1.6192    7.3455   -5.2919 C.ar      1 <0>        -0.0821
     32 C23         1.5040    6.1043   -5.8893 C.ar      1 <0>        -0.1102
     33 C24         1.8732    5.9364   -7.2109 C.ar      1 <0>        -0.1182
     34 C25         2.3674    7.0073   -7.9318 C.ar      1 <0>        -0.1194
     35 C26         2.4875    8.2473   -7.3328 C.ar      1 <0>        -0.1155
     36 C27         2.1135    8.4164   -6.0128 C.ar      1 <0>        -0.1164
     37 H5         -4.3431    8.6031   -8.0041 H         1 <0>         0.0538
     38 H6         -3.0710    9.8335   -8.1947 H         1 <0>         0.0518
     39 H7         -3.4132    8.6946   -9.5191 H         1 <0>         0.0536
     40 H8         -1.3564    8.0450   -8.2959 H         1 <0>         0.0593
     41 H9         -2.6285    6.8147   -8.1053 H         1 <0>         0.0620
     42 H10        -3.2452    7.7920   -5.9115 H         1 <0>         0.0743
     43 H11        -1.9731    9.0224   -6.1020 H         1 <0>         0.0556
     44 H12        -0.2585    7.2340   -6.2032 H         1 <0>         0.0943
     45 H13        -1.5306    6.0036   -6.0127 H         1 <0>         0.0782
     46 H14        -3.8529    5.3119   -2.2201 H         1 <0>         0.0873
     47 H15        -2.9074    5.1703   -0.7187 H         1 <0>         0.0846
     48 H16        -3.1211    7.6136   -0.3537 H         1 <0>         0.0734
     49 H17        -4.0666    7.7552   -1.8551 H         1 <0>         0.0570
     50 H18        -5.7805    6.2265   -0.9200 H         1 <0>         0.0621
     51 H19        -4.8349    6.0849    0.5814 H         1 <0>         0.0619
     52 H20        -6.6488    7.7578    0.8264 H         1 <0>         0.0540
     53 H21        -5.0487    8.5282    0.9464 H         1 <0>         0.0528
     54 H22        -5.9942    8.6698   -0.5550 H         1 <0>         0.0517
     55 H23        -1.2636    4.4552   -0.4135 H         1 <0>         0.0789
     56 H24        -1.4944    6.0238    0.3953 H         1 <0>         0.0988
     57 H25         0.2606    7.0283    1.6492 H         1 <0>         0.1336
     58 H26         2.4535    6.7870    2.7429 H         1 <0>         0.1198
     59 H27         3.9347    4.9172    2.1324 H         1 <0>         0.1193
     60 H28         3.2270    3.2940    0.4214 H         1 <0>         0.1202
     61 H29         1.0297    3.5293   -0.6648 H         1 <0>         0.1183
     62 H30        -0.3779    8.8898    0.1848 H         1 <0>         0.3696
     63 H31        -0.0950   10.1769   -1.2155 H         1 <0>         0.3812
     64 H32         1.9151    8.2004   -3.3590 H         1 <0>         0.0920
     65 H33         1.2152    6.5638   -3.3477 H         1 <0>         0.0752
     66 H34         1.1220    5.2666   -5.3248 H         1 <0>         0.1181
     67 H35         1.7796    4.9675   -7.6788 H         1 <0>         0.1226
     68 H36         2.6600    6.8751   -8.9630 H         1 <0>         0.1220
     69 H37         2.8740    9.0839   -7.8960 H         1 <0>         0.1226
     70 H38         2.2077    9.3851   -5.5447 H         1 <0>         0.1225
@<TRIPOS>BOND
     1    1    2 1
     2    1   37 1
     3    1   38 1
     4    1   39 1
     5    2    3 1
     6    2   40 1
     7    2   41 1
     8    3    4 1
     9    3   42 1
    10    3   43 1
    11    4    5 1
    12    4   44 1
    13    4   45 1
    14    5   15 am
    15    5    6 1
    16    6    7 1
    17    6    8 1
    18    6   30 1
    19    8    9 1
    20    8   10 1
    21    8   29 1
    22   10   11 1
    23   10   12 1
    24   10   28 1
    25   12   13 1
    26   12   14 1
    27   12   21 1
    28   14   15 am
    29   14   17 1
    30   15   16 2
    31   17   18 1
    32   17   46 1
    33   17   47 1
    34   18   19 1
    35   18   48 1
    36   18   49 1
    37   19   20 1
    38   19   50 1
    39   19   51 1
    40   20   52 1
    41   20   53 1
    42   20   54 1
    43   21   22 1
    44   21   55 1
    45   21   56 1
    46   22   27 ar
    47   22   23 ar
    48   23   24 ar
    49   23   57 1
    50   24   25 ar
    51   24   58 1
    52   25   26 ar
    53   25   59 1
    54   26   27 ar
    55   26   60 1
    56   27   61 1
    57   28   62 1
    58   29   63 1
    59   30   31 1
    60   30   64 1
    61   30   65 1
    62   31   36 ar
    63   31   32 ar
    64   32   33 ar
    65   32   66 1
    66   33   34 ar
    67   33   67 1
    68   34   35 ar
    69   34   68 1
    70   35   36 ar
    71   35   69 1
    72   36   70 1
@<TRIPOS>MOLECULE
ZINC06482605
   33    35     0     0     0
SMALL
USER_CHARGES

@<TRIPOS>ATOM
      1 C1         -0.0173    1.4248    0.0099 C.3       1 <0>         0.0358
      2 O1          0.0021   -0.0041    0.0020 O.3       1 <0>        -0.3591
      3 C2          0.6018   -0.6031   -1.0487 C.2       1 <0>         0.5160
      4 O2          1.0947    0.0715   -1.9340 O.2       1 <0>        -0.4524
      5 C3          0.6574   -2.0149   -1.1210 C.2       1 <0>         0.0885
      6 C4          1.2450   -2.7456   -2.1366 C.2       1 <0>        -0.1251
      7 C5          1.0636   -4.1593   -1.7941 C.ar      1 <0>        -0.0899
      8 C6          1.4324   -5.3544   -2.4184 C.ar      1 <0>        -0.0561
      9 C7          1.1136   -6.5494   -1.8394 C.ar      1 <0>        -0.1374
     10 C8          0.4253   -6.5872   -0.6338 C.ar      1 <0>        -0.0786
     11 C9          0.0521   -5.4228   -0.0011 C.ar      1 <0>        -0.1315
     12 C10         0.3662   -4.1915   -0.5727 C.ar      1 <0>         0.1215
     13 N1          0.1354   -2.8936   -0.1796 N.pl3     1 <0>        -0.5603
     14 H1         -0.3251   -2.6310    0.6327 H         1 <0>         0.4291
     15 S1          2.0532   -2.1032   -3.5645 S.3       1 <0>         0.0649
     16 C11         3.7336   -1.9326   -3.0626 C.ar      1 <0>        -0.0949
     17 C12         4.1163   -2.2933   -1.7762 C.ar      1 <0>        -0.1251
     18 C13         5.4340   -2.1582   -1.3863 C.ar      1 <0>        -0.1021
     19 C14         6.3724   -1.6641   -2.2742 C.ar      1 <0>        -0.1265
     20 C15         5.9950   -1.3037   -3.5550 C.ar      1 <0>        -0.1003
     21 C16         4.6804   -1.4424   -3.9539 C.ar      1 <0>        -0.1004
     22 H2          1.0053    1.8021    0.0021 H         1 <0>         0.0652
     23 H3         -0.5445    1.7859   -0.8732 H         1 <0>         0.0663
     24 H4         -0.5275    1.7763    0.9067 H         1 <0>         0.1062
     25 H5          1.9675   -5.3328   -3.3562 H         1 <0>         0.1330
     26 H6          1.3987   -7.4721   -2.3228 H         1 <0>         0.1315
     27 H7          0.1799   -7.5399   -0.1882 H         1 <0>         0.1336
     28 H8         -0.4833   -5.4637    0.9360 H         1 <0>         0.1290
     29 H9          3.3840   -2.6785   -1.0822 H         1 <0>         0.1164
     30 H10         5.7322   -2.4383   -0.3868 H         1 <0>         0.1224
     31 H11         7.4023   -1.5592   -1.9664 H         1 <0>         0.1242
     32 H12         6.7303   -0.9176   -4.2454 H         1 <0>         0.1282
     33 H13         4.3873   -1.1656   -4.9559 H         1 <0>         0.1281
@<TRIPOS>BOND
     1    1    2 1
     2    1   22 1
     3    1   23 1
     4    1   24 1
     5    2    3 1
     6    3    4 2
     7    3    5 1
     8    5   13 1
     9    5    6 2
    10    6    7 1
    11    6   15 1
    12    7   12 ar
    13    7    8 ar
    14    8    9 ar
    15    8   25 1
    16    9   10 ar
    17    9   26 1
    18   10   11 ar
    19   10   27 1
    20   11   12 ar
    21   11   28 1
    22   12   13 1
    23   13   14 1
    24   15   16 1
    25   16   21 ar
    26   16   17 ar
    27   17   18 ar
    28   17   29 1
    29   18   19 ar
    30   18   30 1
    31   19   20 ar
    32   19   31 1
    33   20   21 ar
    34   20   32 1
    35   21   33 1
@<TRIPOS>MOLECULE
ZINC00005852
   31    33     0     0     0
SMALL
USER_CHARGES
5-chloro-3-phenylsulfanyl-1H-indole-2-carboxamide
@<TRIPOS>ATOM
      1 C1          4.4273    2.6049   -0.0263 C.ar      1 <0>        -0.1267
      2 C2          3.5255    3.6534   -0.0120 C.ar      1 <0>        -0.1008
      3 C3          2.1684    3.3989   -0.0004 C.ar      1 <0>        -0.1021
      4 C4          1.7090    2.0873   -0.0030 C.ar      1 <0>        -0.0954
      5 C5          2.6181    1.0362   -0.0116 C.ar      1 <0>        -0.1237
      6 C6          3.9737    1.2983   -0.0285 C.ar      1 <0>        -0.1029
      7 S1         -0.0218    1.7577    0.0117 S.3       1 <0>         0.0737
      8 C7          0.0021   -0.0041    0.0020 C.2       1 <0>        -0.1294
      9 C8         -0.0032   -0.8737   -1.1781 C.ar      1 <0>        -0.0793
     10 C9         -0.0265   -0.6268   -2.5538 C.ar      1 <0>        -0.0471
     11 C10        -0.0249   -1.6739   -3.4319 C.ar      1 <0>        -0.0527
     12 C11         0.0001   -2.9834   -2.9673 C.ar      1 <0>        -0.0751
     13 C12         0.0317   -3.2489   -1.6168 C.ar      1 <0>        -0.1155
     14 C13         0.0256   -2.1973   -0.7027 C.ar      1 <0>         0.1207
     15 N1          0.0374   -2.1551    0.6727 N.pl3     1 <0>        -0.5716
     16 H1          0.0533   -2.9316    1.2539 H         1 <0>         0.4222
     17 C14         0.0234   -0.8351    1.1047 C.2       1 <0>         0.0777
     18 C15         0.0305   -0.4103    2.4569 C.2       1 <0>         0.5739
     19 O1          0.0174    0.7783    2.7218 O.2       1 <0>        -0.4852
     20 N2          0.0518   -1.3218    3.4494 N.am      1 <0>        -0.8514
     21 Cl1        -0.0539   -1.3660   -5.1401 Cl        1 <0>        -0.0609
     22 H2          5.4882    2.8069   -0.0354 H         1 <0>         0.1235
     23 H3          3.8832    4.6724   -0.0096 H         1 <0>         0.1274
     24 H4          1.4648    4.2182    0.0111 H         1 <0>         0.1272
     25 H5          2.2647    0.0157   -0.0092 H         1 <0>         0.1178
     26 H6          4.6808    0.4820   -0.0390 H         1 <0>         0.1213
     27 H7         -0.0453    0.3884   -2.9216 H         1 <0>         0.1434
     28 H8          0.0014   -3.8010   -3.6730 H         1 <0>         0.1437
     29 H9          0.0491   -4.2703   -1.2664 H         1 <0>         0.1380
     30 H10         0.0623   -2.2685    3.2384 H         1 <0>         0.3956
     31 H11         0.0567   -1.0311    4.3748 H         1 <0>         0.4136
@<TRIPOS>BOND
     1    1    6 ar
     2    1    2 ar
     3    1   22 1
     4    2    3 ar
     5    2   23 1
     6    3    4 ar
     7    3   24 1
     8    4    5 ar
     9    4    7 1
    10    5    6 ar
    11    5   25 1
    12    6   26 1
    13    7    8 1
    14    8   17 2
    15    8    9 1
    16    9   14 ar
    17    9   10 ar
    18   10   11 ar
    19   10   27 1
    20   11   12 ar
    21   11   21 1
    22   12   13 ar
    23   12   28 1
    24   13   14 ar
    25   13   29 1
    26   14   15 1
    27   15   16 1
    28   15   17 1
    29   17   18 1
    30   18   19 2
    31   18   20 am
    32   20   30 1
    33   20   31 1
@<TRIPOS>MOLECULE
ZINC13604439
   78    82     0     0     0
SMALL
USER_CHARGES
(4R,5S,6S,7R)-4,7-dibenzyl-1,3-bis(cyclopentylmethyl)-5,6-dihydroxy-1,3-diazepan-2-one
@<TRIPOS>ATOM
      1 C1          0.3590    8.6091    1.6254 C.ar      1 <0>        -0.1219
      2 C2          0.7960    7.3812    1.1647 C.ar      1 <0>        -0.1188
      3 C3         -0.0443    6.5892    0.4047 C.ar      1 <0>        -0.1146
      4 C4         -1.3178    7.0298    0.0965 C.ar      1 <0>        -0.0630
      5 C5         -1.7529    8.2600    0.5527 C.ar      1 <0>        -0.0874
      6 C6         -0.9145    9.0497    1.3172 C.ar      1 <0>        -0.1191
      7 C7         -2.2317    6.1692   -0.7373 C.3       1 <0>        -0.1099
      8 C8         -1.9028    6.3611   -2.2152 C.3       1 <0>         0.1649
      9 H1         -0.8020    6.2416   -2.3141 H         1 <0>         0.0910
     10 C9         -2.2481    7.7649   -2.6908 C.3       1 <0>         0.0805
     11 H2         -2.0886    7.8154   -3.7816 H         1 <0>         0.0656
     12 C10        -3.6629    8.1906   -2.3945 C.3       1 <0>         0.0624
     13 H3         -3.6810    8.6489   -1.3926 H         1 <0>         0.0752
     14 C11        -4.7259    7.1229   -2.4324 C.3       1 <0>         0.1643
     15 H4         -4.6739    6.4922   -1.5465 H         1 <0>         0.0892
     16 N1         -4.6008    6.2914   -3.6297 N.am      1 <0>        -0.6077
     17 C12        -3.5972    5.4119   -3.7648 C.2       1 <0>         0.7080
     18 O1         -3.7048    4.6031   -4.6754 O.2       1 <0>        -0.5859
     19 N2         -2.5083    5.3197   -3.0284 N.am      1 <0>        -0.6087
     20 C13        -1.8313    4.0113   -3.0328 C.3       1 <0>         0.1268
     21 C14        -2.5049    3.0851   -2.0182 C.3       1 <0>        -0.1059
     22 C15        -1.6051    2.9181   -0.7764 C.3       1 <0>        -0.1240
     23 C16        -1.7989    1.4369   -0.3643 C.3       1 <0>        -0.1251
     24 C17        -1.8879    0.7104   -1.7293 C.3       1 <0>        -0.1261
     25 C18        -2.6850    1.6821   -2.6238 C.3       1 <0>        -0.1140
     26 C19        -5.5952    6.4205   -4.7009 C.3       1 <0>         0.1411
     27 C20        -6.7780    5.4935   -4.4133 C.3       1 <0>        -0.1089
     28 C21        -6.3496    4.0214   -4.5850 C.3       1 <0>        -0.1158
     29 C22        -7.5895    3.3367   -5.2135 C.3       1 <0>        -0.1281
     30 C23        -8.1225    4.4185   -6.1854 C.3       1 <0>        -0.1230
     31 C24        -7.9050    5.7459   -5.4300 C.3       1 <0>        -0.1179
     32 C25        -6.1070    7.7966   -2.4515 C.3       1 <0>        -0.0896
     33 C26        -6.3334    8.5153   -1.1464 C.ar      1 <0>        -0.0835
     34 C27        -6.9305    7.8555   -0.0886 C.ar      1 <0>        -0.1167
     35 C28        -7.1338    8.5133    1.1102 C.ar      1 <0>        -0.1171
     36 C29        -6.7494    9.8340    1.2476 C.ar      1 <0>        -0.1202
     37 C30        -6.1570   10.4954    0.1881 C.ar      1 <0>        -0.1205
     38 C31        -5.9490    9.8360   -1.0089 C.ar      1 <0>        -0.1117
     39 O2         -4.0295    9.2267   -3.3200 O.3       1 <0>        -0.5560
     40 O3         -1.3392    8.7028   -2.0906 O.3       1 <0>        -0.5424
     41 H5          1.0142    9.2261    2.2224 H         1 <0>         0.1170
     42 H6          1.7925    7.0389    1.4018 H         1 <0>         0.1179
     43 H7          0.2957    5.6282    0.0480 H         1 <0>         0.1154
     44 H8         -2.7477    8.6044    0.3116 H         1 <0>         0.1100
     45 H9         -1.2542   10.0110    1.6733 H         1 <0>         0.1161
     46 H10        -2.0920    5.1226   -0.4669 H         1 <0>         0.0942
     47 H11        -3.2673    6.4563   -0.5553 H         1 <0>         0.0706
     48 H12        -1.8984    3.5708   -4.0275 H         1 <0>         0.0981
     49 H13        -0.7832    4.1437   -2.7640 H         1 <0>         0.0787
     50 H14        -3.4727    3.4928   -1.7260 H         1 <0>         0.0731
     51 H15        -0.5629    3.1096   -1.0318 H         1 <0>         0.0684
     52 H16        -1.9312    3.5831    0.0233 H         1 <0>         0.0676
     53 H17        -2.7224    1.3115    0.2009 H         1 <0>         0.0650
     54 H18        -0.9428    1.0798    0.2082 H         1 <0>         0.0657
     55 H19        -2.4200   -0.2351   -1.6243 H         1 <0>         0.0635
     56 H20        -0.8914    0.5450   -2.1391 H         1 <0>         0.0652
     57 H21        -3.7401    1.4084   -2.6247 H         1 <0>         0.0624
     58 H22        -2.2925    1.6610   -3.6405 H         1 <0>         0.0689
     59 H23        -5.9452    7.4516   -4.7495 H         1 <0>         0.0787
     60 H24        -5.1413    6.1456   -5.6530 H         1 <0>         0.0839
     61 H25        -7.1447    5.6599   -3.4004 H         1 <0>         0.0696
     62 H26        -5.4932    3.9491   -5.2554 H         1 <0>         0.0992
     63 H27        -6.1165    3.5766   -3.6176 H         1 <0>         0.0501
     64 H28        -8.3311    3.1051   -4.4490 H         1 <0>         0.0584
     65 H29        -7.3002    2.4375   -5.7574 H         1 <0>         0.0619
     66 H30        -9.1826    4.2627   -6.3854 H         1 <0>         0.0611
     67 H31        -7.5528    4.4106   -7.1146 H         1 <0>         0.0645
     68 H32        -8.8189    6.0340   -4.9106 H         1 <0>         0.0625
     69 H33        -7.6093    6.5288   -6.1284 H         1 <0>         0.0639
     70 H34        -6.1509    8.5121   -3.2727 H         1 <0>         0.0974
     71 H35        -6.8789    7.0392   -2.5878 H         1 <0>         0.0882
     72 H36        -7.2348    6.8250   -0.1974 H         1 <0>         0.1193
     73 H37        -7.5969    7.9967    1.9378 H         1 <0>         0.1215
     74 H38        -6.9122   10.3493    2.1827 H         1 <0>         0.1207
     75 H39        -5.8571   11.5273    0.2954 H         1 <0>         0.1208
     76 H40        -5.4865   10.3528   -1.8368 H         1 <0>         0.1269
     77 H41        -3.4691   10.0134   -3.2718 H         1 <0>         0.3732
     78 H42        -1.4966    9.6219   -2.3466 H         1 <0>         0.3751
@<TRIPOS>BOND
     1    1    6 ar
     2    1    2 ar
     3    1   41 1
     4    2    3 ar
     5    2   42 1
     6    3    4 ar
     7    3   43 1
     8    4    5 ar
     9    4    7 1
    10    5    6 ar
    11    5   44 1
    12    6   45 1
    13    7    8 1
    14    7   46 1
    15    7   47 1
    16    8    9 1
    17    8   19 1
    18    8   10 1
    19   10   11 1
    20   10   12 1
    21   10   40 1
    22   12   13 1
    23   12   14 1
    24   12   39 1
    25   14   15 1
    26   14   16 1
    27   14   32 1
    28   16   17 am
    29   16   26 1
    30   17   18 2
    31   17   19 am
    32   19   20 1
    33   20   21 1
    34   20   48 1
    35   20   49 1
    36   21   25 1
    37   21   22 1
    38   21   50 1
    39   22   23 1
    40   22   51 1
    41   22   52 1
    42   23   24 1
    43   23   53 1
    44   23   54 1
    45   24   25 1
    46   24   55 1
    47   24   56 1
    48   25   57 1
    49   25   58 1
    50   26   27 1
    51   26   59 1
    52   26   60 1
    53   27   31 1
    54   27   28 1
    55   27   61 1
    56   28   29 1
    57   28   62 1
    58   28   63 1
    59   29   30 1
    60   29   64 1
    61   29   65 1
    62   30   31 1
    63   30   66 1
    64   30   67 1
    65   31   68 1
    66   31   69 1
    67   32   33 1
    68   32   70 1
    69   32   71 1
    70   33   38 ar
    71   33   34 ar
    72   34   35 ar
    73   34   72 1
    74   35   36 ar
    75   35   73 1
    76   36   37 ar
    77   36   74 1
    78   37   38 ar
    79   37   75 1
    80   38   76 1
    81   39   77 1
    82   40   78 1
@<TRIPOS>MOLECULE
ZINC28766363
   93    96     0     0     0
SMALL
USER_CHARGES

@<TRIPOS>ATOM
      1 C1          0.0285    1.6662   -0.2709 C.3       1 <0>        -0.1115
      2 C2          0.1399    0.1634   -0.2858 C.ar      1 <0>        -0.0928
      3 C3          0.1336   -0.5183   -1.4873 C.ar      1 <0>        -0.1162
      4 C4          0.2357   -1.8971   -1.5016 C.ar      1 <0>        -0.1120
      5 C5          0.3444   -2.5970   -0.3142 C.ar      1 <0>        -0.1162
      6 C6          0.3512   -1.9199    0.8899 C.ar      1 <0>        -0.0944
      7 C7          0.2546   -0.5361    0.9068 C.ar      1 <0>         0.0856
      8 O1          0.2671    0.1328    2.0897 O.3       1 <0>        -0.2984
      9 C8         -0.9950    0.3579    2.7211 C.3       1 <0>         0.0453
     10 C9         -0.7846    1.1078    4.0112 C.2       1 <0>         0.5148
     11 O2          0.3358    1.4189    4.3560 O.2       1 <0>        -0.4835
     12 N1         -1.8415    1.4328    4.7818 N.am      1 <0>        -0.7274
     13 C10        -1.6369    2.1618    6.0360 C.3       1 <0>         0.1262
     14 H1         -0.7029    1.8388    6.4958 H         1 <0>         0.0993
     15 C11        -1.5713    3.6631    5.7483 C.3       1 <0>        -0.0876
     16 C12        -0.3545    3.9614    4.9108 C.ar      1 <0>        -0.0662
     17 C13         0.8501    4.2552    5.5219 C.ar      1 <0>        -0.1083
     18 C14         1.9662    4.5288    4.7537 C.ar      1 <0>        -0.1115
     19 C15         1.8779    4.5083    3.3743 C.ar      1 <0>        -0.1193
     20 C16         0.6734    4.2136    2.7632 C.ar      1 <0>        -0.1086
     21 C17        -0.4417    3.9357    3.5314 C.ar      1 <0>        -0.1115
     22 C18        -2.7999    1.8752    6.9879 C.3       1 <0>         0.1034
     23 H2         -2.6477    2.4177    7.9211 H         1 <0>         0.1168
     24 C19        -2.8655    0.3740    7.2756 C.3       1 <0>        -0.1603
     25 C20        -3.8997    0.1094    8.3716 C.3       1 <0>         0.1552
     26 H3         -3.6972    0.7554    9.2259 H         1 <0>         0.0989
     27 C21        -3.8168   -1.3546    8.8083 C.3       1 <0>        -0.0952
     28 C22        -4.7480   -1.5856    9.9705 C.ar      1 <0>        -0.0689
     29 C23        -4.2952   -1.4091   11.2646 C.ar      1 <0>        -0.1062
     30 C24        -5.1493   -1.6210   12.3307 C.ar      1 <0>        -0.1119
     31 C25        -6.4563   -2.0090   12.1026 C.ar      1 <0>        -0.1228
     32 C26        -6.9094   -2.1846   10.8085 C.ar      1 <0>        -0.1194
     33 C27        -6.0565   -1.9686    9.7423 C.ar      1 <0>        -0.1145
     34 N2         -5.2416    0.3896    7.8548 N.am      1 <0>        -0.7174
     35 C28        -6.1793    0.9181    8.6658 C.2       1 <0>         0.5175
     36 O3         -5.8891    1.2421    9.7979 O.2       1 <0>        -0.5037
     37 C29        -7.5884    1.1065    8.1659 C.3       1 <0>         0.1547
     38 H4         -7.9508    0.1711    7.7394 H         1 <0>         0.1087
     39 C30        -7.6074    2.1973    7.0931 C.3       1 <0>        -0.1057
     40 C31        -6.8587    1.7057    5.8527 C.3       1 <0>        -0.1673
     41 C32        -9.0556    2.5204    6.7200 C.3       1 <0>        -0.1400
     42 N3         -8.4531    1.5025    9.2803 N.am      1 <0>        -0.6015
     43 C33        -9.5905    0.6567    9.6471 C.3       1 <0>         0.1112
     44 C34        -9.7734    0.6764   11.1664 C.3       1 <0>        -0.1591
     45 C35        -9.7030    2.1012   11.6555 C.2       1 <0>         0.5240
     46 O4        -10.3822    2.4539   12.5958 O.2       1 <0>        -0.5039
     47 N4         -8.8857    2.9808   11.0481 N.am      1 <0>        -0.6752
     48 C36        -8.1880    2.6332    9.9545 C.2       1 <0>         0.7211
     49 O5         -7.2978    3.3623    9.5631 O.2       1 <0>        -0.5319
     50 O6         -4.0244    2.2987    6.3851 O.3       1 <0>        -0.5343
     51 C37         0.4696   -2.6834    2.1838 C.3       1 <0>        -0.1107
     52 H5          1.0250    2.1050   -0.3209 H         1 <0>         0.0752
     53 H6         -0.5571    1.9957   -1.1292 H         1 <0>         0.0669
     54 H7         -0.4632    1.9850    0.6482 H         1 <0>         0.0653
     55 H8          0.0485    0.0261   -2.4161 H         1 <0>         0.1270
     56 H9          0.2303   -2.4283   -2.4419 H         1 <0>         0.1264
     57 H10         0.4237   -3.6740   -0.3280 H         1 <0>         0.1270
     58 H11        -1.6326    0.9444    2.0597 H         1 <0>         0.0793
     59 H12        -1.4721   -0.5994    2.9309 H         1 <0>         0.0789
     60 H13        -2.7375    1.1840    4.5060 H         1 <0>         0.3913
     61 H14        -2.4677    3.9692    5.2089 H         1 <0>         0.0809
     62 H15        -1.5084    4.2108    6.6887 H         1 <0>         0.0815
     63 H16         0.9191    4.2712    6.5996 H         1 <0>         0.1133
     64 H17         2.9072    4.7590    5.2311 H         1 <0>         0.1153
     65 H18         2.7497    4.7227    2.7741 H         1 <0>         0.1144
     66 H19         0.6043    4.1979    1.6855 H         1 <0>         0.1123
     67 H20        -1.3818    3.7019    3.0540 H         1 <0>         0.1060
     68 H21        -3.1533   -0.1575    6.3685 H         1 <0>         0.0727
     69 H22        -1.8876    0.0244    7.6067 H         1 <0>         0.0914
     70 H23        -4.1058   -1.9985    7.9777 H         1 <0>         0.0737
     71 H24        -2.7953   -1.5867    9.1095 H         1 <0>         0.0816
     72 H25        -3.2740   -1.1060   11.4428 H         1 <0>         0.1163
     73 H26        -4.7953   -1.4838   13.3417 H         1 <0>         0.1177
     74 H27        -7.1234   -2.1752   12.9355 H         1 <0>         0.1170
     75 H28        -7.9304   -2.4881   10.6303 H         1 <0>         0.1159
     76 H29        -6.4115   -2.1022    8.7311 H         1 <0>         0.1114
     77 H30        -5.4551    0.1947    6.9289 H         1 <0>         0.3949
     78 H31        -7.1227    3.0943    7.4784 H         1 <0>         0.1068
     79 H32        -7.3536    0.8187    5.4573 H         1 <0>         0.0537
     80 H33        -6.8573    2.4892    5.0949 H         1 <0>         0.0673
     81 H34        -5.8317    1.4591    6.1222 H         1 <0>         0.0773
     82 H35        -9.5891    2.8706    7.6037 H         1 <0>         0.0514
     83 H36        -9.0692    3.2975    5.9557 H         1 <0>         0.0594
     84 H37        -9.5404    1.6234    6.3347 H         1 <0>         0.0531
     85 H38       -10.4935    1.0344    9.1676 H         1 <0>         0.0792
     86 H39        -9.4045   -0.3653    9.3169 H         1 <0>         0.0987
     87 H40       -10.7439    0.2512   11.4220 H         1 <0>         0.1256
     88 H41        -8.9831    0.0907   11.6360 H         1 <0>         0.1150
     89 H42        -8.7969    3.8773   11.4075 H         1 <0>         0.4251
     90 H43        -4.2490    1.8221    5.5742 H         1 <0>         0.3600
     91 H44         1.5218   -2.7912    2.4471 H         1 <0>         0.0753
     92 H45        -0.0491   -2.1412    2.9744 H         1 <0>         0.0639
     93 H46         0.0217   -3.6701    2.0658 H         1 <0>         0.0671
@<TRIPOS>BOND
     1    1    2 1
     2    1   52 1
     3    1   53 1
     4    1   54 1
     5    2    7 ar
     6    2    3 ar
     7    3    4 ar
     8    3   55 1
     9    4    5 ar
    10    4   56 1
    11    5    6 ar
    12    5   57 1
    13    6    7 ar
    14    6   51 1
    15    7    8 1
    16    8    9 1
    17    9   10 1
    18    9   58 1
    19    9   59 1
    20   10   11 2
    21   10   12 am
    22   12   13 1
    23   12   60 1
    24   13   14 1
    25   13   15 1
    26   13   22 1
    27   15   16 1
    28   15   61 1
    29   15   62 1
    30   16   21 ar
    31   16   17 ar
    32   17   18 ar
    33   17   63 1
    34   18   19 ar
    35   18   64 1
    36   19   20 ar
    37   19   65 1
    38   20   21 ar
    39   20   66 1
    40   21   67 1
    41   22   23 1
    42   22   24 1
    43   22   50 1
    44   24   25 1
    45   24   68 1
    46   24   69 1
    47   25   26 1
    48   25   27 1
    49   25   34 1
    50   27   28 1
    51   27   70 1
    52   27   71 1
    53   28   33 ar
    54   28   29 ar
    55   29   30 ar
    56   29   72 1
    57   30   31 ar
    58   30   73 1
    59   31   32 ar
    60   31   74 1
    61   32   33 ar
    62   32   75 1
    63   33   76 1
    64   34   35 am
    65   34   77 1
    66   35   36 2
    67   35   37 1
    68   37   38 1
    69   37   39 1
    70   37   42 1
    71   39   40 1
    72   39   41 1
    73   39   78 1
    74   40   79 1
    75   40   80 1
    76   40   81 1
    77   41   82 1
    78   41   83 1
    79   41   84 1
    80   42   48 am
    81   42   43 1
    82   43   44 1
    83   43   85 1
    84   43   86 1
    85   44   45 1
    86   44   87 1
    87   44   88 1
    88   45   46 2
    89   45   47 am
    90   47   48 am
    91   47   89 1
    92   48   49 2
    93   50   90 1
    94   51   91 1
    95   51   92 1
    96   51   93 1
@<TRIPOS>MOLECULE
ZINC28766263
   95    98     0     0     0
SMALL
USER_CHARGES

@<TRIPOS>ATOM
      1 C1          0.0555    1.6321    0.0240 C.3       1 <0>        -0.1115
      2 C2          0.1289    0.1272   -0.0082 C.ar      1 <0>        -0.0929
      3 C3          0.1410   -0.5386   -1.2186 C.ar      1 <0>        -0.1163
      4 C4          0.2083   -1.9193   -1.2488 C.ar      1 <0>        -0.1122
      5 C5          0.2637   -2.6371   -0.0684 C.ar      1 <0>        -0.1163
      6 C6          0.2520   -1.9760    1.1445 C.ar      1 <0>        -0.0944
      7 C7          0.1903   -0.5904    1.1775 C.ar      1 <0>         0.0858
      8 O1          0.1847    0.0625    2.3693 O.3       1 <0>        -0.2984
      9 C8         -1.0894    0.3120    2.9664 C.3       1 <0>         0.0453
     10 C9         -0.8984    1.0395    4.2723 C.2       1 <0>         0.5148
     11 O2          0.2189    1.3169    4.6541 O.2       1 <0>        -0.4841
     12 N1         -1.9690    1.3817    5.0159 N.am      1 <0>        -0.7270
     13 C10        -1.7833    2.0889    6.2854 C.3       1 <0>         0.1262
     14 H1         -0.8719    1.7359    6.7680 H         1 <0>         0.0991
     15 C11        -1.6709    3.5916    6.0205 C.3       1 <0>        -0.0877
     16 C12        -0.4226    3.8691    5.2232 C.ar      1 <0>        -0.0657
     17 C13         0.7705    4.1236    5.8734 C.ar      1 <0>        -0.1083
     18 C14         1.9155    4.3782    5.1420 C.ar      1 <0>        -0.1116
     19 C15         1.8677    4.3778    3.7605 C.ar      1 <0>        -0.1195
     20 C16         0.6748    4.1224    3.1103 C.ar      1 <0>        -0.1086
     21 C17        -0.4693    3.8636    3.8416 C.ar      1 <0>        -0.1115
     22 C18        -2.9810    1.8203    7.1988 C.3       1 <0>         0.1039
     23 H2         -2.8428    2.3464    8.1434 H         1 <0>         0.1164
     24 C19        -3.0934    0.3176    7.4638 C.3       1 <0>        -0.1599
     25 C20        -4.1659    0.0657    8.5255 C.3       1 <0>         0.1557
     26 H3         -3.9719    0.6948    9.3943 H         1 <0>         0.0981
     27 C21        -4.1337   -1.4056    8.9439 C.3       1 <0>        -0.0948
     28 C22        -5.1043   -1.6275   10.0752 C.ar      1 <0>        -0.0688
     29 C23        -4.6853   -1.4801   11.3843 C.ar      1 <0>        -0.1071
     30 C24        -5.5756   -1.6836   12.4220 C.ar      1 <0>        -0.1123
     31 C25        -6.8850   -2.0340   12.1506 C.ar      1 <0>        -0.1208
     32 C26        -7.3042   -2.1805   10.8416 C.ar      1 <0>        -0.1174
     33 C27        -6.4150   -1.9728    9.8037 C.ar      1 <0>        -0.1135
     34 N2         -5.4842    0.3879    7.9739 N.am      1 <0>        -0.7210
     35 C28        -6.4259    0.9457    8.7605 C.2       1 <0>         0.5177
     36 O3         -6.1563    1.2574    9.9012 O.2       1 <0>        -0.4973
     37 C29        -7.8137    1.1820    8.2227 C.3       1 <0>         0.1590
     38 H4         -8.1943    0.2606    7.7819 H         1 <0>         0.1003
     39 C30        -7.7673    2.2770    7.1551 C.3       1 <0>        -0.1036
     40 C31        -7.0010    1.7660    5.9334 C.3       1 <0>        -0.1667
     41 C32        -9.1933    2.6490    6.7439 C.3       1 <0>        -0.1383
     42 N3         -8.6957    1.6015    9.3146 N.am      1 <0>        -0.6068
     43 C33        -9.8683    0.7888    9.6418 C.3       1 <0>         0.1172
     44 C34       -10.1900    0.9470   11.1317 C.3       1 <0>        -0.1438
     45 C35       -10.3675    2.4382   11.4367 C.3       1 <0>         0.3243
     46 H5        -11.2335    2.8201   10.8960 H         1 <0>         0.0671
     47 N4         -9.1677    3.1614   11.0121 N.am      1 <0>        -0.7569
     48 C36        -8.4092    2.7198    9.9979 C.2       1 <0>         0.7267
     49 O4         -7.4259    3.3613    9.6818 O.2       1 <0>        -0.5666
     50 O5        -10.5635    2.6184   12.8407 O.3       1 <0>        -0.5597
     51 O6         -4.1758    2.2831    6.5661 O.3       1 <0>        -0.5332
     52 C37         0.3124   -2.7590    2.4307 C.3       1 <0>        -0.1108
     53 H6          1.0640    2.0454    0.0093 H         1 <0>         0.0752
     54 H7         -0.4957    1.9877   -0.8466 H         1 <0>         0.0668
     55 H8         -0.4549    1.9515    0.9326 H         1 <0>         0.0654
     56 H9          0.0974    0.0198   -2.1420 H         1 <0>         0.1270
     57 H10         0.2172   -2.4379   -2.1961 H         1 <0>         0.1264
     58 H11         0.3159   -3.7155   -0.0947 H         1 <0>         0.1269
     59 H12        -1.6920    0.9234    2.2947 H         1 <0>         0.0792
     60 H13        -1.5968   -0.6352    3.1490 H         1 <0>         0.0789
     61 H14        -2.8626    1.1598    4.7106 H         1 <0>         0.3915
     62 H15        -2.5428    3.9278    5.4592 H         1 <0>         0.0809
     63 H16        -1.6220    4.1252    6.9696 H         1 <0>         0.0815
     64 H17         0.8078    4.1240    6.9527 H         1 <0>         0.1133
     65 H18         2.8475    4.5778    5.6500 H         1 <0>         0.1152
     66 H19         2.7622    4.5774    3.1891 H         1 <0>         0.1142
     67 H20         0.6374    4.1224    2.0310 H         1 <0>         0.1122
     68 H21        -1.4005    3.6603    3.3336 H         1 <0>         0.1060
     69 H22        -3.3678   -0.1945    6.5415 H         1 <0>         0.0718
     70 H23        -2.1349   -0.0615    7.8185 H         1 <0>         0.0901
     71 H24        -4.4148   -2.0306    8.0962 H         1 <0>         0.0728
     72 H25        -3.1278   -1.6684    9.2713 H         1 <0>         0.0805
     73 H26        -3.6623   -1.2063   11.5962 H         1 <0>         0.1159
     74 H27        -5.2481   -1.5691   13.4447 H         1 <0>         0.1171
     75 H28        -7.5803   -2.1937   12.9614 H         1 <0>         0.1161
     76 H29        -8.3271   -2.4547   10.6296 H         1 <0>         0.1144
     77 H30        -6.7435   -2.0837    8.7809 H         1 <0>         0.1107
     78 H31        -5.6795    0.1999    7.0426 H         1 <0>         0.3929
     79 H32        -7.2643    3.1561    7.5580 H         1 <0>         0.1046
     80 H33        -7.5173    0.9014    5.5162 H         1 <0>         0.0521
     81 H34        -6.9472    2.5542    5.1825 H         1 <0>         0.0651
     82 H35        -5.9927    1.4783    6.2311 H         1 <0>         0.0772
     83 H36        -9.7392    3.0130    7.6143 H         1 <0>         0.0516
     84 H37        -9.1602    3.4291    5.9833 H         1 <0>         0.0568
     85 H38        -9.6963    1.7699    6.3411 H         1 <0>         0.0510
     86 H39       -10.7195    1.1218    9.0479 H         1 <0>         0.0688
     87 H40        -9.6581   -0.2583    9.4237 H         1 <0>         0.0857
     88 H41       -11.1110    0.4133   11.3660 H         1 <0>         0.1010
     89 H42        -9.3699    0.5465   11.7277 H         1 <0>         0.0884
     90 H43        -8.9139    3.9745   11.4763 H         1 <0>         0.4106
     91 H44       -10.6831    3.5406   13.1059 H         1 <0>         0.3864
     92 H45        -4.3868    1.8249    5.7411 H         1 <0>         0.3593
     93 H46         1.3533   -2.8974    2.7233 H         1 <0>         0.0753
     94 H47        -0.2155   -2.2138    3.2131 H         1 <0>         0.0640
     95 H48        -0.1568   -3.7321    2.2861 H         1 <0>         0.0671
@<TRIPOS>BOND
     1    1    2 1
     2    1   53 1
     3    1   54 1
     4    1   55 1
     5    2    7 ar
     6    2    3 ar
     7    3    4 ar
     8    3   56 1
     9    4    5 ar
    10    4   57 1
    11    5    6 ar
    12    5   58 1
    13    6    7 ar
    14    6   52 1
    15    7    8 1
    16    8    9 1
    17    9   10 1
    18    9   59 1
    19    9   60 1
    20   10   11 2
    21   10   12 am
    22   12   13 1
    23   12   61 1
    24   13   14 1
    25   13   15 1
    26   13   22 1
    27   15   16 1
    28   15   62 1
    29   15   63 1
    30   16   21 ar
    31   16   17 ar
    32   17   18 ar
    33   17   64 1
    34   18   19 ar
    35   18   65 1
    36   19   20 ar
    37   19   66 1
    38   20   21 ar
    39   20   67 1
    40   21   68 1
    41   22   23 1
    42   22   24 1
    43   22   51 1
    44   24   25 1
    45   24   69 1
    46   24   70 1
    47   25   26 1
    48   25   27 1
    49   25   34 1
    50   27   28 1
    51   27   71 1
    52   27   72 1
    53   28   33 ar
    54   28   29 ar
    55   29   30 ar
    56   29   73 1
    57   30   31 ar
    58   30   74 1
    59   31   32 ar
    60   31   75 1
    61   32   33 ar
    62   32   76 1
    63   33   77 1
    64   34   35 am
    65   34   78 1
    66   35   36 2
    67   35   37 1
    68   37   38 1
    69   37   39 1
    70   37   42 1
    71   39   40 1
    72   39   41 1
    73   39   79 1
    74   40   80 1
    75   40   81 1
    76   40   82 1
    77   41   83 1
    78   41   84 1
    79   41   85 1
    80   42   48 am
    81   42   43 1
    82   43   44 1
    83   43   86 1
    84   43   87 1
    85   44   45 1
    86   44   88 1
    87   44   89 1
    88   45   46 1
    89   45   47 1
    90   45   50 1
    91   47   48 am
    92   47   90 1
    93   48   49 2
    94   50   91 1
    95   51   92 1
    96   52   93 1
    97   52   94 1
    98   52   95 1
@<TRIPOS>MOLECULE
ZINC28766266
   95    98     0     0     0
SMALL
USER_CHARGES

@<TRIPOS>ATOM
      1 C1          0.0564    1.6461    0.0778 C.3       1 <0>        -0.1115
      2 C2          0.1268    0.1412    0.0414 C.ar      1 <0>        -0.0928
      3 C3          0.1432   -0.5210   -1.1709 C.ar      1 <0>        -0.1163
      4 C4          0.2077   -1.9017   -1.2049 C.ar      1 <0>        -0.1122
      5 C5          0.2559   -2.6232   -0.0264 C.ar      1 <0>        -0.1163
      6 C6          0.2398   -1.9657    1.1885 C.ar      1 <0>        -0.0944
      7 C7          0.1809   -0.5801    1.2253 C.ar      1 <0>         0.0858
      8 O1          0.1710    0.0693    2.4190 O.3       1 <0>        -0.2984
      9 C8         -1.1054    0.3197    3.0107 C.3       1 <0>         0.0453
     10 C9         -0.9191    1.0429    4.3197 C.2       1 <0>         0.5148
     11 O2          0.1969    1.3168    4.7077 O.2       1 <0>        -0.4841
     12 N1         -1.9926    1.3852    5.0592 N.am      1 <0>        -0.7271
     13 C10        -1.8115    2.0882    6.3317 C.3       1 <0>         0.1262
     14 H1         -0.9032    1.7318    6.8176 H         1 <0>         0.0990
     15 C11        -1.6946    3.5914    6.0718 C.3       1 <0>        -0.0878
     16 C12        -0.4418    3.8686    5.2813 C.ar      1 <0>        -0.0657
     17 C13         0.7486    4.1186    5.9380 C.ar      1 <0>        -0.1083
     18 C14         1.8977    4.3729    5.2129 C.ar      1 <0>        -0.1116
     19 C15         1.8565    4.3767    3.8312 C.ar      1 <0>        -0.1195
     20 C16         0.6663    4.1258    3.1745 C.ar      1 <0>        -0.1086
     21 C17        -0.4820    3.8673    3.8996 C.ar      1 <0>        -0.1115
     22 C18        -3.0141    1.8194    7.2385 C.3       1 <0>         0.1039
     23 H2         -2.8793    2.3424    8.1853 H         1 <0>         0.1164
     24 C19        -3.1310    0.3162    7.4985 C.3       1 <0>        -0.1600
     25 C20        -4.2090    0.0635    8.5544 C.3       1 <0>         0.1557
     26 H3         -4.0177    0.6895    9.4259 H         1 <0>         0.0983
     27 C21        -4.1820   -1.4092    8.9685 C.3       1 <0>        -0.0950
     28 C22        -5.1583   -1.6323   10.0945 C.ar      1 <0>        -0.0685
     29 C23        -4.7452   -1.4898   11.4060 C.ar      1 <0>        -0.1072
     30 C24        -5.6407   -1.6945   12.4389 C.ar      1 <0>        -0.1129
     31 C25        -6.9496   -2.0412   12.1604 C.ar      1 <0>        -0.1222
     32 C26        -7.3630   -2.1829   10.8489 C.ar      1 <0>        -0.1178
     33 C27        -6.4685   -1.9740    9.8159 C.ar      1 <0>        -0.1128
     34 N2         -5.5240    0.3902    7.9976 N.am      1 <0>        -0.7210
     35 C28        -6.4659    0.9538    8.7797 C.2       1 <0>         0.5189
     36 O3         -6.1990    1.2663    9.9208 O.2       1 <0>        -0.4980
     37 C29        -7.8505    1.1958    8.2364 C.3       1 <0>         0.1591
     38 H4         -8.2334    0.2758    7.7946 H         1 <0>         0.1005
     39 C30        -7.7953    2.2899    7.1684 C.3       1 <0>        -0.1036
     40 C31        -7.0270    1.7748    5.9497 C.3       1 <0>        -0.1663
     41 C32        -9.2181    2.6682    6.7517 C.3       1 <0>        -0.1391
     42 N3         -8.7349    1.6198    9.3246 N.am      1 <0>        -0.6069
     43 C33        -9.9123    0.8122    9.6477 C.3       1 <0>         0.1156
     44 C34       -11.0031    1.7216   10.2236 C.3       1 <0>        -0.1422
     45 C35       -10.4243    2.4775   11.4243 C.3       1 <0>         0.3238
     46 N4         -9.2191    3.1947   11.0048 N.am      1 <0>        -0.7570
     47 C36        -8.4464    2.7372   10.0083 C.2       1 <0>         0.7264
     48 O4         -7.4476    3.3629    9.7095 O.2       1 <0>        -0.5658
     49 O5        -11.3903    3.4111   11.9117 O.3       1 <0>        -0.5605
     50 O6         -4.2049    2.2867    6.6015 O.3       1 <0>        -0.5331
     51 C37         0.2923   -2.7527    2.4726 C.3       1 <0>        -0.1108
     52 H5          1.0658    2.0574    0.0692 H         1 <0>         0.0752
     53 H6         -0.4898    2.0055   -0.7943 H         1 <0>         0.0668
     54 H7         -0.4577    1.9640    0.9849 H         1 <0>         0.0654
     55 H8          0.1052    0.0403   -2.0928 H         1 <0>         0.1270
     56 H9          0.2200   -2.4176   -2.1537 H         1 <0>         0.1264
     57 H10         0.3059   -3.7016   -0.0556 H         1 <0>         0.1269
     58 H11        -1.7035    0.9344    2.3380 H         1 <0>         0.0792
     59 H12        -1.6158   -0.6269    3.1881 H         1 <0>         0.0789
     60 H13        -2.8851    1.1661    4.7489 H         1 <0>         0.3915
     61 H14        -2.5630    3.9311    5.5074 H         1 <0>         0.0809
     62 H15        -1.6491    4.1221    7.0228 H         1 <0>         0.0815
     63 H16         0.7808    4.1156    7.0175 H         1 <0>         0.1133
     64 H17         2.8277    4.5689    5.7260 H         1 <0>         0.1152
     65 H18         2.7542    4.5761    3.2647 H         1 <0>         0.1142
     66 H19         0.6340    4.1291    2.0950 H         1 <0>         0.1123
     67 H20        -1.4111    3.6676    3.3865 H         1 <0>         0.1060
     68 H21        -3.4022   -0.1925    6.5734 H         1 <0>         0.0718
     69 H22        -2.1750   -0.0660    7.8565 H         1 <0>         0.0901
     70 H23        -4.4604   -2.0310    8.1176 H         1 <0>         0.0730
     71 H24        -3.1782   -1.6751    9.2998 H         1 <0>         0.0806
     72 H25        -3.7226   -1.2188   11.6236 H         1 <0>         0.1161
     73 H26        -5.3178   -1.5838   13.4635 H         1 <0>         0.1172
     74 H27        -7.6491   -2.2018   12.9674 H         1 <0>         0.1159
     75 H28        -8.3854   -2.4542   10.6313 H         1 <0>         0.1149
     76 H29        -6.7924   -2.0810    8.7912 H         1 <0>         0.1112
     77 H30        -5.7169    0.2009    7.0660 H         1 <0>         0.3930
     78 H31        -7.2898    3.1670    7.5725 H         1 <0>         0.1037
     79 H32        -7.5471    0.9141    5.5295 H         1 <0>         0.0522
     80 H33        -6.9644    2.5633    5.1997 H         1 <0>         0.0651
     81 H34        -6.0220    1.4801    6.2518 H         1 <0>         0.0769
     82 H35        -9.7655    3.0352    7.6199 H         1 <0>         0.0526
     83 H36        -9.1788    3.4477    5.9909 H         1 <0>         0.0568
     84 H37        -9.7236    1.7911    6.3476 H         1 <0>         0.0507
     85 H38       -10.2814    0.3283    8.7434 H         1 <0>         0.0884
     86 H39        -9.6436    0.0546   10.3838 H         1 <0>         0.0670
     87 H40       -11.3252    2.4334    9.4635 H         1 <0>         0.0867
     88 H41       -11.8511    1.1172   10.5457 H         1 <0>         0.1026
     89 H42       -10.1707    1.7692   12.2130 H         1 <0>         0.0667
     90 H43        -8.9722    4.0153   11.4592 H         1 <0>         0.4106
     91 H44       -11.0904    3.9258   12.6734 H         1 <0>         0.3871
     92 H45        -4.4123    1.8321    5.7736 H         1 <0>         0.3593
     93 H46         1.3315   -2.8942    2.7697 H         1 <0>         0.0753
     94 H47        -0.2382   -2.2087    3.2541 H         1 <0>         0.0640
     95 H48        -0.1783   -3.7244    2.3227 H         1 <0>         0.0670
@<TRIPOS>BOND
     1    1    2 1
     2    1   52 1
     3    1   53 1
     4    1   54 1
     5    2    7 ar
     6    2    3 ar
     7    3    4 ar
     8    3   55 1
     9    4    5 ar
    10    4   56 1
    11    5    6 ar
    12    5   57 1
    13    6    7 ar
    14    6   51 1
    15    7    8 1
    16    8    9 1
    17    9   10 1
    18    9   58 1
    19    9   59 1
    20   10   11 2
    21   10   12 am
    22   12   13 1
    23   12   60 1
    24   13   14 1
    25   13   15 1
    26   13   22 1
    27   15   16 1
    28   15   61 1
    29   15   62 1
    30   16   21 ar
    31   16   17 ar
    32   17   18 ar
    33   17   63 1
    34   18   19 ar
    35   18   64 1
    36   19   20 ar
    37   19   65 1
    38   20   21 ar
    39   20   66 1
    40   21   67 1
    41   22   23 1
    42   22   24 1
    43   22   50 1
    44   24   25 1
    45   24   68 1
    46   24   69 1
    47   25   26 1
    48   25   27 1
    49   25   34 1
    50   27   28 1
    51   27   70 1
    52   27   71 1
    53   28   33 ar
    54   28   29 ar
    55   29   30 ar
    56   29   72 1
    57   30   31 ar
    58   30   73 1
    59   31   32 ar
    60   31   74 1
    61   32   33 ar
    62   32   75 1
    63   33   76 1
    64   34   35 am
    65   34   77 1
    66   35   36 2
    67   35   37 1
    68   37   38 1
    69   37   39 1
    70   37   42 1
    71   39   40 1
    72   39   41 1
    73   39   78 1
    74   40   79 1
    75   40   80 1
    76   40   81 1
    77   41   82 1
    78   41   83 1
    79   41   84 1
    80   42   47 am
    81   42   43 1
    82   43   44 1
    83   43   85 1
    84   43   86 1
    85   44   45 1
    86   44   87 1
    87   44   88 1
    88   45   46 1
    89   45   49 1
    90   45   89 1
    91   46   47 am
    92   46   90 1
    93   47   48 2
    94   49   91 1
    95   50   92 1
    96   51   93 1
    97   51   94 1
    98   51   95 1
@<TRIPOS>MOLECULE
ZINC00045127
   49    52     0     0     0
SMALL
USER_CHARGES
tetramethylBLAHtetrol
@<TRIPOS>ATOM
      1 C1         -0.7338    2.0127   -0.7637 C.3       1 <0>        -0.1513
      2 C2          0.0107    1.3837    0.4158 C.3       1 <0>        -0.0237
      3 C3          0.1524   -0.1409    0.2083 C.3       1 <0>        -0.1036
      4 C4          1.5288   -0.2509   -0.4617 C.3       1 <0>         0.0269
      5 C5          2.2401   -1.5420   -0.0334 C.3       1 <0>        -0.1027
      6 C6          3.0313   -1.9166   -1.3066 C.3       1 <0>        -0.0236
      7 C7          2.2657   -1.2851   -2.4510 C.ar      1 <0>        -0.0726
      8 C8          1.4002   -0.3213   -1.9602 C.ar      1 <0>        -0.0676
      9 C9          0.5965    0.3918   -2.8348 C.ar      1 <0>        -0.1355
     10 C10         0.6518    0.1444   -4.1954 C.ar      1 <0>         0.0808
     11 C11         1.5200   -0.8255   -4.6872 C.ar      1 <0>         0.0836
     12 C12         2.3230   -1.5358   -3.8114 C.ar      1 <0>        -0.1158
     13 O1          1.5795   -1.0744   -6.0228 O.3       1 <0>        -0.4868
     14 O2         -0.1397    0.8474   -5.0491 O.3       1 <0>        -0.4863
     15 C13         3.0781   -3.4366   -1.4743 C.3       1 <0>        -0.1402
     16 C14         4.4491   -1.3454   -1.2375 C.3       1 <0>        -0.1506
     17 C15         2.3042    0.9649   -0.0281 C.ar      1 <0>        -0.0670
     18 C16         1.4295    1.9100    0.4823 C.ar      1 <0>        -0.0717
     19 C17         1.9142    3.1186    0.9528 C.ar      1 <0>        -0.1159
     20 C18         3.2710    3.3905    0.9130 C.ar      1 <0>         0.0832
     21 C19         4.1500    2.4429    0.3976 C.ar      1 <0>         0.0799
     22 C20         3.6623    1.2351   -0.0705 C.ar      1 <0>        -0.1368
     23 O3          5.4842    2.7028    0.3538 O.3       1 <0>        -0.4862
     24 O4          3.7429    4.5789    1.3762 O.3       1 <0>        -0.4868
     25 C21        -0.7251    1.6749    1.7252 C.3       1 <0>        -0.1396
     26 H1         -1.4295    1.2861   -1.1833 H         1 <0>         0.0683
     27 H2         -1.2855    2.8877   -0.4201 H         1 <0>         0.0638
     28 H3         -0.0166    2.3124   -1.5278 H         1 <0>         0.0673
     29 H4          0.1430   -0.6650    1.1640 H         1 <0>         0.0834
     30 H5         -0.6307   -0.5174   -0.4497 H         1 <0>         0.0848
     31 H6          2.9149   -1.3546    0.8019 H         1 <0>         0.0837
     32 H7          1.5173   -2.3186    0.2169 H         1 <0>         0.0834
     33 H8         -0.0771    1.1445   -2.4527 H         1 <0>         0.1534
     34 H9          2.9975   -2.2888   -4.1912 H         1 <0>         0.1308
     35 H10         2.2298   -0.5363   -6.4946 H         1 <0>         0.3874
     36 H11         0.2649    1.6605   -5.3812 H         1 <0>         0.3870
     37 H12         2.0629   -3.8242   -1.5592 H         1 <0>         0.0593
     38 H13         3.6387   -3.6857   -2.3753 H         1 <0>         0.0586
     39 H14         3.5661   -3.8829   -0.6078 H         1 <0>         0.0622
     40 H15         4.7620   -1.2750   -0.1958 H         1 <0>         0.0664
     41 H16         5.1316   -2.0009   -1.7784 H         1 <0>         0.0637
     42 H17         4.4635   -0.3535   -1.6891 H         1 <0>         0.0685
     43 H18         1.2304    3.8528    1.3525 H         1 <0>         0.1307
     44 H19         4.3441    0.4992   -0.4703 H         1 <0>         0.1539
     45 H20         5.9647    2.4276    1.1466 H         1 <0>         0.3865
     46 H21         3.9734    4.5714    2.3153 H         1 <0>         0.3873
     47 H22        -0.1640    1.2528    2.5589 H         1 <0>         0.0585
     48 H23        -0.8176    2.7528    1.8581 H         1 <0>         0.0584
     49 H24        -1.7180    1.2264    1.6915 H         1 <0>         0.0626
@<TRIPOS>BOND
     1    1    2 1
     2    1   26 1
     3    1   27 1
     4    1   28 1
     5    2   18 1
     6    2    3 1
     7    2   25 1
     8    3    4 1
     9    3   29 1
    10    3   30 1
    11    4    8 1
    12    4    5 1
    13    4   17 1
    14    5    6 1
    15    5   31 1
    16    5   32 1
    17    6    7 1
    18    6   15 1
    19    6   16 1
    20    7   12 ar
    21    7    8 ar
    22    8    9 ar
    23    9   10 ar
    24    9   33 1
    25   10   11 ar
    26   10   14 1
    27   11   12 ar
    28   11   13 1
    29   12   34 1
    30   13   35 1
    31   14   36 1
    32   15   37 1
    33   15   38 1
    34   15   39 1
    35   16   40 1
    36   16   41 1
    37   16   42 1
    38   17   22 ar
    39   17   18 ar
    40   18   19 ar
    41   19   20 ar
    42   19   43 1
    43   20   21 ar
    44   20   24 1
    45   21   22 ar
    46   21   23 1
    47   22   44 1
    48   23   45 1
    49   24   46 1
    50   25   47 1
    51   25   48 1
    52   25   49 1
@<TRIPOS>MOLECULE
ZINC38158973
  101   100     0     0     0
SMALL
USER_CHARGES

@<TRIPOS>ATOM
      1 C1         -4.3602    1.6367   -3.8186 C.3       1 <0>        -0.1585
      2 C2         -3.3647    0.5790   -3.3376 C.3       1 <0>         0.1236
      3 H1         -2.5084    1.0697   -2.8751 H         1 <0>         0.1144
      4 C3         -2.8990   -0.2431   -4.5116 C.2       1 <0>         0.5118
      5 O1         -3.0916   -1.4404   -4.5280 O.2       1 <0>        -0.5289
      6 N1         -2.2685    0.3522   -5.5434 N.am      1 <0>        -0.7089
      7 C4         -1.8157   -0.4471   -6.6847 C.3       1 <0>         0.1075
      8 H2         -1.4895   -1.4268   -6.3356 H         1 <0>         0.0965
      9 C5         -2.9675   -0.6169   -7.6773 C.3       1 <0>        -0.1186
     10 C6         -4.0845   -1.4359   -7.0273 C.3       1 <0>        -0.0922
     11 C7         -5.2859   -1.5003   -7.9725 C.3       1 <0>        -0.1463
     12 C8         -3.5804   -2.8528   -6.7460 C.3       1 <0>        -0.1382
     13 C9         -0.6490    0.2633   -7.3739 C.3       1 <0>         0.1256
     14 H3         -0.3121   -0.3314   -8.2230 H         1 <0>         0.1105
     15 C10         0.5028    0.4331   -6.3812 C.3       1 <0>        -0.2152
     16 C11         1.6952    1.0207   -7.0910 C.2       1 <0>         0.4910
     17 O2          1.6299    1.2797   -8.2806 O.co2     1 <0>        -0.6819
     18 O3          2.7253    1.2372   -6.4757 O.co2     1 <0>        -0.7088
     19 O4         -1.0766    1.5477   -7.8315 O.3       1 <0>        -0.5330
     20 N2         -4.0153   -0.2941   -2.3575 N.am      1 <0>        -0.7132
     21 C12        -4.0614    0.0665   -1.0597 C.2       1 <0>         0.5168
     22 O5         -3.5642    1.1137   -0.7032 O.2       1 <0>        -0.5215
     23 C13        -4.7306   -0.8316   -0.0514 C.3       1 <0>        -0.1752
     24 C14        -4.6442   -0.1936    1.3365 C.3       1 <0>         0.1178
     25 H4         -5.0661    0.8109    1.3016 H         1 <0>         0.1109
     26 C15        -5.4302   -1.0424    2.3379 C.3       1 <0>         0.1088
     27 H5         -6.4523   -1.1711    1.9816 H         1 <0>         0.1119
     28 C16        -4.7633   -2.4120    2.4797 C.3       1 <0>        -0.1359
     29 C17        -5.6148   -3.3024    3.3868 C.3       1 <0>        -0.0875
     30 C18        -5.0858   -4.7371    3.3354 C.3       1 <0>        -0.1488
     31 C19        -5.5426   -2.7835    4.8243 C.3       1 <0>        -0.1670
     32 N3         -5.4478   -0.3706    3.6396 N.am      1 <0>        -0.7082
     33 C20        -6.6224   -0.1027    4.2439 C.2       1 <0>         0.5210
     34 O6         -7.6604   -0.4904    3.7507 O.2       1 <0>        -0.5302
     35 C21        -6.6460    0.6785    5.5324 C.3       1 <0>         0.1305
     36 H6         -6.0750    0.1442    6.2917 H         1 <0>         0.1149
     37 C22        -6.0248    2.0579    5.3039 C.3       1 <0>        -0.1022
     38 C23        -6.8964    2.8550    4.3313 C.3       1 <0>        -0.1484
     39 C24        -5.9348    2.8038    6.6368 C.3       1 <0>        -0.1381
     40 N4         -8.0311    0.8352    5.9832 N.am      1 <0>        -0.7016
     41 C25        -8.2966    1.0285    7.2903 C.2       1 <0>         0.5196
     42 O7         -7.3864    1.1590    8.0811 O.2       1 <0>        -0.5270
     43 C26        -9.7244    1.0825    7.7692 C.3       1 <0>         0.1336
     44 H7        -10.3538    1.5090    6.9881 H         1 <0>         0.1079
     45 C27       -10.2063   -0.3322    8.0968 C.3       1 <0>        -0.0971
     46 C28       -11.6859   -0.2901    8.4842 C.3       1 <0>        -0.1373
     47 C29       -10.0255   -1.2293    6.8707 C.3       1 <0>        -0.1522
     48 N5         -9.8052    1.9165    8.9710 N.am      1 <0>        -0.7153
     49 C30       -10.9641    2.5248    9.2924 C.2       1 <0>         0.5132
     50 O8        -11.9401    2.3819    8.5867 O.2       1 <0>        -0.5387
     51 C31       -11.0472    3.3827   10.5286 C.3       1 <0>        -0.1712
     52 O9         -3.2762   -0.1218    1.7434 O.3       1 <0>        -0.5402
     53 H8         -3.8762    2.2863   -4.5478 H         1 <0>         0.0729
     54 H9         -5.2166    1.1459   -4.2810 H         1 <0>         0.0629
     55 H10        -4.6971    2.2313   -2.9694 H         1 <0>         0.0723
     56 H11        -2.1145    1.3098   -5.5303 H         1 <0>         0.3975
     57 H12        -3.3523    0.3634   -7.9586 H         1 <0>         0.0690
     58 H13        -2.6076   -1.1346   -8.5664 H         1 <0>         0.0715
     59 H14        -4.3834   -0.9641   -6.0913 H         1 <0>         0.0712
     60 H15        -4.9870   -1.9721   -8.9085 H         1 <0>         0.0510
     61 H16        -6.0816   -2.0838   -7.5094 H         1 <0>         0.0477
     62 H17        -5.6450   -0.4908   -8.1729 H         1 <0>         0.0485
     63 H18        -4.3761   -3.4363   -6.2829 H         1 <0>         0.0423
     64 H19        -3.2814   -3.3246   -7.6820 H         1 <0>         0.0397
     65 H20        -2.7245   -2.8069   -6.0727 H         1 <0>         0.0729
     66 H21         0.1937    1.1004   -5.5767 H         1 <0>         0.0579
     67 H22         0.7700   -0.5383   -5.9651 H         1 <0>         0.0640
     68 H23        -1.3904    2.1316   -7.1275 H         1 <0>         0.3505
     69 H24        -4.4129   -1.1316   -2.6425 H         1 <0>         0.4084
     70 H25        -5.7771   -0.9677   -0.3242 H         1 <0>         0.1051
     71 H26        -4.2298   -1.7996   -0.0381 H         1 <0>         0.1024
     72 H27        -4.6724   -2.8754    1.4973 H         1 <0>         0.0801
     73 H28        -3.7723   -2.2900    2.9170 H         1 <0>         0.0727
     74 H29        -6.6499   -3.2844    3.0456 H         1 <0>         0.0713
     75 H30        -4.0507   -4.7551    3.6766 H         1 <0>         0.0540
     76 H31        -5.6925   -5.3715    3.9816 H         1 <0>         0.0533
     77 H32        -5.1373   -5.1069    2.3113 H         1 <0>         0.0546
     78 H33        -5.8348   -1.7336    4.8467 H         1 <0>         0.0708
     79 H34        -6.2184   -3.3622    5.4539 H         1 <0>         0.0467
     80 H35        -4.5231   -2.8848    5.1964 H         1 <0>         0.0511
     81 H36        -4.6142   -0.1186    4.0667 H         1 <0>         0.4083
     82 H37        -5.0255    1.9414    4.8845 H         1 <0>         0.0860
     83 H38        -7.8957    2.9714    4.7507 H         1 <0>         0.0565
     84 H39        -6.4539    3.8377    4.1685 H         1 <0>         0.0625
     85 H40        -6.9605    2.3236    3.3818 H         1 <0>         0.0543
     86 H41        -6.9341    2.9203    7.0562 H         1 <0>         0.0598
     87 H42        -5.3138    2.2360    7.3296 H         1 <0>         0.0626
     88 H43        -5.4922    3.7865    6.4740 H         1 <0>         0.0517
     89 H44        -8.7571    0.7999    5.3408 H         1 <0>         0.4125
     90 H45        -9.6244   -0.7309    8.9277 H         1 <0>         0.0776
     91 H46       -12.2678    0.1087    7.6533 H         1 <0>         0.0639
     92 H47       -12.0292   -1.2979    8.7176 H         1 <0>         0.0522
     93 H48       -11.8147    0.3490    9.3577 H         1 <0>         0.0565
     94 H49        -8.9626   -1.3448    6.6586 H         1 <0>         0.0588
     95 H50       -10.4650   -2.2070    7.0678 H         1 <0>         0.0639
     96 H51       -10.5201   -0.7751    6.0120 H         1 <0>         0.0614
     97 H52        -9.0246    2.0308    9.5354 H         1 <0>         0.4104
     98 H53       -10.0796    3.3916   11.0304 H         1 <0>         0.0769
     99 H54       -11.3200    4.3998   10.2474 H         1 <0>         0.0964
    100 H55       -11.8021    2.9771   11.2022 H         1 <0>         0.0961
    101 H56        -2.8361   -0.9812    1.7965 H         1 <0>         0.3689
@<TRIPOS>BOND
     1    1    2 1
     2    1   53 1
     3    1   54 1
     4    1   55 1
     5    2    3 1
     6    2    4 1
     7    2   20 1
     8    4    5 2
     9    4    6 am
    10    6    7 1
    11    6   56 1
    12    7    8 1
    13    7    9 1
    14    7   13 1
    15    9   10 1
    16    9   57 1
    17    9   58 1
    18   10   11 1
    19   10   12 1
    20   10   59 1
    21   11   60 1
    22   11   61 1
    23   11   62 1
    24   12   63 1
    25   12   64 1
    26   12   65 1
    27   13   14 1
    28   13   15 1
    29   13   19 1
    30   15   16 1
    31   15   66 1
    32   15   67 1
    33   16   17 2
    34   16   18 1
    35   19   68 1
    36   20   21 am
    37   20   69 1
    38   21   22 2
    39   21   23 1
    40   23   24 1
    41   23   70 1
    42   23   71 1
    43   24   25 1
    44   24   26 1
    45   24   52 1
    46   26   27 1
    47   26   28 1
    48   26   32 1
    49   28   29 1
    50   28   72 1
    51   28   73 1
    52   29   30 1
    53   29   31 1
    54   29   74 1
    55   30   75 1
    56   30   76 1
    57   30   77 1
    58   31   78 1
    59   31   79 1
    60   31   80 1
    61   32   33 am
    62   32   81 1
    63   33   34 2
    64   33   35 1
    65   35   36 1
    66   35   37 1
    67   35   40 1
    68   37   38 1
    69   37   39 1
    70   37   82 1
    71   38   83 1
    72   38   84 1
    73   38   85 1
    74   39   86 1
    75   39   87 1
    76   39   88 1
    77   40   41 am
    78   40   89 1
    79   41   42 2
    80   41   43 1
    81   43   44 1
    82   43   45 1
    83   43   48 1
    84   45   46 1
    85   45   47 1
    86   45   90 1
    87   46   91 1
    88   46   92 1
    89   46   93 1
    90   47   94 1
    91   47   95 1
    92   47   96 1
    93   48   49 am
    94   48   97 1
    95   49   50 2
    96   49   51 1
    97   51   98 1
    98   51   99 1
    99   51  100 1
   100   52  101 1
@<TRIPOS>MOLECULE
ZINC13604429
   82    84     0     0     0
SMALL
USER_CHARGES
(4R,5S,6S,7R)-4,7-dibenzyl-5,6-dihydroxy-1,3-diisohexyl-1,3-diazepan-2-one
@<TRIPOS>ATOM
      1 C1          5.4418   -1.1283   -3.3116 C.3       1 <0>        -0.1477
      2 C2          5.9214   -1.4696   -1.8993 C.3       1 <0>        -0.0929
      3 C3          7.2115   -2.2879   -1.9827 C.3       1 <0>        -0.1487
      4 C4          6.1863   -0.1773   -1.1244 C.3       1 <0>        -0.1110
      5 C5          4.8715    0.5813   -0.9331 C.3       1 <0>        -0.1383
      6 C6          5.1365    1.8737   -0.1581 C.3       1 <0>         0.1312
      7 N1          3.8798    2.5987    0.0247 N.am      1 <0>        -0.6118
      8 C7          3.1169    2.4412    1.2702 C.3       1 <0>         0.1591
      9 H1          2.8132    3.4090    1.6434 H         1 <0>         0.0960
     10 C8          1.9248    1.5367    1.0276 C.3       1 <0>         0.0636
     11 H2          1.2969    1.5506    1.9251 H         1 <0>         0.0769
     12 C9          1.0693    1.9078   -0.1660 C.3       1 <0>         0.0779
     13 H3          1.4831    1.4073   -1.0561 H         1 <0>         0.0702
     14 C10         0.9873    3.4030   -0.4363 C.3       1 <0>         0.1629
     15 H4          0.1888    3.5515   -1.1985 H         1 <0>         0.0897
     16 N2          2.2095    3.9348   -1.0224 N.am      1 <0>        -0.6037
     17 C11         3.4193    3.4153   -0.9363 C.2       1 <0>         0.7055
     18 O1          4.2034    3.7089   -1.8251 O.2       1 <0>        -0.5893
     19 C12         2.0736    5.1534   -1.8345 C.3       1 <0>         0.1200
     20 C13         1.7630    4.7692   -3.2826 C.3       1 <0>        -0.1347
     21 C14         1.6215    6.0369   -4.1274 C.3       1 <0>        -0.1087
     22 C15         1.3110    5.6528   -5.5755 C.3       1 <0>        -0.0946
     23 C16         1.0466    6.9185   -6.3934 C.3       1 <0>        -0.1477
     24 C17         2.5032    4.9007   -6.1705 C.3       1 <0>        -0.1483
     25 C18         0.5612    4.1913    0.7954 C.3       1 <0>        -0.0954
     26 C19         0.4148    5.6471    0.4344 C.ar      1 <0>        -0.0808
     27 C20         1.4954    6.5008    0.5534 C.ar      1 <0>        -0.1071
     28 C21         1.3624    7.8351    0.2176 C.ar      1 <0>        -0.1187
     29 C22         0.1459    8.3179   -0.2273 C.ar      1 <0>        -0.1192
     30 C23        -0.9362    7.4653   -0.3414 C.ar      1 <0>        -0.1160
     31 C24        -0.8017    6.1298   -0.0105 C.ar      1 <0>        -0.1169
     32 O2         -0.2554    1.3899    0.0360 O.3       1 <0>        -0.5575
     33 O3          2.3985    0.1962    0.8523 O.3       1 <0>        -0.5490
     34 C25         4.0293    1.7793    2.3131 C.3       1 <0>        -0.0846
     35 C26         3.3205    1.7310    3.6422 C.ar      1 <0>        -0.0845
     36 C27         3.5017    2.7492    4.5594 C.ar      1 <0>        -0.1165
     37 C28         2.8478    2.7074    5.7766 C.ar      1 <0>        -0.1174
     38 C29         2.0210    1.6421    6.0808 C.ar      1 <0>        -0.1204
     39 C30         1.8440    0.6213    5.1656 C.ar      1 <0>        -0.1203
     40 C31         2.4937    0.6658    3.9463 C.ar      1 <0>        -0.1113
     41 H5          6.2080   -0.5474   -3.8250 H         1 <0>         0.0532
     42 H6          5.2531   -2.0490   -3.8636 H         1 <0>         0.0504
     43 H7          4.5227   -0.5453   -3.2522 H         1 <0>         0.0545
     44 H8          5.1552   -2.0505   -1.3859 H         1 <0>         0.0670
     45 H9          7.5532   -2.5311   -0.9766 H         1 <0>         0.0532
     46 H10         7.0228   -3.2086   -2.5347 H         1 <0>         0.0527
     47 H11         7.9777   -1.7070   -2.4961 H         1 <0>         0.0537
     48 H12         6.8864    0.4442   -1.6828 H         1 <0>         0.0604
     49 H13         6.6118   -0.4184   -0.1503 H         1 <0>         0.0598
     50 H14         4.1714   -0.0401   -0.3747 H         1 <0>         0.0832
     51 H15         4.4461    0.8225   -1.9072 H         1 <0>         0.0607
     52 H16         5.8365    2.4952   -0.7165 H         1 <0>         0.0805
     53 H17         5.5619    1.6325    0.8160 H         1 <0>         0.0815
     54 H18         1.2626    5.7650   -1.4390 H         1 <0>         0.0925
     55 H19         3.0049    5.7186   -1.8003 H         1 <0>         0.0793
     56 H20         2.5739    4.1576   -3.6781 H         1 <0>         0.0766
     57 H21         0.8316    4.2040   -3.3168 H         1 <0>         0.0545
     58 H22         0.8106    6.6485   -3.7319 H         1 <0>         0.0595
     59 H23         2.5529    6.6021   -4.0932 H         1 <0>         0.0625
     60 H24         0.4287    5.0131   -5.6005 H         1 <0>         0.0661
     61 H25         1.9288    7.5581   -6.3684 H         1 <0>         0.0539
     62 H26         0.8254    6.6448   -7.4251 H         1 <0>         0.0531
     63 H27         0.1973    7.4542   -5.9695 H         1 <0>         0.0529
     64 H28         2.6915    3.9990   -5.5878 H         1 <0>         0.0566
     65 H29         2.2819    4.6271   -7.2021 H         1 <0>         0.0506
     66 H30         3.3854    5.5404   -6.1455 H         1 <0>         0.0539
     67 H31        -0.3927    3.8094    1.1591 H         1 <0>         0.0934
     68 H32         1.3161    4.0843    1.5744 H         1 <0>         0.0756
     69 H33         2.4447    6.1245    0.9052 H         1 <0>         0.1160
     70 H34         2.2077    8.5014    0.3071 H         1 <0>         0.1217
     71 H35         0.0408    9.3613   -0.4854 H         1 <0>         0.1215
     72 H36        -1.8867    7.8425   -0.6886 H         1 <0>         0.1221
     73 H37        -1.6472    5.4638   -0.0993 H         1 <0>         0.1220
     74 H38        -0.2913    0.4284    0.1330 H         1 <0>         0.3825
     75 H39         1.6950   -0.4632    0.7800 H         1 <0>         0.3727
     76 H40         4.2711    0.7657    1.9933 H         1 <0>         0.0996
     77 H41         4.9477    2.3580    2.4119 H         1 <0>         0.0801
     78 H42         4.1511    3.5793    4.3236 H         1 <0>         0.1201
     79 H43         2.9864    3.5047    6.4918 H         1 <0>         0.1217
     80 H44         1.5136    1.6072    7.0335 H         1 <0>         0.1209
     81 H45         1.1983   -0.2111    5.4034 H         1 <0>         0.1210
     82 H46         2.3557   -0.1319    3.2314 H         1 <0>         0.1267
@<TRIPOS>BOND
     1    1    2 1
     2    1   41 1
     3    1   42 1
     4    1   43 1
     5    2    3 1
     6    2    4 1
     7    2   44 1
     8    3   45 1
     9    3   46 1
    10    3   47 1
    11    4    5 1
    12    4   48 1
    13    4   49 1
    14    5    6 1
    15    5   50 1
    16    5   51 1
    17    6    7 1
    18    6   52 1
    19    6   53 1
    20    7   17 am
    21    7    8 1
    22    8    9 1
    23    8   10 1
    24    8   34 1
    25   10   11 1
    26   10   12 1
    27   10   33 1
    28   12   13 1
    29   12   14 1
    30   12   32 1
    31   14   15 1
    32   14   16 1
    33   14   25 1
    34   16   17 am
    35   16   19 1
    36   17   18 2
    37   19   20 1
    38   19   54 1
    39   19   55 1
    40   20   21 1
    41   20   56 1
    42   20   57 1
    43   21   22 1
    44   21   58 1
    45   21   59 1
    46   22   23 1
    47   22   24 1
    48   22   60 1
    49   23   61 1
    50   23   62 1
    51   23   63 1
    52   24   64 1
    53   24   65 1
    54   24   66 1
    55   25   26 1
    56   25   67 1
    57   25   68 1
    58   26   31 ar
    59   26   27 ar
    60   27   28 ar
    61   27   69 1
    62   28   29 ar
    63   28   70 1
    64   29   30 ar
    65   29   71 1
    66   30   31 ar
    67   30   72 1
    68   31   73 1
    69   32   74 1
    70   33   75 1
    71   34   35 1
    72   34   76 1
    73   34   77 1
    74   35   40 ar
    75   35   36 ar
    76   36   37 ar
    77   36   78 1
    78   37   38 ar
    79   37   79 1
    80   38   39 ar
    81   38   80 1
    82   39   40 ar
    83   39   81 1
    84   40   82 1
@<TRIPOS>MOLECULE
ZINC06481191
   52    54     0     0     0
SMALL
USER_CHARGES
4,7-dibenzyl-5,6-dihydroxy-1,3-dimethyl-1,3-diazepan-2-one
@<TRIPOS>ATOM
      1 C1         -0.9516    1.1599   -2.0982 C.3       1 <0>         0.0953
      2 N1         -0.1347    1.8954   -1.1237 N.am      1 <0>        -0.6243
      3 C2         -0.7894    2.8141   -0.1966 C.3       1 <0>         0.1660
      4 H1         -0.4234    2.6252    0.8147 H         1 <0>         0.0870
      5 C3         -0.5346    4.2577   -0.5685 C.3       1 <0>         0.0640
      6 H2         -0.6271    4.8779    0.3253 H         1 <0>         0.0774
      7 C4          0.8030    4.5103   -1.2301 C.3       1 <0>         0.0773
      8 H3          0.8050    4.0448   -2.2234 H         1 <0>         0.0726
      9 C5          1.9638    3.9483   -0.4109 C.3       1 <0>         0.1616
     10 H4          2.8931    4.4275   -0.7658 H         1 <0>         0.0955
     11 N2          2.1087    2.5112   -0.6128 N.am      1 <0>        -0.6081
     12 C6          1.1944    1.7004   -1.1108 C.2       1 <0>         0.7088
     13 O1          1.5978    0.6631   -1.6069 O.2       1 <0>        -0.5905
     14 C7          3.4091    1.9210   -0.2703 C.3       1 <0>         0.0731
     15 C8          1.8136    4.2677    1.0728 C.3       1 <0>        -0.0948
     16 C9          3.0951    3.9320    1.7912 C.ar      1 <0>        -0.0791
     17 C10         3.1565    2.8221    2.6129 C.ar      1 <0>        -0.1127
     18 C11         4.3332    2.5119    3.2688 C.ar      1 <0>        -0.1180
     19 C12         5.4459    3.3166    3.1097 C.ar      1 <0>        -0.1206
     20 C13         5.3831    4.4292    2.2917 C.ar      1 <0>        -0.1146
     21 C14         4.2075    4.7371    1.6328 C.ar      1 <0>        -0.1173
     22 O2          0.9849    5.9225   -1.4019 O.3       1 <0>        -0.5543
     23 O3         -1.5682    4.6732   -1.4755 O.3       1 <0>        -0.5546
     24 C15        -2.3005    2.5516   -0.2198 C.3       1 <0>        -0.0772
     25 C16        -2.9653    3.3463    0.8745 C.ar      1 <0>        -0.0829
     26 C17        -3.0141    2.8440    2.1614 C.ar      1 <0>        -0.1187
     27 C18        -3.6205    3.5747    3.1660 C.ar      1 <0>        -0.1199
     28 C19        -4.1857    4.8038    2.8819 C.ar      1 <0>        -0.1210
     29 C20        -4.1410    5.3040    1.5940 C.ar      1 <0>        -0.1237
     30 C21        -3.5313    4.5750    0.5902 C.ar      1 <0>        -0.1043
     31 H5         -0.3197    0.4646   -2.6508 H         1 <0>         0.0879
     32 H6         -1.7305    0.6056   -1.5745 H         1 <0>         0.0637
     33 H7         -1.4107    1.8639   -2.7923 H         1 <0>         0.0576
     34 H8          3.3696    0.8423   -0.4213 H         1 <0>         0.0889
     35 H9          4.1819    2.3493   -0.9086 H         1 <0>         0.0557
     36 H10         3.6410    2.1335    0.7734 H         1 <0>         0.0804
     37 H11         1.5952    5.3285    1.1958 H         1 <0>         0.0938
     38 H12         0.9976    3.6779    1.4906 H         1 <0>         0.0749
     39 H13         2.2861    2.1955    2.7401 H         1 <0>         0.1189
     40 H14         4.3821    1.6429    3.9081 H         1 <0>         0.1231
     41 H15         6.3642    3.0762    3.6248 H         1 <0>         0.1224
     42 H16         6.2523    5.0580    2.1678 H         1 <0>         0.1230
     43 H17         4.1584    5.6066    0.9940 H         1 <0>         0.1227
     44 H18         0.2846    6.3498   -1.9138 H         1 <0>         0.3824
     45 H19        -1.5276    5.6090   -1.7160 H         1 <0>         0.3717
     46 H20        -2.7068    2.8525   -1.1855 H         1 <0>         0.0984
     47 H21        -2.4872    1.4894   -0.0622 H         1 <0>         0.0802
     48 H22        -2.5759    1.8820    2.3826 H         1 <0>         0.1190
     49 H23        -3.6557    3.1838    4.1722 H         1 <0>         0.1210
     50 H24        -4.6624    5.3732    3.6661 H         1 <0>         0.1201
     51 H25        -4.5829    6.2642    1.3720 H         1 <0>         0.1206
     52 H26        -3.4967    4.9656   -0.4161 H         1 <0>         0.1320
@<TRIPOS>BOND
     1    1    2 1
     2    1   31 1
     3    1   32 1
     4    1   33 1
     5    2   12 am
     6    2    3 1
     7    3    4 1
     8    3    5 1
     9    3   24 1
    10    5    6 1
    11    5    7 1
    12    5   23 1
    13    7    8 1
    14    7    9 1
    15    7   22 1
    16    9   10 1
    17    9   11 1
    18    9   15 1
    19   11   12 am
    20   11   14 1
    21   12   13 2
    22   14   34 1
    23   14   35 1
    24   14   36 1
    25   15   16 1
    26   15   37 1
    27   15   38 1
    28   16   21 ar
    29   16   17 ar
    30   17   18 ar
    31   17   39 1
    32   18   19 ar
    33   18   40 1
    34   19   20 ar
    35   19   41 1
    36   20   21 ar
    37   20   42 1
    38   21   43 1
    39   22   44 1
    40   23   45 1
    41   24   25 1
    42   24   46 1
    43   24   47 1
    44   25   30 ar
    45   25   26 ar
    46   26   27 ar
    47   26   48 1
    48   27   28 ar
    49   27   49 1
    50   28   29 ar
    51   28   50 1
    52   29   30 ar
    53   29   51 1
    54   30   52 1
@<TRIPOS>MOLECULE
ZINC06385085
   58    60     0     0     0
SMALL
USER_CHARGES
4,7-dibenzyl-1,3-diethyl-5,6-dihydroxy-1,3-diazepan-2-one
@<TRIPOS>ATOM
      1 C1         -2.1569    7.8480   -6.4526 C.3       1 <0>        -0.1678
      2 C2         -1.1432    6.9410   -5.7521 C.3       1 <0>         0.1131
      3 N1         -1.1747    7.1966   -4.3054 N.am      1 <0>        -0.6058
      4 C3         -0.1770    8.1175   -3.7747 C.3       1 <0>         0.1617
      5 H1         -0.1404    8.9920   -4.4468 H         1 <0>         0.0943
      6 C4         -0.5653    8.6100   -2.3810 C.3       1 <0>         0.0766
      7 H2         -1.6399    8.8299   -2.3644 H         1 <0>         0.0738
      8 C5         -0.2523    7.5913   -1.3072 C.3       1 <0>         0.0659
      9 H3          0.8294    7.5139   -1.1774 H         1 <0>         0.0761
     10 C6         -0.8185    6.2118   -1.5573 C.3       1 <0>         0.1644
     11 H4         -0.0970    5.6160   -2.1206 H         1 <0>         0.0860
     12 N2         -2.0752    6.2717   -2.3008 N.am      1 <0>        -0.6188
     13 C7         -2.1024    6.5715   -3.6085 C.2       1 <0>         0.7076
     14 O1         -3.1002    6.2241   -4.2233 O.2       1 <0>        -0.5879
     15 C8         -3.3362    5.9944   -1.6022 C.3       1 <0>         0.1194
     16 C9         -3.9478    7.3086   -1.1127 C.3       1 <0>        -0.1710
     17 C10        -1.0691    5.5217   -0.2108 C.3       1 <0>        -0.0766
     18 C11         0.2426    5.3243    0.5043 C.ar      1 <0>        -0.0828
     19 C12         0.6500    6.2318    1.4642 C.ar      1 <0>        -0.1012
     20 C13         1.8530    6.0505    2.1204 C.ar      1 <0>        -0.1247
     21 C14         2.6489    4.9618    1.8166 C.ar      1 <0>        -0.1211
     22 C15         2.2442    4.0574    0.8527 C.ar      1 <0>        -0.1207
     23 C16         1.0387    4.2359    0.2001 C.ar      1 <0>        -0.1190
     24 O2         -0.7882    8.0734   -0.0641 O.3       1 <0>        -0.5529
     25 O3          0.1398    9.8262   -2.0967 O.3       1 <0>        -0.5543
     26 C17         1.2035    7.4691   -3.7769 C.3       1 <0>        -0.0954
     27 C18         1.6583    7.2604   -5.1984 C.ar      1 <0>        -0.0828
     28 C19         1.5433    6.0140   -5.7850 C.ar      1 <0>        -0.1110
     29 C20         1.9560    5.8238   -7.0905 C.ar      1 <0>        -0.1190
     30 C21         2.4934    6.8774   -7.8060 C.ar      1 <0>        -0.1195
     31 C22         2.6132    8.1226   -7.2177 C.ar      1 <0>        -0.1156
     32 C23         2.1956    8.3141   -5.9139 C.ar      1 <0>        -0.1167
     33 H5         -2.1335    7.6584   -7.5257 H         1 <0>         0.0610
     34 H6         -3.1558    7.6409   -6.0687 H         1 <0>         0.0709
     35 H7         -1.9035    8.8910   -6.2623 H         1 <0>         0.0491
     36 H8         -0.1442    7.1481   -6.1360 H         1 <0>         0.0973
     37 H9         -1.3965    5.8980   -5.9424 H         1 <0>         0.0742
     38 H10        -4.0294    5.5032   -2.2851 H         1 <0>         0.0871
     39 H11        -3.1436    5.3434   -0.7495 H         1 <0>         0.0850
     40 H12        -4.1404    7.9596   -1.9654 H         1 <0>         0.0507
     41 H13        -4.8841    7.1027   -0.5940 H         1 <0>         0.0643
     42 H14        -3.2545    7.7998   -0.4299 H         1 <0>         0.0659
     43 H15        -1.5396    4.5532   -0.3809 H         1 <0>         0.0794
     44 H16        -1.7256    6.1424    0.3990 H         1 <0>         0.0985
     45 H17         0.0282    7.0823    1.7016 H         1 <0>         0.1332
     46 H18         2.1712    6.7595    2.8703 H         1 <0>         0.1200
     47 H19         3.5889    4.8203    2.3291 H         1 <0>         0.1196
     48 H20         2.8681    3.2093    0.6121 H         1 <0>         0.1204
     49 H21         0.7206    3.5270   -0.5500 H         1 <0>         0.1185
     50 H22        -0.4797    8.9565    0.1810 H         1 <0>         0.3699
     51 H23        -0.0558   10.2002   -1.2267 H         1 <0>         0.3814
     52 H24         1.9107    8.1184   -3.2608 H         1 <0>         0.0929
     53 H25         1.1540    6.5073   -3.2664 H         1 <0>         0.0752
     54 H26         1.1276    5.1897   -5.2245 H         1 <0>         0.1190
     55 H27         1.8628    4.8508   -7.5500 H         1 <0>         0.1233
     56 H28         2.8199    6.7277   -8.8245 H         1 <0>         0.1225
     57 H29         3.0333    8.9457   -7.7766 H         1 <0>         0.1231
     58 H30         2.2896    9.2868   -5.4542 H         1 <0>         0.1232
@<TRIPOS>BOND
     1    1    2 1
     2    1   33 1
     3    1   34 1
     4    1   35 1
     5    2    3 1
     6    2   36 1
     7    2   37 1
     8    3   13 am
     9    3    4 1
    10    4    5 1
    11    4    6 1
    12    4   26 1
    13    6    7 1
    14    6    8 1
    15    6   25 1
    16    8    9 1
    17    8   10 1
    18    8   24 1
    19   10   11 1
    20   10   12 1
    21   10   17 1
    22   12   13 am
    23   12   15 1
    24   13   14 2
    25   15   16 1
    26   15   38 1
    27   15   39 1
    28   16   40 1
    29   16   41 1
    30   16   42 1
    31   17   18 1
    32   17   43 1
    33   17   44 1
    34   18   23 ar
    35   18   19 ar
    36   19   20 ar
    37   19   45 1
    38   20   21 ar
    39   20   46 1
    40   21   22 ar
    41   21   47 1
    42   22   23 ar
    43   22   48 1
    44   23   49 1
    45   24   50 1
    46   25   51 1
    47   26   27 1
    48   26   52 1
    49   26   53 1
    50   27   32 ar
    51   27   28 ar
    52   28   29 ar
    53   28   54 1
    54   29   30 ar
    55   29   55 1
    56   30   31 ar
    57   30   56 1
    58   31   32 ar
    59   31   57 1
    60   32   58 1
@<TRIPOS>MOLECULE
ZINC14879987
   75    78     0     0     0
SMALL
USER_CHARGES

@<TRIPOS>ATOM
      1 C1         -1.9530    1.8185    1.0442 C.3       1 <0>        -0.1533
      2 C2         -2.0541    0.2919    1.0551 C.3       1 <0>        -0.1246
      3 C3         -1.1692   -0.2857   -0.0513 C.3       1 <0>        -0.1518
      4 C4         -1.1662   -1.8128    0.0432 C.3       1 <0>         0.1455
      5 C5         -0.2831   -2.3922   -1.0682 C.3       1 <0>        -0.2040
      6 C6          1.1535   -1.9960   -0.7926 C.2       1 <0>         0.3667
      7 O1          1.8377   -1.4797   -1.6432 O.2       1 <0>        -0.4152
      8 C7          1.6964   -2.2747    0.5970 C.3       1 <0>        -0.1769
      9 C8          0.6243   -1.8577    1.5846 C.2       1 <0>         0.5033
     10 O2         -0.6497   -2.2113    1.3170 O.3       1 <0>        -0.3546
     11 O3          0.9019   -1.2297    2.5788 O.2       1 <0>        -0.4335
     12 C9          1.9955   -3.7672    0.7508 C.3       1 <0>        -0.0195
     13 H1          1.0959   -4.3425    0.5317 H         1 <0>         0.0910
     14 C10         2.4463   -4.0519    2.1849 C.3       1 <0>        -0.1178
     15 C11         2.6249   -5.5597    2.3735 C.3       1 <0>        -0.1483
     16 C12         3.0897   -4.1616   -0.2074 C.ar      1 <0>        -0.0480
     17 C13         4.3342   -3.5649   -0.1183 C.ar      1 <0>        -0.1832
     18 C14         5.3408   -3.9234   -0.9957 C.ar      1 <0>        -0.0621
     19 C15         5.1065   -4.8798   -1.9644 C.ar      1 <0>        -0.2496
     20 C16         3.8580   -5.4814   -2.0565 C.ar      1 <0>         0.2599
     21 C17         2.8504   -5.1224   -1.1699 C.ar      1 <0>        -0.1542
     22 N1          3.6177   -6.4488   -3.0348 N.2       1 <0>        -1.0574
     23 S1          4.8219   -6.8797   -4.0867 S.o2      1 <0>         2.5341
     24 O4          5.0874   -5.7379   -4.8898 O.2       1 <0>        -0.9854
     25 O5          5.8286   -7.5172   -3.3124 O.2       1 <0>        -0.9646
     26 C18         4.1596   -8.1086   -5.1618 C.ar      1 <0>        -0.3337
     27 C19         4.2554   -9.4432   -4.8149 C.ar      1 <0>        -0.0389
     28 C20         3.7311  -10.4021   -5.6677 C.ar      1 <0>         0.0449
     29 C21         3.1273   -9.9809   -6.8429 C.ar      1 <0>        -0.1855
     30 C22         3.0687   -8.6290   -7.1228 C.ar      1 <0>         0.1816
     31 N2          3.5736   -7.7442   -6.2853 N.ar      1 <0>        -0.3792
     32 C23         2.5428  -10.9849   -7.8028 C.3       1 <0>         0.5248
     33 F1          1.2025  -11.2171   -7.4760 F         1 <0>        -0.1537
     34 F2          2.6250  -10.4858   -9.1071 F         1 <0>        -0.1603
     35 F3          3.2583  -12.1840   -7.7164 F         1 <0>        -0.1552
     36 C24        -2.5950   -2.3367   -0.1147 C.3       1 <0>        -0.0997
     37 C25        -2.5917   -3.8638   -0.0202 C.3       1 <0>        -0.0865
     38 C26        -3.9990   -4.3797   -0.1757 C.ar      1 <0>        -0.0804
     39 C27        -4.8040   -4.5381    0.9369 C.ar      1 <0>        -0.1149
     40 C28        -6.0949   -5.0114    0.7943 C.ar      1 <0>        -0.1178
     41 C29        -6.5810   -5.3259   -0.4609 C.ar      1 <0>        -0.1252
     42 C30        -5.7764   -5.1667   -1.5736 C.ar      1 <0>        -0.1193
     43 C31        -4.4869   -4.6893   -1.4315 C.ar      1 <0>        -0.1186
     44 H2         -2.5835    2.2300    1.8323 H         1 <0>         0.0578
     45 H3         -0.9182    2.1153    1.2145 H         1 <0>         0.0534
     46 H4         -2.2854    2.1978    0.0778 H         1 <0>         0.0540
     47 H5         -1.7218   -0.0873    2.0214 H         1 <0>         0.0732
     48 H6         -3.0890   -0.0049    0.8847 H         1 <0>         0.0701
     49 H7         -1.5583    0.0174   -1.0233 H         1 <0>         0.0896
     50 H8         -0.1517    0.0875    0.0653 H         1 <0>         0.0649
     51 H9         -0.3691   -3.4787   -1.0766 H         1 <0>         0.1224
     52 H10        -0.5960   -1.9912   -2.0323 H         1 <0>         0.1141
     53 H11         3.3936   -3.5473    2.3749 H         1 <0>         0.0730
     54 H12         1.6930   -3.6852    2.8821 H         1 <0>         0.0638
     55 H13         3.4411   -5.9107    1.7421 H         1 <0>         0.0632
     56 H14         2.8567   -5.7703    3.4175 H         1 <0>         0.0547
     57 H15         1.7040   -6.0723    2.0953 H         1 <0>         0.0543
     58 H16         4.5200   -2.8168    0.6382 H         1 <0>         0.1104
     59 H17         6.3112   -3.4550   -0.9238 H         1 <0>         0.1116
     60 H18         5.8931   -5.1592   -2.6497 H         1 <0>         0.0965
     61 H19         1.8797   -5.5912   -1.2361 H         1 <0>         0.1163
     62 H20         4.7330   -9.7352   -3.8913 H         1 <0>         0.2116
     63 H21         3.7917  -11.4522   -5.4228 H         1 <0>         0.1972
     64 H22         2.6001   -8.2929   -8.0360 H         1 <0>         0.2266
     65 H23        -3.2223   -1.9251    0.6760 H         1 <0>         0.0881
     66 H24        -2.9880   -2.0336   -1.0851 H         1 <0>         0.0905
     67 H25        -1.9643   -4.2753   -0.8109 H         1 <0>         0.0765
     68 H26        -2.1987   -4.1669    0.9502 H         1 <0>         0.0856
     69 H27        -4.4242   -4.2924    1.9176 H         1 <0>         0.1229
     70 H28        -6.7236   -5.1358    1.6636 H         1 <0>         0.1211
     71 H29        -7.5894   -5.6964   -0.5723 H         1 <0>         0.1197
     72 H30        -6.1561   -5.4127   -2.5543 H         1 <0>         0.1199
     73 H31        -3.8595   -4.5614   -2.3012 H         1 <0>         0.1205
     74 H32         2.6031   -1.6936    0.7653 H         1 <0>         0.1328
     75 H33         3.5159   -6.8008   -6.5035 H         1 <0>         0.4649
@<TRIPOS>BOND
     1    1    2 1
     2    1   44 1
     3    1   45 1
     4    1   46 1
     5    2    3 1
     6    2   47 1
     7    2   48 1
     8    3    4 1
     9    3   49 1
    10    3   50 1
    11    4   10 1
    12    4    5 1
    13    4   36 1
    14    5    6 1
    15    5   51 1
    16    5   52 1
    17    6    7 2
    18    6    8 1
    19    8    9 1
    20    8   12 1
    21    8   74 1
    22    9   10 1
    23    9   11 2
    24   12   13 1
    25   12   14 1
    26   12   16 1
    27   14   15 1
    28   14   53 1
    29   14   54 1
    30   15   55 1
    31   15   56 1
    32   15   57 1
    33   16   21 ar
    34   16   17 ar
    35   17   18 ar
    36   17   58 1
    37   18   19 ar
    38   18   59 1
    39   19   20 ar
    40   19   60 1
    41   20   21 ar
    42   20   22 1
    43   21   61 1
    44   22   23 1
    45   23   24 2
    46   23   25 2
    47   23   26 1
    48   26   31 ar
    49   26   27 ar
    50   27   28 ar
    51   27   62 1
    52   28   29 ar
    53   28   63 1
    54   29   30 ar
    55   29   32 1
    56   30   31 ar
    57   30   64 1
    58   31   75 1
    59   32   33 1
    60   32   34 1
    61   32   35 1
    62   36   37 1
    63   36   65 1
    64   36   66 1
    65   37   38 1
    66   37   67 1
    67   37   68 1
    68   38   43 ar
    69   38   39 ar
    70   39   40 ar
    71   39   69 1
    72   40   41 ar
    73   40   70 1
    74   41   42 ar
    75   41   71 1
    76   42   43 ar
    77   42   72 1
    78   43   73 1
@<TRIPOS>MOLECULE
ZINC04544447
   66    69     0     0     0
SMALL
USER_CHARGES
6-benzyloxycarbonylamino-2-(9H-fluoren-9-ylmethoxycarbonylamino)hexanoic acid
@<TRIPOS>ATOM
      1 C1         -0.0559    4.2672    0.0251 C.ar      1 <0>        -0.1093
      2 C2          1.1505    3.5924    0.0100 C.ar      1 <0>        -0.1240
      3 C3          1.1693    2.2102    0.0028 C.ar      1 <0>        -0.0933
      4 C4         -0.0184    1.5028    0.0103 C.ar      1 <0>        -0.0989
      5 C5         -1.2248    2.1776    0.0197 C.ar      1 <0>        -0.0935
      6 C6         -1.2435    3.5598    0.0322 C.ar      1 <0>        -0.1241
      7 C7          0.0021   -0.0041    0.0020 C.3       1 <0>         0.1296
      8 O1          0.0217   -0.4954    1.3682 O.3       1 <0>        -0.3669
      9 C8          0.0415   -1.8309    1.5373 C.2       1 <0>         0.6453
     10 O2          0.0423   -2.5659    0.5696 O.2       1 <0>        -0.5736
     11 N1          0.0604   -2.3527    2.7798 N.am      1 <0>        -0.7068
     12 C9          0.0819   -3.8060    2.9638 C.3       1 <0>         0.1351
     13 C10         0.1005   -4.1306    4.4588 C.3       1 <0>        -0.1315
     14 C11         0.1230   -5.6483    4.6509 C.3       1 <0>        -0.1153
     15 C12         0.1416   -5.9729    6.1460 C.3       1 <0>        -0.1069
     16 C13         0.1640   -7.4906    6.3381 C.3       1 <0>         0.1179
     17 H1          1.0065   -7.9137    5.7910 H         1 <0>         0.0923
     18 C14         0.3061   -7.8093    7.8041 C.2       1 <0>         0.4563
     19 O3         -0.5482   -8.4508    8.3685 O.co2     1 <0>        -0.6262
     20 N2         -1.0849   -8.0654    5.8322 N.am      1 <0>        -0.6772
     21 C15        -1.1191   -9.3495    5.4240 C.2       1 <0>         0.6528
     22 O4         -0.1140  -10.0303    5.4757 O.2       1 <0>        -0.5739
     23 O5         -2.2669   -9.8777    4.9591 O.3       1 <0>        -0.3738
     24 C16        -2.2299  -11.2665    4.5370 C.3       1 <0>         0.1090
     25 C17        -3.6159  -11.6866    4.0433 C.3       1 <0>        -0.0081
     26 C18        -4.5874  -11.7298    5.1973 C.ar      1 <0>        -0.0795
     27 C19        -5.0288  -10.7604    6.0727 C.ar      1 <0>        -0.0823
     28 C20        -5.9430  -11.0830    7.0600 C.ar      1 <0>        -0.1104
     29 C21        -6.4158  -12.3781    7.1710 C.ar      1 <0>        -0.1200
     30 C22        -5.9803  -13.3542    6.2989 C.ar      1 <0>        -0.0988
     31 C23        -5.0578  -13.0360    5.3007 C.ar      1 <0>        -0.0640
     32 C24        -4.4295  -13.8723    4.2482 C.ar      1 <0>        -0.0453
     33 C25        -3.5664  -13.0885    3.4871 C.ar      1 <0>        -0.0854
     34 C26        -2.8610  -13.6453    2.4415 C.ar      1 <0>        -0.0941
     35 C27        -3.0089  -14.9885    2.1436 C.ar      1 <0>        -0.1155
     36 C28        -3.8636  -15.7754    2.8942 C.ar      1 <0>        -0.1168
     37 C29        -4.5733  -15.2267    3.9421 C.ar      1 <0>        -0.0991
     38 H2         -0.0705    5.3471    0.0311 H         1 <0>         0.1240
     39 H3          2.0784    4.1450    0.0041 H         1 <0>         0.1256
     40 H4          2.1118    1.6830   -0.0091 H         1 <0>         0.1254
     41 H5         -2.1527    1.6249    0.0211 H         1 <0>         0.1253
     42 H6         -2.1860    4.0870    0.0437 H         1 <0>         0.1255
     43 H7         -0.8878   -0.3767   -0.5053 H         1 <0>         0.0802
     44 H8          0.8920   -0.3525   -0.5222 H         1 <0>         0.0803
     45 H9          0.0597   -1.7660    3.5523 H         1 <0>         0.4078
     46 H10        -0.8066   -4.2431    2.5081 H         1 <0>         0.0714
     47 H11         0.9731   -4.2188    2.4912 H         1 <0>         0.0722
     48 H12         0.9890   -3.6934    4.9145 H         1 <0>         0.0744
     49 H13        -0.7908   -3.7177    4.9314 H         1 <0>         0.0720
     50 H14        -0.7655   -6.0854    4.1952 H         1 <0>         0.0646
     51 H15         1.0142   -6.0612    4.1784 H         1 <0>         0.0675
     52 H16         1.0300   -5.5358    6.6017 H         1 <0>         0.0921
     53 H17        -0.7497   -5.5600    6.6185 H         1 <0>         0.0643
     54 H18        -1.8873   -7.5219    5.7910 H         1 <0>         0.3974
     55 H19        -1.5064  -11.3819    3.7300 H         1 <0>         0.0749
     56 H20        -1.9384  -11.8945    5.3789 H         1 <0>         0.0735
     57 H21        -3.9684  -10.9924    3.2805 H         1 <0>         0.1128
     58 H22        -4.6605   -9.7486    5.9879 H         1 <0>         0.1321
     59 H23        -6.2875  -10.3226    7.7452 H         1 <0>         0.1281
     60 H24        -7.1293  -12.6260    7.9430 H         1 <0>         0.1249
     61 H25        -6.3526  -14.3641    6.3886 H         1 <0>         0.1204
     62 H26        -2.1931  -13.0326    1.8542 H         1 <0>         0.1272
     63 H27        -2.4557  -15.4231    1.3242 H         1 <0>         0.1276
     64 H28        -3.9760  -16.8234    2.6587 H         1 <0>         0.1257
     65 H29        -5.2402  -15.8445    4.5252 H         1 <0>         0.1227
     66 O6          1.3818   -7.3806    8.4830 O.co2     1 <0>        -0.7644
@<TRIPOS>BOND
     1    1    6 ar
     2    1    2 ar
     3    1   38 1
     4    2    3 ar
     5    2   39 1
     6    3    4 ar
     7    3   40 1
     8    4    5 ar
     9    4    7 1
    10    5    6 ar
    11    5   41 1
    12    6   42 1
    13    7    8 1
    14    7   43 1
    15    7   44 1
    16    8    9 1
    17    9   10 2
    18    9   11 am
    19   11   12 1
    20   11   45 1
    21   12   13 1
    22   12   46 1
    23   12   47 1
    24   13   14 1
    25   13   48 1
    26   13   49 1
    27   14   15 1
    28   14   50 1
    29   14   51 1
    30   15   16 1
    31   15   52 1
    32   15   53 1
    33   16   17 1
    34   16   18 1
    35   16   20 1
    36   18   19 2
    37   18   66 1
    38   20   21 am
    39   20   54 1
    40   21   22 2
    41   21   23 1
    42   23   24 1
    43   24   25 1
    44   24   55 1
    45   24   56 1
    46   25   33 1
    47   25   26 1
    48   25   57 1
    49   26   31 ar
    50   26   27 ar
    51   27   28 ar
    52   27   58 1
    53   28   29 ar
    54   28   59 1
    55   29   30 ar
    56   29   60 1
    57   30   31 ar
    58   30   61 1
    59   31   32 1
    60   32   37 ar
    61   32   33 ar
    62   33   34 ar
    63   34   35 ar
    64   34   62 1
    65   35   36 ar
    66   35   63 1
    67   36   37 ar
    68   36   64 1
    69   37   65 1
@<TRIPOS>MOLECULE
ZINC00598073
   39    40     0     0     0
SMALL
USER_CHARGES
2-(2-acetyl-5-methyl-phenyl)amino-2-(2,6-dichlorophenyl)-acetamide
@<TRIPOS>ATOM
      1 C1          1.7853    4.7320   -0.9221 C.3       1 <0>        -0.1225
      2 C2          0.7025    3.7107   -0.6867 C.ar      1 <0>         0.0002
      3 C3          0.9994    2.3590   -0.7787 C.ar      1 <0>        -0.1944
      4 C4          0.0206    1.4150   -0.5667 C.ar      1 <0>        -0.0193
      5 C5         -1.2849    1.8196   -0.2609 C.ar      1 <0>        -0.2645
      6 C6         -1.5806    3.1914   -0.1638 C.ar      1 <0>         0.2907
      7 C7         -0.5767    4.1271   -0.3818 C.ar      1 <0>        -0.2110
      8 N1         -2.8677    3.6076    0.1424 N.pl3     1 <0>        -0.6988
      9 C8         -3.1443    5.0288    0.3659 C.3       1 <0>         0.1624
     10 H1         -2.3356    5.4689    0.9495 H         1 <0>         0.1203
     11 C9         -4.4429    5.1759    1.1162 C.ar      1 <0>        -0.0909
     12 C10        -5.5706    4.4995    0.6868 C.ar      1 <0>        -0.0198
     13 C11        -6.7613    4.6308    1.3791 C.ar      1 <0>        -0.1007
     14 C12        -6.8268    5.4459    2.4934 C.ar      1 <0>        -0.0821
     15 C13        -5.7019    6.1266    2.9196 C.ar      1 <0>        -0.1013
     16 C14        -4.5093    5.9919    2.2312 C.ar      1 <0>        -0.0153
     17 Cl1        -3.0963    6.8464    2.7670 Cl        1 <0>        -0.0454
     18 Cl2        -5.4900    3.4808   -0.7166 Cl        1 <0>        -0.0168
     19 C15        -3.2480    5.7351   -0.9612 C.2       1 <0>         0.5023
     20 O1         -3.1050    5.1127   -1.9922 O.2       1 <0>        -0.5038
     21 N2         -3.4997    7.0586   -1.0024 N.am      1 <0>        -0.8521
     22 C16        -2.3351    0.8202   -0.0394 C.2       1 <0>         0.4028
     23 O2         -3.4837    1.1738    0.1264 O.2       1 <0>        -0.4767
     24 C17        -1.9875   -0.6460   -0.0178 C.3       1 <0>        -0.1892
     25 H2          1.8130    4.9951   -1.9795 H         1 <0>         0.0769
     26 H3          1.5780    5.6241   -0.3311 H         1 <0>         0.0673
     27 H4          2.7481    4.3156   -0.6260 H         1 <0>         0.0723
     28 H5          2.0047    2.0453   -1.0184 H         1 <0>         0.1256
     29 H6          0.2578    0.3640   -0.6404 H         1 <0>         0.1325
     30 H7         -0.7984    5.1819   -0.3127 H         1 <0>         0.1169
     31 H8         -3.5848    2.9577    0.2087 H         1 <0>         0.4239
     32 H9         -7.6406    4.0992    1.0465 H         1 <0>         0.1472
     33 H10        -7.7575    5.5514    3.0311 H         1 <0>         0.1495
     34 H11        -5.7537    6.7634    3.7904 H         1 <0>         0.1486
     35 H12        -3.6140    7.5564   -0.1778 H         1 <0>         0.3989
     36 H13        -3.5665    7.5132   -1.8566 H         1 <0>         0.4058
     37 H14        -1.7613   -0.9212    0.9166 H         1 <0>         0.0872
     38 H15        -2.8395   -1.2266   -0.3714 H         1 <0>         0.0868
     39 H16        -1.1306   -0.8259   -0.6670 H         1 <0>         0.0863
@<TRIPOS>BOND
     1    1    2 1
     2    1   25 1
     3    1   26 1
     4    1   27 1
     5    2    7 ar
     6    2    3 ar
     7    3    4 ar
     8    3   28 1
     9    4    5 ar
    10    4   29 1
    11    5    6 ar
    12    5   22 1
    13    6    7 ar
    14    6    8 1
    15    7   30 1
    16    8    9 1
    17    8   31 1
    18    9   10 1
    19    9   11 1
    20    9   19 1
    21   11   16 ar
    22   11   12 ar
    23   12   13 ar
    24   12   18 1
    25   13   14 ar
    26   13   32 1
    27   14   15 ar
    28   14   33 1
    29   15   16 ar
    30   15   34 1
    31   16   17 1
    32   19   20 2
    33   19   21 am
    34   21   35 1
    35   21   36 1
    36   22   23 2
    37   22   24 1
    38   24   37 1
    39   24   38 1
    40   24   39 1
@<TRIPOS>MOLECULE
ZINC02020240
   39    40     0     0     0
SMALL
USER_CHARGES
2-(2-acetyl-5-methyl-phenyl)amino-2-(2,6-dichlorophenyl)-acetamide
@<TRIPOS>ATOM
      1 C1         -3.7535    2.0007    4.8363 C.3       1 <0>        -0.1225
      2 C2         -4.2888    2.3396    3.4689 C.ar      1 <0>         0.0003
      3 C3         -5.4085    3.1494    3.3494 C.ar      1 <0>        -0.1945
      4 C4         -5.9086    3.4673    2.1072 C.ar      1 <0>        -0.0196
      5 C5         -5.2809    2.9763    0.9554 C.ar      1 <0>        -0.2642
      6 C6         -4.1488    2.1511    1.0814 C.ar      1 <0>         0.2909
      7 C7         -3.6614    1.8426    2.3456 C.ar      1 <0>        -0.2112
      8 N1         -3.5194    1.6528   -0.0497 N.pl3     1 <0>        -0.6987
      9 C8         -2.4188    0.6955    0.0863 C.3       1 <0>         0.1624
     10 H1         -2.6562   -0.0219    0.8718 H         1 <0>         0.1203
     11 C9         -2.2236   -0.0339   -1.2179 C.ar      1 <0>        -0.0909
     12 C10        -2.1240   -1.4136   -1.2309 C.ar      1 <0>        -0.0154
     13 C11        -1.9490   -2.0830   -2.4291 C.ar      1 <0>        -0.1012
     14 C12        -1.8642   -1.3728   -3.6118 C.ar      1 <0>        -0.0821
     15 C13        -1.9584    0.0061   -3.5989 C.ar      1 <0>        -0.1007
     16 C14        -2.1381    0.6763   -2.4019 C.ar      1 <0>        -0.0199
     17 Cl1        -2.2559    2.4083   -2.3858 Cl        1 <0>        -0.0167
     18 Cl2        -2.2239   -2.3052    0.2553 Cl        1 <0>        -0.0453
     19 C15        -1.1537    1.4320    0.4442 C.2       1 <0>         0.5022
     20 O1         -1.1699    2.6379    0.5731 O.2       1 <0>        -0.5039
     21 N2         -0.0044    0.7507    0.6211 N.am      1 <0>        -0.8520
     22 C16        -5.8032    3.3161   -0.3722 C.2       1 <0>         0.4025
     23 O2         -5.2000    2.9732   -1.3673 O.2       1 <0>        -0.4774
     24 C17        -7.0892    4.0912   -0.5002 C.3       1 <0>        -0.1893
     25 H2         -3.0206    2.7500    5.1355 H         1 <0>         0.0770
     26 H3         -4.5734    1.9873    5.5544 H         1 <0>         0.0723
     27 H4         -3.2793    1.0197    4.8079 H         1 <0>         0.0673
     28 H5         -5.8911    3.5325    4.2364 H         1 <0>         0.1256
     29 H6         -6.7808    4.0983    2.0206 H         1 <0>         0.1330
     30 H7         -2.7899    1.2131    2.4488 H         1 <0>         0.1170
     31 H8         -3.8079    1.9382   -0.9307 H         1 <0>         0.4239
     32 H9         -1.8746   -3.1604   -2.4397 H         1 <0>         0.1486
     33 H10        -1.7239   -1.8955   -4.5464 H         1 <0>         0.1495
     34 H11        -1.8913    0.5605   -4.5233 H         1 <0>         0.1472
     35 H12         0.0085   -0.2137    0.5181 H         1 <0>         0.3989
     36 H13         0.8107    1.2252    0.8476 H         1 <0>         0.4058
     37 H14        -7.4504    4.2904    0.4108 H         1 <0>         0.0747
     38 H15        -6.8991    5.0258   -1.0281 H         1 <0>         0.0930
     39 H16        -7.8157    3.5002   -1.0579 H         1 <0>         0.0933
@<TRIPOS>BOND
     1    1    2 1
     2    1   25 1
     3    1   26 1
     4    1   27 1
     5    2    7 ar
     6    2    3 ar
     7    3    4 ar
     8    3   28 1
     9    4    5 ar
    10    4   29 1
    11    5    6 ar
    12    5   22 1
    13    6    7 ar
    14    6    8 1
    15    7   30 1
    16    8    9 1
    17    8   31 1
    18    9   10 1
    19    9   11 1
    20    9   19 1
    21   11   16 ar
    22   11   12 ar
    23   12   13 ar
    24   12   18 1
    25   13   14 ar
    26   13   32 1
    27   14   15 ar
    28   14   33 1
    29   15   16 ar
    30   15   34 1
    31   16   17 1
    32   19   20 2
    33   19   21 am
    34   21   35 1
    35   21   36 1
    36   22   23 2
    37   22   24 1
    38   24   37 1
    39   24   38 1
    40   24   39 1
@<TRIPOS>MOLECULE
ZINC13604422
   66    68     0     0     0
SMALL
USER_CHARGES
(4R,5S,6S,7R)-4,7-dibenzyl-5,6-dihydroxy-1,3-bis(2-methoxyethyl)-1,3-diazepan-2-one
@<TRIPOS>ATOM
      1 C1         -3.7934    1.0479    2.9063 C.3       1 <0>         0.0318
      2 O1         -3.3295    1.7030    1.7240 O.3       1 <0>        -0.3853
      3 C2         -2.8278    0.8128    0.7251 C.3       1 <0>         0.0390
      4 C3         -2.2489    1.6236   -0.4361 C.3       1 <0>         0.1369
      5 N1         -1.1239    2.4430    0.0495 N.am      1 <0>        -0.6123
      6 C4         -1.3652    3.8540    0.3242 C.3       1 <0>         0.1723
      7 H1         -1.0136    4.0908    1.3316 H         1 <0>         0.0854
      8 C5         -0.7096    4.7700   -0.6805 C.3       1 <0>         0.0620
      9 H2         -0.5501    5.7482   -0.2130 H         1 <0>         0.0734
     10 C6          0.5963    4.2832   -1.2664 C.3       1 <0>         0.0820
     11 H3          0.3928    3.4704   -1.9741 H         1 <0>         0.0721
     12 C7          1.5560    3.7763   -0.1876 C.3       1 <0>         0.1559
     13 H4          2.5786    3.8145   -0.6071 H         1 <0>         0.1128
     14 N2          1.2702    2.3773    0.1175 N.am      1 <0>        -0.5867
     15 C8          0.0631    1.8461    0.2181 C.2       1 <0>         0.7066
     16 O2          0.0390    0.6428    0.4343 O.2       1 <0>        -0.6010
     17 C9          2.4160    1.4866    0.3306 C.3       1 <0>         0.1327
     18 C10         2.8340    0.8653   -1.0036 C.3       1 <0>         0.0451
     19 O3          3.3096    1.8904   -1.8782 O.3       1 <0>        -0.3875
     20 C11         3.7278    1.4140   -3.1589 C.3       1 <0>         0.0338
     21 C12         1.5351    4.6367    1.0649 C.3       1 <0>        -0.0967
     22 C13         2.6687    4.2317    1.9715 C.ar      1 <0>        -0.0805
     23 C14         2.4734    3.2522    2.9271 C.ar      1 <0>        -0.1084
     24 C15         3.5147    2.8773    3.7554 C.ar      1 <0>        -0.1185
     25 C16         4.7483    3.4894    3.6351 C.ar      1 <0>        -0.1211
     26 C17         4.9422    4.4726    2.6830 C.ar      1 <0>        -0.1173
     27 C18         3.9024    4.8438    1.8511 C.ar      1 <0>        -0.1126
     28 O4          1.2213    5.3544   -1.9862 O.3       1 <0>        -0.5543
     29 O5         -1.6332    4.9786   -1.7624 O.3       1 <0>        -0.5563
     30 C19        -2.8828    4.1031    0.2970 C.3       1 <0>        -0.0940
     31 C20        -3.1714    5.4994    0.7851 C.ar      1 <0>        -0.0762
     32 C21        -3.2697    5.7512    2.1407 C.ar      1 <0>        -0.1161
     33 C22        -3.5296    7.0329    2.5886 C.ar      1 <0>        -0.1216
     34 C23        -3.7017    8.0608    1.6804 C.ar      1 <0>        -0.1242
     35 C24        -3.6086    7.8080    0.3246 C.ar      1 <0>        -0.1252
     36 C25        -3.3434    6.5273   -0.1231 C.ar      1 <0>        -0.1081
     37 H5         -4.5408    0.3011    2.6384 H         1 <0>         0.0400
     38 H6         -2.9551    0.5607    3.4044 H         1 <0>         0.0396
     39 H7         -4.2380    1.7823    3.5779 H         1 <0>         0.0824
     40 H8         -3.6387    0.1827    0.3596 H         1 <0>         0.0530
     41 H9         -2.0467    0.1864    1.1559 H         1 <0>         0.0732
     42 H10        -3.0216    2.2738   -0.8462 H         1 <0>         0.0962
     43 H11        -1.8954    0.9449   -1.2125 H         1 <0>         0.0835
     44 H12         3.2483    2.0575    0.7422 H         1 <0>         0.0863
     45 H13         2.1372    0.6965    1.0278 H         1 <0>         0.1058
     46 H14         3.6267    0.1369   -0.8327 H         1 <0>         0.0582
     47 H15         1.9764    0.3691   -1.4579 H         1 <0>         0.0554
     48 H16         4.5390    0.6970   -3.0327 H         1 <0>         0.0403
     49 H17         2.8887    0.9292   -3.6580 H         1 <0>         0.0379
     50 H18         4.0747    2.2524   -3.7630 H         1 <0>         0.0847
     51 H19         1.6481    5.6847    0.7877 H         1 <0>         0.0904
     52 H20         0.5870    4.4986    1.5848 H         1 <0>         0.0754
     53 H21         1.5084    2.7771    3.0241 H         1 <0>         0.1155
     54 H22         3.3632    2.1094    4.4996 H         1 <0>         0.1206
     55 H23         5.5606    3.1996    4.2852 H         1 <0>         0.1206
     56 H24         5.9058    4.9510    2.5892 H         1 <0>         0.1216
     57 H25         4.0537    5.6122    1.1075 H         1 <0>         0.1219
     58 H26         0.6726    5.7289   -2.6889 H         1 <0>         0.3781
     59 H27        -1.3368    5.6304   -2.4124 H         1 <0>         0.3700
     60 H28        -3.2511    3.9913   -0.7227 H         1 <0>         0.0899
     61 H29        -3.3811    3.3816    0.9445 H         1 <0>         0.1164
     62 H30        -3.1397    4.9473    2.8501 H         1 <0>         0.1195
     63 H31        -3.6027    7.2303    3.6479 H         1 <0>         0.1189
     64 H32        -3.9092    9.0613    2.0302 H         1 <0>         0.1181
     65 H33        -3.7433    8.6109   -0.3850 H         1 <0>         0.1184
     66 H34        -3.2710    6.3297   -1.1824 H         1 <0>         0.1305
@<TRIPOS>BOND
     1    1    2 1
     2    1   37 1
     3    1   38 1
     4    1   39 1
     5    2    3 1
     6    3    4 1
     7    3   40 1
     8    3   41 1
     9    4    5 1
    10    4   42 1
    11    4   43 1
    12    5   15 am
    13    5    6 1
    14    6    7 1
    15    6    8 1
    16    6   30 1
    17    8    9 1
    18    8   10 1
    19    8   29 1
    20   10   11 1
    21   10   12 1
    22   10   28 1
    23   12   13 1
    24   12   14 1
    25   12   21 1
    26   14   15 am
    27   14   17 1
    28   15   16 2
    29   17   18 1
    30   17   44 1
    31   17   45 1
    32   18   19 1
    33   18   46 1
    34   18   47 1
    35   19   20 1
    36   20   48 1
    37   20   49 1
    38   20   50 1
    39   21   22 1
    40   21   51 1
    41   21   52 1
    42   22   27 ar
    43   22   23 ar
    44   23   24 ar
    45   23   53 1
    46   24   25 ar
    47   24   54 1
    48   25   26 ar
    49   25   55 1
    50   26   27 ar
    51   26   56 1
    52   27   57 1
    53   28   58 1
    54   29   59 1
    55   30   31 1
    56   30   60 1
    57   30   61 1
    58   31   36 ar
    59   31   32 ar
    60   32   33 ar
    61   32   62 1
    62   33   34 ar
    63   33   63 1
    64   34   35 ar
    65   34   64 1
    66   35   36 ar
    67   35   65 1
    68   36   66 1
@<TRIPOS>MOLECULE
ZINC28124765
   68    71     0     0     0
SMALL
USER_CHARGES

@<TRIPOS>ATOM
      1 C1         -0.0184    1.5028    0.0103 C.3       1 <0>        -0.1225
      2 C2          0.0021   -0.0041    0.0020 C.ar      1 <0>        -0.0348
      3 C3          0.0057   -0.6887   -1.1989 C.ar      1 <0>        -0.1443
      4 C4          0.0245   -2.0709   -1.2065 C.ar      1 <0>        -0.0142
      5 C5          0.0400   -2.7685   -0.0132 C.ar      1 <0>        -0.6391
      6 C6          0.0373   -2.0839    1.1877 C.ar      1 <0>        -0.0141
      7 C7          0.0229   -0.7016    1.1953 C.ar      1 <0>        -0.1445
      8 S1          0.0628   -4.5303   -0.0229 S.o2      1 <0>         2.6452
      9 O1         -0.4759   -4.9503    1.2232 O.2       1 <0>        -0.9870
     10 O2         -0.4897   -4.9367   -1.2674 O.2       1 <0>        -0.9870
     11 N1          1.6509   -4.9994   -0.0343 N.2       1 <0>        -1.0581
     12 C8          1.9561   -6.2666   -0.0428 C.2       1 <0>         0.7486
     13 N2          0.9595   -7.2137   -0.0424 N.pl3     1 <0>        -0.7547
     14 C9          1.3025   -8.6379   -0.0521 C.3       1 <0>         0.1041
     15 C10         0.0196   -9.4715   -0.0495 C.3       1 <0>        -0.1367
     16 C11         0.3778  -10.9590   -0.0595 C.3       1 <0>        -0.1050
     17 C12        -0.9052  -11.7926   -0.0570 C.3       1 <0>         0.0921
     18 H1         -1.5356  -11.4917   -0.8937 H         1 <0>         0.0875
     19 C13        -0.5559  -13.2524   -0.1907 C.2       1 <0>         0.4908
     20 O3         -0.3587  -13.9259    0.8064 O.co2     1 <0>        -0.6870
     21 O4         -0.4706  -13.7601   -1.2959 O.co2     1 <0>        -0.6900
     22 N3         -1.6257  -11.5760    1.2001 N.am      1 <0>        -0.6732
     23 C14        -2.9588  -11.7669    1.2542 C.2       1 <0>         0.6467
     24 O5         -3.5630  -12.1188    0.2604 O.2       1 <0>        -0.5723
     25 O6         -3.6210  -11.5679    2.4094 O.3       1 <0>        -0.3686
     26 C15        -5.0327  -11.7890    2.3944 C.3       1 <0>         0.1079
     27 C16        -5.6067  -11.5148    3.7858 C.3       1 <0>        -0.0096
     28 C17        -5.5180  -10.0422    4.1036 C.ar      1 <0>        -0.0780
     29 C18        -4.4463   -9.1818    4.2128 C.ar      1 <0>        -0.0860
     30 C19        -4.6563   -7.8495    4.5220 C.ar      1 <0>        -0.1119
     31 C20        -5.9413   -7.3782    4.7220 C.ar      1 <0>        -0.1205
     32 C21        -7.0194   -8.2320    4.6147 C.ar      1 <0>        -0.0985
     33 C22        -6.8151   -9.5773    4.3031 C.ar      1 <0>        -0.0622
     34 C23        -7.7735  -10.6967    4.1283 C.ar      1 <0>        -0.0481
     35 C24        -7.0752  -11.8609    3.8196 C.ar      1 <0>        -0.0834
     36 C25        -7.7525  -13.0434    3.6102 C.ar      1 <0>        -0.0936
     37 C26        -9.1325  -13.0775    3.7060 C.ar      1 <0>        -0.1140
     38 C27        -9.8352  -11.9260    4.0118 C.ar      1 <0>        -0.1175
     39 C28        -9.1656  -10.7386    4.2233 C.ar      1 <0>        -0.0991
     40 N4          3.2745   -6.6561   -0.0523 N.pl3     1 <0>        -0.8160
     41 H2          1.0042    1.8801    0.0026 H         1 <0>         0.0779
     42 H3         -0.5455    1.8639   -0.8728 H         1 <0>         0.0716
     43 H4         -0.5286    1.8543    0.9071 H         1 <0>         0.0716
     44 H5         -0.0064   -0.1436   -2.1312 H         1 <0>         0.1321
     45 H6          0.0266   -2.6057   -2.1448 H         1 <0>         0.1401
     46 H7          0.0491   -2.6289    2.1200 H         1 <0>         0.1401
     47 H8          0.0245   -0.1667    2.1335 H         1 <0>         0.1320
     48 H9          1.8822   -8.8660   -0.9465 H         1 <0>         0.0792
     49 H10         1.8921   -8.8757    0.8334 H         1 <0>         0.0785
     50 H11        -0.5601   -9.2435    0.8450 H         1 <0>         0.0746
     51 H12        -0.5700   -9.2338   -0.9349 H         1 <0>         0.0765
     52 H13         0.9575  -11.1870   -0.9540 H         1 <0>         0.0865
     53 H14         0.9674  -11.1967    0.8259 H         1 <0>         0.0736
     54 H15        -1.1434  -11.2951    1.9934 H         1 <0>         0.3984
     55 H16        -5.4977  -11.1191    1.6711 H         1 <0>         0.0689
     56 H17        -5.2356  -12.8228    2.1149 H         1 <0>         0.0740
     57 H18        -5.0672  -12.0945    4.5348 H         1 <0>         0.1146
     58 H19        -3.4422   -9.5480    4.0574 H         1 <0>         0.1316
     59 H20        -3.8157   -7.1768    4.6076 H         1 <0>         0.1284
     60 H21        -6.1010   -6.3377    4.9635 H         1 <0>         0.1247
     61 H22        -8.0210   -7.8599    4.7720 H         1 <0>         0.1203
     62 H23        -7.2057  -13.9435    3.3710 H         1 <0>         0.1286
     63 H24        -9.6617  -14.0045    3.5414 H         1 <0>         0.1280
     64 H25       -10.9122  -11.9565    4.0849 H         1 <0>         0.1256
     65 H26        -9.7181   -9.8418    4.4618 H         1 <0>         0.1222
     66 H27         3.9776   -5.9878   -0.0525 H         1 <0>         0.4261
     67 H28         3.5016   -7.5991   -0.0586 H         1 <0>         0.4127
     68 H29         0.0293   -6.9389   -0.0358 H         1 <0>         0.4095
@<TRIPOS>BOND
     1    1    2 1
     2    1   41 1
     3    1   42 1
     4    1   43 1
     5    2    7 ar
     6    2    3 ar
     7    3    4 ar
     8    3   44 1
     9    4    5 ar
    10    4   45 1
    11    5    6 ar
    12    5    8 1
    13    6    7 ar
    14    6   46 1
    15    7   47 1
    16    8    9 2
    17    8   10 2
    18    8   11 1
    19   11   12 2
    20   12   13 1
    21   12   40 1
    22   13   14 1
    23   13   68 1
    24   14   15 1
    25   14   48 1
    26   14   49 1
    27   15   16 1
    28   15   50 1
    29   15   51 1
    30   16   17 1
    31   16   52 1
    32   16   53 1
    33   17   18 1
    34   17   19 1
    35   17   22 1
    36   19   20 2
    37   19   21 1
    38   22   23 am
    39   22   54 1
    40   23   24 2
    41   23   25 1
    42   25   26 1
    43   26   27 1
    44   26   55 1
    45   26   56 1
    46   27   35 1
    47   27   28 1
    48   27   57 1
    49   28   33 ar
    50   28   29 ar
    51   29   30 ar
    52   29   58 1
    53   30   31 ar
    54   30   59 1
    55   31   32 ar
    56   31   60 1
    57   32   33 ar
    58   32   61 1
    59   33   34 1
    60   34   39 ar
    61   34   35 ar
    62   35   36 ar
    63   36   37 ar
    64   36   62 1
    65   37   38 ar
    66   37   63 1
    67   38   39 ar
    68   38   64 1
    69   39   65 1
    70   40   66 1
    71   40   67 1
@<TRIPOS>MOLECULE
ZINC27092909
   81    84     0     0     0
SMALL
USER_CHARGES
(2S)-1-[(2S,4R)-4-benzyl-2-hydroxy-5-[[(1S,2R)-2-hydroxyindan-1-yl]amino]-5-oxo-pentyl]-N-tert-butyl-piperazine-2-carboxamide
@<TRIPOS>ATOM
      1 C1         -1.2676   11.3426    3.9090 C.3       1 <0>        -0.1682
      2 C2         -2.7292   11.4330    3.4661 C.3       1 <0>         0.1743
      3 C3         -3.2120   12.8793    3.5927 C.3       1 <0>        -0.1603
      4 C4         -3.5878   10.5292    4.3532 C.3       1 <0>        -0.1673
      5 N1         -2.8445   11.0000    2.0713 N.am      1 <0>        -0.7271
      6 C5         -2.4744    9.7525    1.7201 C.2       1 <0>         0.5172
      7 O1         -2.0460    8.9884    2.5589 O.2       1 <0>        -0.4948
      8 C6         -2.5930    9.3071    0.2853 C.3       1 <0>         0.0365
      9 H1         -2.4414   10.1677   -0.3828 H         1 <0>         0.0807
     10 C7         -3.9669    8.6718    0.0593 C.3       1 <0>         0.0152
     11 N2         -4.0647    8.2037   -1.3303 N.4       1 <0>        -0.5356
     12 C8         -3.0168    7.2165   -1.6254 C.3       1 <0>        -0.0030
     13 C9         -1.6429    7.8519   -1.3994 C.3       1 <0>         0.0160
     14 N3         -1.5451    8.3200   -0.0098 N.3       1 <0>        -0.5132
     15 C10        -0.2112    8.8691    0.2682 C.3       1 <0>         0.0635
     16 C11         0.7987    7.7249    0.3769 C.3       1 <0>         0.1343
     17 H2          0.4335    6.9329    1.0473 H         1 <0>         0.0676
     18 C12         2.1449    8.2763    0.8510 C.3       1 <0>        -0.1386
     19 C13         3.1044    7.1158    1.1222 C.3       1 <0>        -0.0962
     20 H3          2.6408    6.4021    1.8191 H         1 <0>         0.0910
     21 C14         3.4402    6.4134   -0.1949 C.3       1 <0>        -0.0746
     22 C15         4.3200    5.2214    0.0816 C.ar      1 <0>        -0.0997
     23 C16         3.7545    4.0176    0.4583 C.ar      1 <0>        -0.1180
     24 C17         4.5614    2.9242    0.7116 C.ar      1 <0>        -0.1198
     25 C18         5.9338    3.0345    0.5880 C.ar      1 <0>        -0.1152
     26 C19         6.4992    4.2383    0.2109 C.ar      1 <0>        -0.1176
     27 C20         5.6923    5.3314   -0.0432 C.ar      1 <0>        -0.0976
     28 C21         4.3698    7.6455    1.7459 C.2       1 <0>         0.5263
     29 O2          5.2463    8.1037    1.0438 O.2       1 <0>        -0.5403
     30 N4          4.5276    7.6102    3.0839 N.am      1 <0>        -0.7138
     31 C22         5.7074    8.2237    3.6988 C.3       1 <0>         0.1968
     32 H4          6.5054    8.1142    2.9496 H         1 <0>         0.1029
     33 C23         5.4299    9.6729    4.0367 C.ar      1 <0>        -0.1121
     34 C24         5.4062   10.7950    3.2252 C.ar      1 <0>        -0.0847
     35 C25         5.1240   12.0355    3.7626 C.ar      1 <0>        -0.1238
     36 C26         4.8647   12.1587    5.1150 C.ar      1 <0>        -0.1081
     37 C27         4.8883   11.0410    5.9259 C.ar      1 <0>        -0.1106
     38 C28         5.1706    9.7961    5.3888 C.ar      1 <0>        -0.0859
     39 C29         5.2561    8.4381    6.0520 C.3       1 <0>        -0.1139
     40 C30         6.0217    7.5449    5.0489 C.3       1 <0>         0.1161
     41 H5          7.0883    7.3872    5.2668 H         1 <0>         0.0824
     42 O3          5.5217    6.2065    5.0731 O.3       1 <0>        -0.5968
     43 O4          0.9602    7.1090   -0.9024 O.3       1 <0>        -0.6213
     44 H6         -0.9205   10.3028    3.8180 H         1 <0>         0.0769
     45 H7         -1.1811   11.6677    4.9563 H         1 <0>         0.0695
     46 H8         -0.6504   11.9924    3.2712 H         1 <0>         0.0551
     47 H9         -4.2629   12.9442    3.2742 H         1 <0>         0.0641
     48 H10        -2.5947   13.5290    2.9549 H         1 <0>         0.0645
     49 H11        -3.1255   13.2044    4.6400 H         1 <0>         0.0798
     50 H12        -4.6387   10.5942    4.0347 H         1 <0>         0.0545
     51 H13        -3.5013   10.8543    5.4005 H         1 <0>         0.0696
     52 H14        -3.2407    9.4894    4.2621 H         1 <0>         0.0774
     53 H15        -3.2331   11.6930    1.3106 H         1 <0>         0.4189
     54 H16        -4.0942    7.8203    0.7439 H         1 <0>         0.1436
     55 H17        -4.7520    9.4177    0.2521 H         1 <0>         0.1389
     56 H18        -5.0471    7.7358   -1.4913 H         1 <0>         0.4585
     57 H19        -3.1339    6.3478   -0.9609 H         1 <0>         0.1361
     58 H20        -3.1037    6.8914   -2.6727 H         1 <0>         0.1391
     59 H21        -0.8578    7.1060   -1.5922 H         1 <0>         0.1580
     60 H22        -1.5156    8.7034   -2.0840 H         1 <0>         0.0561
     61 H23         0.0852    9.5435   -0.5487 H         1 <0>         0.0535
     62 H24        -0.2350    9.4285    1.2151 H         1 <0>         0.0975
     63 H25         2.5686    8.9282    0.0729 H         1 <0>         0.0838
     64 H26         1.9992    8.8552    1.7750 H         1 <0>         0.0769
     65 H27         2.5110    6.0788   -0.6793 H         1 <0>         0.0964
     66 H28         3.9687    7.1130   -0.8592 H         1 <0>         0.0954
     67 H29         2.6820    3.9301    0.5505 H         1 <0>         0.1171
     68 H30         4.1197    1.9837    1.0062 H         1 <0>         0.1214
     69 H31         6.5643    2.1805    0.7866 H         1 <0>         0.1216
     70 H32         7.5715    4.3247    0.1151 H         1 <0>         0.1212
     71 H33         6.1340    6.2720   -0.3376 H         1 <0>         0.1273
     72 H34         3.7706    7.1208    3.7143 H         1 <0>         0.4228
     73 H35         5.6087   10.6995    2.1687 H         1 <0>         0.1221
     74 H36         5.1056   12.9084    3.1270 H         1 <0>         0.1247
     75 H37         4.6434   13.1280    5.5369 H         1 <0>         0.1259
     76 H38         4.6859   11.1381    6.9823 H         1 <0>         0.1219
     77 H39         5.7960    8.5293    7.0060 H         1 <0>         0.0828
     78 H40         4.2414    8.0572    6.2399 H         1 <0>         0.0920
     79 H41         5.6636    5.5825    5.9678 H         1 <0>         0.4174
     80 H42         1.6512    6.2615   -1.0215 H         1 <0>         0.4084
     81 H43        -3.9489    9.0577   -2.0139 H         1 <0>         0.4472
@<TRIPOS>BOND
     1    1    2 1
     2    1   44 1
     3    1   45 1
     4    1   46 1
     5    2    3 1
     6    2    4 1
     7    2    5 1
     8    3   47 1
     9    3   48 1
    10    3   49 1
    11    4   50 1
    12    4   51 1
    13    4   52 1
    14    5    6 am
    15    5   53 1
    16    6    7 2
    17    6    8 1
    18    8    9 1
    19    8   14 1
    20    8   10 1
    21   10   11 1
    22   10   54 1
    23   10   55 1
    24   11   12 1
    25   11   56 1
    26   11   81 1
    27   12   13 1
    28   12   57 1
    29   12   58 1
    30   13   14 1
    31   13   59 1
    32   13   60 1
    33   14   15 1
    34   15   16 1
    35   15   61 1
    36   15   62 1
    37   16   17 1
    38   16   18 1
    39   16   43 1
    40   18   19 1
    41   18   63 1
    42   18   64 1
    43   19   20 1
    44   19   21 1
    45   19   28 1
    46   21   22 1
    47   21   65 1
    48   21   66 1
    49   22   27 ar
    50   22   23 ar
    51   23   24 ar
    52   23   67 1
    53   24   25 ar
    54   24   68 1
    55   25   26 ar
    56   25   69 1
    57   26   27 ar
    58   26   70 1
    59   27   71 1
    60   28   29 2
    61   28   30 am
    62   30   31 1
    63   30   72 1
    64   31   32 1
    65   31   40 1
    66   31   33 1
    67   33   38 ar
    68   33   34 ar
    69   34   35 ar
    70   34   73 1
    71   35   36 ar
    72   35   74 1
    73   36   37 ar
    74   36   75 1
    75   37   38 ar
    76   37   76 1
    77   38   39 1
    78   39   40 1
    79   39   77 1
    80   39   78 1
    81   40   41 1
    82   40   42 1
    83   42   79 1
    84   43   80 1
@<TRIPOS>MOLECULE
ZINC27092909
   82    85     0     0     0
SMALL
USER_CHARGES
(2S)-1-[(2S,4R)-4-benzyl-2-hydroxy-5-[[(1S,2R)-2-hydroxyindan-1-yl]amino]-5-oxo-pentyl]-N-tert-butyl-piperazine-2-carboxamide
@<TRIPOS>ATOM
      1 C1         -1.2676   11.3426    3.9090 C.3       1 <0>        -0.1716
      2 C2         -2.7292   11.4330    3.4661 C.3       1 <0>         0.1709
      3 C3         -3.2120   12.8793    3.5927 C.3       1 <0>        -0.1660
      4 C4         -3.5878   10.5292    4.3532 C.3       1 <0>        -0.1711
      5 N1         -2.8445   11.0000    2.0713 N.am      1 <0>        -0.6934
      6 C5         -2.4744    9.7525    1.7201 C.2       1 <0>         0.5002
      7 O1         -2.0460    8.9884    2.5589 O.2       1 <0>        -0.5010
      8 C6         -2.5930    9.3071    0.2853 C.3       1 <0>        -0.0186
      9 H1         -2.4414   10.1677   -0.3828 H         1 <0>         0.1730
     10 C7         -3.9669    8.6718    0.0593 C.3       1 <0>        -0.0089
     11 N2         -4.0647    8.2037   -1.3303 N.4       1 <0>        -0.5456
     12 C8         -3.0168    7.2165   -1.6254 C.3       1 <0>        -0.0270
     13 C9         -1.6429    7.8519   -1.3994 C.3       1 <0>        -0.0378
     14 N3         -1.5451    8.3200   -0.0098 N.4       1 <0>        -0.3944
     15 C10        -0.2112    8.8691    0.2682 C.3       1 <0>        -0.0033
     16 C11         0.7987    7.7249    0.3769 C.3       1 <0>         0.1094
     17 H2          0.4335    6.9329    1.0473 H         1 <0>         0.0809
     18 C12         2.1449    8.2763    0.8510 C.3       1 <0>        -0.1381
     19 C13         3.1044    7.1158    1.1222 C.3       1 <0>        -0.1002
     20 H3          2.6408    6.4021    1.8191 H         1 <0>         0.0953
     21 C14         3.4402    6.4134   -0.1949 C.3       1 <0>        -0.0624
     22 C15         4.3200    5.2214    0.0816 C.ar      1 <0>        -0.1121
     23 C16         3.7545    4.0176    0.4583 C.ar      1 <0>        -0.1196
     24 C17         4.5614    2.9242    0.7116 C.ar      1 <0>        -0.1184
     25 C18         5.9338    3.0345    0.5880 C.ar      1 <0>        -0.1076
     26 C19         6.4992    4.2383    0.2109 C.ar      1 <0>        -0.1136
     27 C20         5.6923    5.3314   -0.0432 C.ar      1 <0>        -0.0944
     28 C21         4.3698    7.6455    1.7459 C.2       1 <0>         0.5226
     29 O2          5.2463    8.1037    1.0438 O.2       1 <0>        -0.5330
     30 N4          4.5276    7.6102    3.0839 N.am      1 <0>        -0.7099
     31 C22         5.7074    8.2237    3.6988 C.3       1 <0>         0.1978
     32 H4          6.5054    8.1142    2.9496 H         1 <0>         0.1043
     33 C23         5.4299    9.6729    4.0367 C.ar      1 <0>        -0.1152
     34 C24         5.4062   10.7950    3.2252 C.ar      1 <0>        -0.0863
     35 C25         5.1240   12.0355    3.7626 C.ar      1 <0>        -0.1244
     36 C26         4.8647   12.1587    5.1150 C.ar      1 <0>        -0.1059
     37 C27         4.8883   11.0410    5.9259 C.ar      1 <0>        -0.1096
     38 C28         5.1706    9.7961    5.3888 C.ar      1 <0>        -0.0841
     39 C29         5.2561    8.4381    6.0520 C.3       1 <0>        -0.1151
     40 C30         6.0217    7.5449    5.0489 C.3       1 <0>         0.1154
     41 H5          7.0883    7.3872    5.2668 H         1 <0>         0.0853
     42 O3          5.5217    6.2065    5.0731 O.3       1 <0>        -0.6002
     43 O4          0.9602    7.1090   -0.9024 O.3       1 <0>        -0.6348
     44 H6         -0.9205   10.3028    3.8180 H         1 <0>         0.0745
     45 H7         -1.1811   11.6677    4.9563 H         1 <0>         0.0817
     46 H8         -0.6504   11.9924    3.2712 H         1 <0>         0.0607
     47 H9         -4.2629   12.9442    3.2742 H         1 <0>         0.0695
     48 H10        -2.5947   13.5290    2.9549 H         1 <0>         0.0697
     49 H11        -3.1255   13.2044    4.6400 H         1 <0>         0.0901
     50 H12        -4.6387   10.5942    4.0347 H         1 <0>         0.0602
     51 H13        -3.5013   10.8543    5.4005 H         1 <0>         0.0812
     52 H14        -3.2407    9.4894    4.2621 H         1 <0>         0.0759
     53 H15        -3.2331   11.6930    1.3106 H         1 <0>         0.4329
     54 H16        -4.0942    7.8203    0.7439 H         1 <0>         0.1611
     55 H17        -4.7520    9.4177    0.2521 H         1 <0>         0.1799
     56 H18        -5.0471    7.7358   -1.4913 H         1 <0>         0.4847
     57 H19        -3.1339    6.3478   -0.9609 H         1 <0>         0.1529
     58 H20        -3.1037    6.8914   -2.6727 H         1 <0>         0.1814
     59 H21        -0.8578    7.1060   -1.5922 H         1 <0>         0.2044
     60 H22        -1.5156    8.7034   -2.0840 H         1 <0>         0.1497
     61 H23         0.0852    9.5435   -0.5487 H         1 <0>         0.1452
     62 H24        -0.2350    9.4285    1.2151 H         1 <0>         0.1489
     63 H25         2.5686    8.9282    0.0729 H         1 <0>         0.0985
     64 H26         1.9992    8.8552    1.7750 H         1 <0>         0.0883
     65 H27         2.5110    6.0788   -0.6793 H         1 <0>         0.0838
     66 H28         3.9687    7.1130   -0.8592 H         1 <0>         0.1012
     67 H29         2.6820    3.9301    0.5505 H         1 <0>         0.1134
     68 H30         4.1197    1.9837    1.0062 H         1 <0>         0.1237
     69 H31         6.5643    2.1805    0.7866 H         1 <0>         0.1258
     70 H32         7.5715    4.3247    0.1151 H         1 <0>         0.1253
     71 H33         6.1340    6.2720   -0.3376 H         1 <0>         0.1288
     72 H34         3.7706    7.1208    3.7143 H         1 <0>         0.4218
     73 H35         5.6087   10.6995    2.1687 H         1 <0>         0.1214
     74 H36         5.1056   12.9084    3.1270 H         1 <0>         0.1254
     75 H37         4.6434   13.1280    5.5369 H         1 <0>         0.1276
     76 H38         4.6859   11.1381    6.9823 H         1 <0>         0.1236
     77 H39         5.7960    8.5293    7.0060 H         1 <0>         0.0856
     78 H40         4.2414    8.0572    6.2399 H         1 <0>         0.0910
     79 H41         5.6636    5.5825    5.9678 H         1 <0>         0.4214
     80 H42         1.6512    6.2615   -1.0215 H         1 <0>         0.4375
     81 H43        -3.9489    9.0577   -2.0139 H         1 <0>         0.4645
     82 H44        -1.6976    7.4545    0.6518 H         1 <0>         0.4553
@<TRIPOS>BOND
     1    1    2 1
     2    1   44 1
     3    1   45 1
     4    1   46 1
     5    2    3 1
     6    2    4 1
     7    2    5 1
     8    3   47 1
     9    3   48 1
    10    3   49 1
    11    4   50 1
    12    4   51 1
    13    4   52 1
    14    5    6 am
    15    5   53 1
    16    6    7 2
    17    6    8 1
    18    8    9 1
    19    8   14 1
    20    8   10 1
    21   10   11 1
    22   10   54 1
    23   10   55 1
    24   11   12 1
    25   11   56 1
    26   11   81 1
    27   12   13 1
    28   12   57 1
    29   12   58 1
    30   13   14 1
    31   13   59 1
    32   13   60 1
    33   14   15 1
    34   14   82 1
    35   15   16 1
    36   15   61 1
    37   15   62 1
    38   16   17 1
    39   16   18 1
    40   16   43 1
    41   18   19 1
    42   18   63 1
    43   18   64 1
    44   19   20 1
    45   19   21 1
    46   19   28 1
    47   21   22 1
    48   21   65 1
    49   21   66 1
    50   22   27 ar
    51   22   23 ar
    52   23   24 ar
    53   23   67 1
    54   24   25 ar
    55   24   68 1
    56   25   26 ar
    57   25   69 1
    58   26   27 ar
    59   26   70 1
    60   27   71 1
    61   28   29 2
    62   28   30 am
    63   30   31 1
    64   30   72 1
    65   31   32 1
    66   31   40 1
    67   31   33 1
    68   33   38 ar
    69   33   34 ar
    70   34   35 ar
    71   34   73 1
    72   35   36 ar
    73   35   74 1
    74   36   37 ar
    75   36   75 1
    76   37   38 ar
    77   37   76 1
    78   38   39 1
    79   39   40 1
    80   39   77 1
    81   39   78 1
    82   40   41 1
    83   40   42 1
    84   42   79 1
    85   43   80 1
@<TRIPOS>MOLECULE
ZINC00089763
   27    28     0     0     0
SMALL
USER_CHARGES

@<TRIPOS>ATOM
      1 C1         -0.0184    1.5028    0.0103 C.3       1 <0>        -0.0753
      2 C2          0.0021   -0.0041    0.0020 C.2       1 <0>         0.0345
      3 C3         -1.0761   -0.8071    0.0026 C.2       1 <0>        -0.2715
      4 C4         -0.6252   -2.1469   -0.0076 C.2       1 <0>         0.3859
      5 N1          0.6837   -2.1300   -0.0140 N.2       1 <0>        -0.4533
      6 O1          1.0999   -0.7764   -0.0131 O.3       1 <0>        -0.1203
      7 N2         -1.4296   -3.2817   -0.0100 N.2       1 <0>        -1.0529
      8 S1         -0.7384   -4.7865   -0.0224 S.o2      1 <0>         2.6208
      9 O2         -0.0749   -4.9184   -1.2721 O.2       1 <0>        -1.0265
     10 O3         -0.0617   -4.9329    1.2185 O.2       1 <0>        -1.0265
     11 C5         -2.0505   -5.9625   -0.0223 C.ar      1 <0>        -0.6699
     12 C6         -2.5617   -6.4257    1.1762 C.ar      1 <0>         0.0231
     13 C7         -3.5901   -7.3474    1.1799 C.ar      1 <0>        -0.2217
     14 C8         -4.1111   -7.8093   -0.0221 C.ar      1 <0>         0.2448
     15 C9         -3.5952   -7.3419   -1.2243 C.ar      1 <0>        -0.2217
     16 C10        -2.5706   -6.4160   -1.2207 C.ar      1 <0>         0.0230
     17 N3         -5.1509   -8.7418   -0.0221 N.pl3     1 <0>        -0.8771
     18 H1          1.0042    1.8801    0.0026 H         1 <0>         0.0724
     19 H2         -0.5455    1.8639   -0.8728 H         1 <0>         0.0813
     20 H3         -0.5286    1.8543    0.9071 H         1 <0>         0.0813
     21 H4         -2.1069   -0.4849    0.0099 H         1 <0>         0.1395
     22 H5         -2.1560   -6.0665    2.1104 H         1 <0>         0.1354
     23 H6         -3.9886   -7.7090    2.1163 H         1 <0>         0.1225
     24 H7         -3.9977   -7.6993   -2.1606 H         1 <0>         0.1225
     25 H8         -2.1721   -6.0489   -2.1550 H         1 <0>         0.1354
     26 H9         -5.5100   -9.0677    0.8180 H         1 <0>         0.3971
     27 H10        -5.5138   -9.0636   -0.8621 H         1 <0>         0.3971
@<TRIPOS>BOND
     1    1    2 1
     2    1   18 1
     3    1   19 1
     4    1   20 1
     5    2    6 1
     6    2    3 2
     7    3    4 1
     8    3   21 1
     9    4    5 2
    10    4    7 1
    11    5    6 1
    12    7    8 1
    13    8    9 2
    14    8   10 2
    15    8   11 1
    16   11   16 ar
    17   11   12 ar
    18   12   13 ar
    19   12   22 1
    20   13   14 ar
    21   13   23 1
    22   14   15 ar
    23   14   17 1
    24   15   16 ar
    25   15   24 1
    26   16   25 1
    27   17   26 1
    28   17   27 1
@<TRIPOS>MOLECULE
ZINC04102315
   33    33     0     0     0
SMALL
USER_CHARGES

@<TRIPOS>ATOM
      1 C1         -0.4045    1.8595   -0.4074 C.3       1 <0>        -0.1279
      2 C2         -0.3029    0.3565   -0.3686 C.2       1 <0>        -0.1602
      3 C3         -1.3899   -0.3722   -0.3093 C.2       1 <0>        -0.1594
      4 C4         -1.2882   -1.8753   -0.2705 C.3       1 <0>        -0.0648
      5 C5         -2.0255   -2.3977    0.9356 C.2       1 <0>        -0.1445
      6 C6         -2.9648   -3.2990    0.7894 C.2       1 <0>        -0.1625
      7 C7         -3.7021   -3.8214    1.9955 C.3       1 <0>        -0.0838
      8 C8         -5.2070   -3.6324    1.7947 C.3       1 <0>        -0.1541
      9 C9         -5.9442   -4.1548    3.0008 C.2       1 <0>         0.3523
     10 O1         -5.3385   -4.7136    3.8835 O.2       1 <0>        -0.4149
     11 C10        -7.4374   -3.9798    3.1053 C.3       1 <0>        -0.0585
     12 H1         -7.9554   -3.7678    2.1700 H         1 <0>         0.1608
     13 C11        -7.9940   -3.3548    4.3861 C.3       1 <0>         0.0014
     14 H2         -8.8821   -2.7286    4.3013 H         1 <0>         0.1684
     15 O2         -8.1304   -4.7481    4.0910 O.3       1 <0>        -0.2903
     16 C12        -7.0117   -2.9548    5.4567 C.2       1 <0>         0.5305
     17 O3         -7.0097   -3.5311    6.5238 O.2       1 <0>        -0.5081
     18 N1         -6.1353   -1.9567    5.2282 N.am      1 <0>        -0.8427
     19 H3          0.5956    2.2902   -0.4552 H         1 <0>         0.0610
     20 H4         -0.9731    2.1627   -1.2866 H         1 <0>         0.0646
     21 H5         -0.9097    2.2128    0.4915 H         1 <0>         0.0645
     22 H6          0.6661   -0.1200   -0.3897 H         1 <0>         0.1075
     23 H7         -2.3589    0.1042   -0.2882 H         1 <0>         0.1087
     24 H8         -1.7299   -2.2928   -1.1753 H         1 <0>         0.0756
     25 H9         -0.2398   -2.1671   -0.2100 H         1 <0>         0.0755
     26 H10        -1.7794   -2.0290    1.9204 H         1 <0>         0.1094
     27 H11        -3.2109   -3.6677   -0.1954 H         1 <0>         0.1118
     28 H12        -3.4829   -4.8813    2.1243 H         1 <0>         0.0798
     29 H13        -3.3822   -3.2739    2.8821 H         1 <0>         0.0726
     30 H14        -5.4261   -2.5725    1.6659 H         1 <0>         0.1055
     31 H15        -5.5268   -4.1799    0.9081 H         1 <0>         0.1086
     32 H16        -6.0875   -1.5445    4.3515 H         1 <0>         0.4017
     33 H17        -5.5525   -1.6505    5.9406 H         1 <0>         0.4115
@<TRIPOS>BOND
     1    1    2 1
     2    1   19 1
     3    1   20 1
     4    1   21 1
     5    2    3 2
     6    2   22 1
     7    3    4 1
     8    3   23 1
     9    4    5 1
    10    4   24 1
    11    4   25 1
    12    5    6 2
    13    5   26 1
    14    6    7 1
    15    6   27 1
    16    7    8 1
    17    7   28 1
    18    7   29 1
    19    8    9 1
    20    8   30 1
    21    8   31 1
    22    9   10 2
    23    9   11 1
    24   11   12 1
    25   11   15 1
    26   11   13 1
    27   13   14 1
    28   13   15 1
    29   13   16 1
    30   16   17 2
    31   16   18 am
    32   18   32 1
    33   18   33 1
@<TRIPOS>MOLECULE
ZINC00537822
   50    52     0     0     0
SMALL
USER_CHARGES

@<TRIPOS>ATOM
      1 C1         -0.0169    1.3952    0.0097 C.ar      1 <0>        -0.0260
      2 C2          1.1683    2.0970    0.0022 C.ar      1 <0>        -0.1650
      3 C3          2.3789    1.4198   -0.0130 C.ar      1 <0>         0.1439
      4 C4          2.4047    0.0329   -0.0212 C.ar      1 <0>        -0.1670
      5 C5          1.2267   -0.6810   -0.0142 C.ar      1 <0>        -0.0432
      6 C6          0.0021   -0.0041    0.0020 C.ar      1 <0>        -0.1967
      7 C7         -1.2591   -0.7596    0.0105 C.2       1 <0>         0.4038
      8 O1         -2.3189   -0.1702    0.0242 O.2       1 <0>        -0.4483
      9 C8         -1.2348   -2.2664    0.0022 C.3       1 <0>        -0.1653
     10 C9         -2.6689   -2.7996    0.0135 C.3       1 <0>        -0.1429
     11 C10        -2.6443   -4.3293    0.0051 C.3       1 <0>        -0.0092
     12 N1         -4.0211   -4.8413    0.0160 N.4       1 <0>        -0.3830
     13 C11        -4.6726   -4.4620    1.2755 C.3       1 <0>        -0.0093
     14 C12        -6.1318   -4.9225    1.2582 C.3       1 <0>        -0.1330
     15 C13        -6.1791   -6.4445    1.0954 C.3       1 <0>         0.1746
     16 C14        -5.4322   -6.8346   -0.1834 C.3       1 <0>        -0.1706
     17 C15        -3.9990   -6.3033   -0.1127 C.3       1 <0>        -0.0017
     18 C16        -7.6135   -6.8966    0.9991 C.ar      1 <0>        -0.1262
     19 C17        -8.5661   -6.0599    0.4482 C.ar      1 <0>        -0.1006
     20 C18        -9.8818   -6.4740    0.3596 C.ar      1 <0>        -0.1039
     21 C19       -10.2453   -7.7262    0.8224 C.ar      1 <0>        -0.0247
     22 C20        -9.2914   -8.5631    1.3735 C.ar      1 <0>        -0.1016
     23 C21        -7.9750   -8.1501    1.4564 C.ar      1 <0>        -0.0934
     24 Cl1       -11.8977   -8.2468    0.7119 Cl        1 <0>        -0.0500
     25 O2         -5.5554   -7.0652    2.2213 O.3       1 <0>        -0.5474
     26 F1          3.5378    2.1141   -0.0204 F         1 <0>        -0.1258
     27 H1         -0.9587    1.9236    0.0260 H         1 <0>         0.1459
     28 H2          1.1551    3.1769    0.0077 H         1 <0>         0.1477
     29 H3          3.3506   -0.4883   -0.0334 H         1 <0>         0.1469
     30 H4          1.2482   -1.7608   -0.0213 H         1 <0>         0.1412
     31 H5         -0.7241   -2.6166   -0.8948 H         1 <0>         0.1127
     32 H6         -0.7064   -2.6261    0.8850 H         1 <0>         0.1127
     33 H7         -3.1796   -2.4493    0.9105 H         1 <0>         0.0952
     34 H8         -3.1973   -2.4398   -0.8693 H         1 <0>         0.0947
     35 H9         -2.1335   -4.6796   -0.8919 H         1 <0>         0.1333
     36 H10        -2.1158   -4.6891    0.8880 H         1 <0>         0.1327
     37 H11        -4.1530   -4.9339    2.1093 H         1 <0>         0.1388
     38 H12        -4.6353   -3.3788    1.3915 H         1 <0>         0.1356
     39 H13        -6.6132   -4.6415    2.1949 H         1 <0>         0.1238
     40 H14        -6.6524   -4.4509    0.4248 H         1 <0>         0.1045
     41 H15        -5.4137   -7.9204   -0.2771 H         1 <0>         0.1175
     42 H16        -5.9384   -6.4027   -1.0467 H         1 <0>         0.1009
     43 H17        -3.4644   -6.5795   -1.0215 H         1 <0>         0.1329
     44 H18        -3.4937   -6.7360    0.7507 H         1 <0>         0.1354
     45 H19        -8.2824   -5.0823    0.0874 H         1 <0>         0.1334
     46 H20       -10.6260   -5.8201   -0.0704 H         1 <0>         0.1408
     47 H21        -9.5746   -9.5405    1.7352 H         1 <0>         0.1414
     48 H22        -7.2294   -8.8051    1.8823 H         1 <0>         0.1323
     49 H23        -5.5495   -8.0314    2.1846 H         1 <0>         0.3907
     50 H24        -4.5327   -4.4442   -0.7578 H         1 <0>         0.4215
@<TRIPOS>BOND
     1    1    6 ar
     2    1    2 ar
     3    1   27 1
     4    2    3 ar
     5    2   28 1
     6    3    4 ar
     7    3   26 1
     8    4    5 ar
     9    4   29 1
    10    5    6 ar
    11    5   30 1
    12    6    7 1
    13    7    8 2
    14    7    9 1
    15    9   10 1
    16    9   31 1
    17    9   32 1
    18   10   11 1
    19   10   33 1
    20   10   34 1
    21   11   12 1
    22   11   35 1
    23   11   36 1
    24   12   17 1
    25   12   13 1
    26   12   50 1
    27   13   14 1
    28   13   37 1
    29   13   38 1
    30   14   15 1
    31   14   39 1
    32   14   40 1
    33   15   16 1
    34   15   18 1
    35   15   25 1
    36   16   17 1
    37   16   41 1
    38   16   42 1
    39   17   43 1
    40   17   44 1
    41   18   23 ar
    42   18   19 ar
    43   19   20 ar
    44   19   45 1
    45   20   21 ar
    46   20   46 1
    47   21   22 ar
    48   21   24 1
    49   22   23 ar
    50   22   47 1
    51   23   48 1
    52   25   49 1
@<TRIPOS>MOLECULE
ZINC00004778
   34    37     0     0     0
SMALL
USER_CHARGES

@<TRIPOS>ATOM
      1 C1         -0.0184    1.5028    0.0103 C.3       1 <0>        -0.1170
      2 C2          0.0021   -0.0041    0.0020 C.ar      1 <0>        -0.0498
      3 C3          0.0061   -0.7057   -1.1955 C.ar      1 <0>        -0.1576
      4 C4          0.0283   -2.0849   -1.1694 C.ar      1 <0>         0.1145
      5 N1          0.0626   -2.7397   -0.0244 N.ar      1 <0>        -0.4732
      6 C5          0.0689   -2.1114    1.1426 C.ar      1 <0>         0.3651
      7 C6          0.0231   -0.7203    1.1946 C.ar      1 <0>         0.0847
      8 N2         -0.0518   -0.0308    2.4019 N.am      1 <0>        -0.6434
      9 C7          0.6012   -0.3134    3.5189 C.2       1 <0>         0.5797
     10 O1          0.4191    0.4213    4.4703 O.2       1 <0>        -0.5252
     11 C8          1.5243   -1.4365    3.7064 C.ar      1 <0>        -0.1973
     12 C9          2.6915   -1.2661    4.4602 C.ar      1 <0>        -0.0031
     13 C10         3.5187   -2.3596    4.6485 C.ar      1 <0>        -0.1890
     14 C11         3.1697   -3.5793    4.0971 C.ar      1 <0>         0.1480
     15 N3          2.0727   -3.7148    3.3781 N.ar      1 <0>        -0.4947
     16 C12         1.2586   -2.6951    3.1469 C.ar      1 <0>         0.4141
     17 N4          0.1549   -2.8635    2.3146 N.pl3     1 <0>        -0.5559
     18 C13        -0.8987   -3.8222    2.6566 C.3       1 <0>         0.1033
     19 C14        -0.8469   -4.4633    4.0449 C.3       1 <0>        -0.1836
     20 C15        -0.4962   -5.2907    2.8065 C.3       1 <0>        -0.1801
     21 H1          1.0042    1.8801    0.0026 H         1 <0>         0.0838
     22 H2         -0.5455    1.8639   -0.8728 H         1 <0>         0.0825
     23 H3         -0.5286    1.8543    0.9071 H         1 <0>         0.0690
     24 H4         -0.0083   -0.1777   -2.1375 H         1 <0>         0.1473
     25 H5          0.0178   -2.6357   -2.0983 H         1 <0>         0.1670
     26 H6         -0.6440    0.7371    2.4274 H         1 <0>         0.4115
     27 H7          2.9407   -0.3046    4.8842 H         1 <0>         0.1493
     28 H8          4.4289   -2.2615    5.2215 H         1 <0>         0.1495
     29 H9          3.8074   -4.4359    4.2580 H         1 <0>         0.1684
     30 H10        -1.8818   -3.6102    2.2362 H         1 <0>         0.1278
     31 H11        -0.0288   -4.1719    4.7036 H         1 <0>         0.0916
     32 H12        -1.7960   -4.6732    4.5381 H         1 <0>         0.1036
     33 H13        -1.2145   -6.0448    2.4851 H         1 <0>         0.0972
     34 H14         0.5526   -5.5435    2.6506 H         1 <0>         0.1120
@<TRIPOS>BOND
     1    1    2 1
     2    1   21 1
     3    1   22 1
     4    1   23 1
     5    2    7 ar
     6    2    3 ar
     7    3    4 ar
     8    3   24 1
     9    4    5 ar
    10    4   25 1
    11    5    6 ar
    12    6   17 1
    13    6    7 ar
    14    7    8 1
    15    8    9 am
    16    8   26 1
    17    9   10 2
    18    9   11 1
    19   11   16 ar
    20   11   12 ar
    21   12   13 ar
    22   12   27 1
    23   13   14 ar
    24   13   28 1
    25   14   15 ar
    26   14   29 1
    27   15   16 ar
    28   16   17 1
    29   17   18 1
    30   18   20 1
    31   18   19 1
    32   18   30 1
    33   19   20 1
    34   19   31 1
    35   19   32 1
    36   20   33 1
    37   20   34 1
@<TRIPOS>MOLECULE
ZINC00006647
   31    32     0     0     0
SMALL
USER_CHARGES
[4-(2,6-dichlorophenyl)-1,2,5-thiadiazol-3-yl] (ethyl-methyl-amino)formate
@<TRIPOS>ATOM
      1 C1          0.3696    8.2680    2.0801 C.3       1 <0>        -0.1721
      2 C2          0.3866    7.8797    0.6003 C.3       1 <0>         0.1274
      3 N1          0.6043    6.4363    0.4766 N.am      1 <0>        -0.5900
      4 C3          1.9668    5.9068    0.3788 C.3       1 <0>         0.0770
      5 C4         -0.4488    5.5955    0.4529 C.2       1 <0>         0.6380
      6 O1         -1.5726    6.0243    0.6254 O.2       1 <0>        -0.5051
      7 O2         -0.2555    4.2802    0.2381 O.3       1 <0>        -0.2526
      8 C5         -1.3657    3.5056    0.1134 C.2       1 <0>         0.2822
      9 C6         -1.3114    2.1206   -0.0020 C.2       1 <0>         0.0738
     10 N2         -2.4600    1.4876   -0.1111 N.2       1 <0>        -0.4321
     11 S1         -3.5612    2.6134   -0.0752 S.3       1 <0>         0.5188
     12 N3         -2.5856    4.0024    0.0864 N.2       1 <0>        -0.4309
     13 C7         -0.0200    1.3908    0.0038 C.ar      1 <0>        -0.0053
     14 C8          0.9616    1.6975   -0.9380 C.ar      1 <0>         0.0016
     15 C9          2.1599    1.0101   -0.9314 C.ar      1 <0>        -0.1052
     16 C10         2.3873    0.0202    0.0074 C.ar      1 <0>        -0.0788
     17 C11         1.4177   -0.2885    0.9441 C.ar      1 <0>        -0.1059
     18 C12         0.2152    0.3914    0.9474 C.ar      1 <0>         0.0042
     19 Cl1        -1.0005    0.0029    2.1242 Cl        1 <0>        -0.0409
     20 Cl2         0.6780    2.9397   -2.1171 Cl        1 <0>        -0.0434
     21 H1          0.2076    9.3420    2.1721 H         1 <0>         0.0735
     22 H2         -0.4348    7.7345    2.5865 H         1 <0>         0.0619
     23 H3          1.3239    8.0042    2.5359 H         1 <0>         0.0587
     24 H4          1.1910    8.4132    0.0939 H         1 <0>         0.0901
     25 H5         -0.5677    8.1436    0.1444 H         1 <0>         0.0891
     26 H6          2.2942    5.9360   -0.6605 H         1 <0>         0.0638
     27 H7          2.6369    6.5133    0.9880 H         1 <0>         0.0789
     28 H8          1.9829    4.8771    0.7360 H         1 <0>         0.0784
     29 H9          2.9209    1.2467   -1.6603 H         1 <0>         0.1480
     30 H10         3.3259   -0.5141    0.0088 H         1 <0>         0.1491
     31 H11         1.6011   -1.0625    1.6746 H         1 <0>         0.1477
@<TRIPOS>BOND
     1    1    2 1
     2    1   21 1
     3    1   22 1
     4    1   23 1
     5    2    3 1
     6    2   24 1
     7    2   25 1
     8    3    4 1
     9    3    5 am
    10    4   26 1
    11    4   27 1
    12    4   28 1
    13    5    6 2
    14    5    7 1
    15    7    8 1
    16    8   12 2
    17    8    9 1
    18    9   10 2
    19    9   13 1
    20   10   11 1
    21   11   12 1
    22   13   18 ar
    23   13   14 ar
    24   14   15 ar
    25   14   20 1
    26   15   16 ar
    27   15   29 1
    28   16   17 ar
    29   16   30 1
    30   17   18 ar
    31   17   31 1
    32   18   19 1
@<TRIPOS>MOLECULE
ZINC03951740
   94    97     0     0     0
SMALL
USER_CHARGES

@<TRIPOS>ATOM
      1 C1         -0.1959    1.8362   -0.2414 C.3       1 <0>        -0.1115
      2 C2         -0.0544    0.3359   -0.2526 C.ar      1 <0>        -0.0928
      3 C3         -0.0515   -0.3493   -1.4521 C.ar      1 <0>        -0.1163
      4 C4          0.0782   -1.7258   -1.4630 C.ar      1 <0>        -0.1122
      5 C5          0.2054   -2.4200   -0.2741 C.ar      1 <0>        -0.1163
      6 C6          0.2031   -1.7395    0.9281 C.ar      1 <0>        -0.0944
      7 C7          0.0788   -0.3578    0.9415 C.ar      1 <0>         0.0858
      8 O1          0.0823    0.3145    2.1225 O.3       1 <0>        -0.2984
      9 C8         -1.1816    0.5160    2.7581 C.3       1 <0>         0.0453
     10 C9         -0.9815    1.2737    4.0453 C.2       1 <0>         0.5148
     11 O2          0.1337    1.6082    4.3850 O.2       1 <0>        -0.4841
     12 N1         -2.0418    1.5796    4.8190 N.am      1 <0>        -0.7270
     13 C10        -1.8472    2.3161    6.0704 C.3       1 <0>         0.1263
     14 H1         -0.9052    2.0133    6.5276 H         1 <0>         0.0990
     15 C11        -1.8129    3.8176    5.7784 C.3       1 <0>        -0.0879
     16 C12        -0.6055    4.1379    4.9354 C.ar      1 <0>        -0.0656
     17 C13         0.5953    4.4575    5.5411 C.ar      1 <0>        -0.1084
     18 C14         1.7028    4.7513    4.7678 C.ar      1 <0>        -0.1116
     19 C15         1.6097    4.7251    3.3888 C.ar      1 <0>        -0.1196
     20 C16         0.4091    4.4046    2.7831 C.ar      1 <0>        -0.1086
     21 C17        -0.6973    4.1066    3.5564 C.ar      1 <0>        -0.1116
     22 C18        -3.0007    2.0090    7.0276 C.3       1 <0>         0.1037
     23 H2         -2.8559    2.5570    7.9586 H         1 <0>         0.1163
     24 C19        -3.0350    0.5075    7.3196 C.3       1 <0>        -0.1599
     25 C20        -4.0599    0.2253    8.4200 C.3       1 <0>         0.1555
     26 H3         -3.8672    0.8774    9.2719 H         1 <0>         0.0980
     27 C21        -3.9465   -1.2357    8.8600 C.3       1 <0>        -0.0950
     28 C22        -4.8688   -1.4821   10.0261 C.ar      1 <0>        -0.0681
     29 C23        -4.4150   -1.2934   11.3181 C.ar      1 <0>        -0.1072
     30 C24        -5.2610   -1.5194   12.3877 C.ar      1 <0>        -0.1127
     31 C25        -6.5609   -1.9338   12.1653 C.ar      1 <0>        -0.1217
     32 C26        -7.0150   -2.1217   10.8732 C.ar      1 <0>        -0.1168
     33 C27        -6.1703   -1.8915    9.8034 C.ar      1 <0>        -0.1131
     34 N2         -5.4089    0.4776    7.9072 N.am      1 <0>        -0.7211
     35 C28        -6.3494    1.0049    8.7157 C.2       1 <0>         0.5182
     36 O3         -6.0580    1.3479    9.8419 O.2       1 <0>        -0.5005
     37 C29        -7.7633    1.1684    8.2204 C.3       1 <0>         0.1596
     38 H4         -8.1123    0.2252    7.8000 H         1 <0>         0.0983
     39 C30        -7.8038    2.2533    7.1424 C.3       1 <0>        -0.1046
     40 C31        -7.0532    1.7671    5.9010 C.3       1 <0>        -0.1666
     41 C32        -9.2584    2.5525    6.7743 C.3       1 <0>        -0.1363
     42 N3         -8.6299    1.5560    9.3362 N.am      1 <0>        -0.6050
     43 C33        -9.7107    0.6596    9.7497 C.3       1 <0>         0.1155
     44 C34        -9.9791    0.8523   11.2460 C.3       1 <0>        -0.1524
     45 C35       -10.2738    2.3342   11.5019 C.3       1 <0>         0.1110
     46 N4         -9.1624    3.1397   10.9933 N.am      1 <0>        -0.7409
     47 C36        -8.4133    2.7227    9.9618 C.2       1 <0>         0.7224
     48 O4         -7.5054    3.4328    9.5750 O.2       1 <0>        -0.5749
     49 O5         -4.2356    2.4061    6.4282 O.3       1 <0>        -0.5329
     50 C37         0.3417   -2.4968    2.2236 C.3       1 <0>        -0.1108
     51 H5          0.7914    2.2947   -0.2964 H         1 <0>         0.0752
     52 H6         -0.7912    2.1514   -1.0984 H         1 <0>         0.0668
     53 H7         -0.6904    2.1476    0.6787 H         1 <0>         0.0654
     54 H8         -0.1511    0.1907   -2.3821 H         1 <0>         0.1270
     55 H9          0.0799   -2.2597   -2.4018 H         1 <0>         0.1263
     56 H10         0.3063   -3.4953   -0.2852 H         1 <0>         0.1269
     57 H11        -1.8334    1.0878    2.0975 H         1 <0>         0.0792
     58 H12        -1.6387   -0.4500    2.9724 H         1 <0>         0.0789
     59 H13        -2.9337    1.3121    4.5474 H         1 <0>         0.3915
     60 H14        -2.7172    4.1041    5.2415 H         1 <0>         0.0810
     61 H15        -1.7574    4.3691    6.7169 H         1 <0>         0.0816
     62 H16         0.6680    4.4781    6.6184 H         1 <0>         0.1133
     63 H17         2.6408    5.0017    5.2410 H         1 <0>         0.1152
     64 H18         2.4748    4.9553    2.7847 H         1 <0>         0.1142
     65 H19         0.3363    4.3844    1.7058 H         1 <0>         0.1122
     66 H20        -1.6343    3.8525    3.0832 H         1 <0>         0.1060
     67 H21        -3.3152   -0.0322    6.4150 H         1 <0>         0.0718
     68 H22        -2.0492    0.1787    7.6483 H         1 <0>         0.0901
     69 H23        -4.2256   -1.8872    8.0320 H         1 <0>         0.0728
     70 H24        -2.9195   -1.4467    9.1581 H         1 <0>         0.0805
     71 H25        -3.3995   -0.9696   11.4919 H         1 <0>         0.1159
     72 H26        -4.9063   -1.3727   13.3972 H         1 <0>         0.1171
     73 H27        -7.2217   -2.1111   13.0010 H         1 <0>         0.1158
     74 H28        -8.0304   -2.4457   10.6994 H         1 <0>         0.1143
     75 H29        -6.5261   -2.0346    8.7938 H         1 <0>         0.1106
     76 H30        -5.6251    0.2651    6.9858 H         1 <0>         0.3930
     77 H31        -7.3311    3.1596    7.5211 H         1 <0>         0.1082
     78 H32        -7.5454    0.8796    5.5033 H         1 <0>         0.0511
     79 H33        -7.0539    2.5525    5.1452 H         1 <0>         0.0646
     80 H34        -6.0256    1.5228    6.1702 H         1 <0>         0.0767
     81 H35        -9.7693    2.9851    7.6345 H         1 <0>         0.0512
     82 H36        -9.2853    3.2574    5.9434 H         1 <0>         0.0562
     83 H37        -9.7569    1.6280    6.4828 H         1 <0>         0.0493
     84 H38       -10.6133    0.8925    9.1847 H         1 <0>         0.0648
     85 H39        -9.4188   -0.3737    9.5620 H         1 <0>         0.0769
     86 H40       -10.8383    0.2514   11.5442 H         1 <0>         0.0944
     87 H41        -9.1015    0.5497   11.8173 H         1 <0>         0.0796
     88 H42       -11.1931    2.6166   10.9888 H         1 <0>         0.0624
     89 H43       -10.3864    2.5036   12.5727 H         1 <0>         0.0805
     90 H44        -8.9611    3.9905   11.4134 H         1 <0>         0.4129
     91 H45        -4.4526    1.9243    5.6183 H         1 <0>         0.3594
     92 H46         1.3968   -2.5827    2.4832 H         1 <0>         0.0753
     93 H47        -0.1848   -1.9628    3.0147 H         1 <0>         0.0640
     94 H48        -0.0868   -3.4926    2.1100 H         1 <0>         0.0670
@<TRIPOS>BOND
     1    1    2 1
     2    1   51 1
     3    1   52 1
     4    1   53 1
     5    2    7 ar
     6    2    3 ar
     7    3    4 ar
     8    3   54 1
     9    4    5 ar
    10    4   55 1
    11    5    6 ar
    12    5   56 1
    13    6    7 ar
    14    6   50 1
    15    7    8 1
    16    8    9 1
    17    9   10 1
    18    9   57 1
    19    9   58 1
    20   10   11 2
    21   10   12 am
    22   12   13 1
    23   12   59 1
    24   13   14 1
    25   13   15 1
    26   13   22 1
    27   15   16 1
    28   15   60 1
    29   15   61 1
    30   16   21 ar
    31   16   17 ar
    32   17   18 ar
    33   17   62 1
    34   18   19 ar
    35   18   63 1
    36   19   20 ar
    37   19   64 1
    38   20   21 ar
    39   20   65 1
    40   21   66 1
    41   22   23 1
    42   22   24 1
    43   22   49 1
    44   24   25 1
    45   24   67 1
    46   24   68 1
    47   25   26 1
    48   25   27 1
    49   25   34 1
    50   27   28 1
    51   27   69 1
    52   27   70 1
    53   28   33 ar
    54   28   29 ar
    55   29   30 ar
    56   29   71 1
    57   30   31 ar
    58   30   72 1
    59   31   32 ar
    60   31   73 1
    61   32   33 ar
    62   32   74 1
    63   33   75 1
    64   34   35 am
    65   34   76 1
    66   35   36 2
    67   35   37 1
    68   37   38 1
    69   37   39 1
    70   37   42 1
    71   39   40 1
    72   39   41 1
    73   39   77 1
    74   40   78 1
    75   40   79 1
    76   40   80 1
    77   41   81 1
    78   41   82 1
    79   41   83 1
    80   42   47 am
    81   42   43 1
    82   43   44 1
    83   43   84 1
    84   43   85 1
    85   44   45 1
    86   44   86 1
    87   44   87 1
    88   45   46 1
    89   45   88 1
    90   45   89 1
    91   46   47 am
    92   46   90 1
    93   47   48 2
    94   49   91 1
    95   50   92 1
    96   50   93 1
    97   50   94 1
@<TRIPOS>MOLECULE
ZINC03860156
   35    37     0     0     0
SMALL
USER_CHARGES

@<TRIPOS>ATOM
      1 C1         -0.0158    1.3119    0.0093 C.ar      1 <0>         0.3495
      2 N1          1.0888    2.0360    0.0026 N.ar      1 <0>        -0.5972
      3 C2          2.2875    1.4625   -0.0119 C.ar      1 <0>         0.5031
      4 C3          2.3582    0.0588   -0.0202 C.ar      1 <0>        -0.1045
      5 C4          1.1547   -0.6659   -0.0126 C.ar      1 <0>         0.3051
      6 N2          0.0021   -0.0041    0.0020 N.ar      1 <0>        -0.5415
      7 N3          1.5110   -1.9908   -0.0227 N.pl3     1 <0>        -0.4631
      8 C5          2.8729   -2.0476   -0.0358 C.2       1 <0>         0.2823
      9 N4          3.3680   -0.8441   -0.0343 N.2       1 <0>        -0.4721
     10 C6          0.5956   -3.1347   -0.0195 C.3       1 <0>         0.3051
     11 H1         -0.2832   -2.9148    0.5866 H         1 <0>         0.1193
     12 C7          0.1775   -3.4928   -1.4629 C.3       1 <0>         0.0373
     13 H2          0.9267   -3.1463   -2.1747 H         1 <0>         0.0793
     14 C8          0.1056   -5.0362   -1.4608 C.3       1 <0>         0.0465
     15 H3          0.8193   -5.4528   -2.1716 H         1 <0>         0.0902
     16 C9          0.4888   -5.4280   -0.0165 C.3       1 <0>         0.0898
     17 H4         -0.4066   -5.5617    0.5906 H         1 <0>         0.0982
     18 O1          1.2661   -4.3138    0.4763 O.3       1 <0>        -0.3330
     19 C10         1.3272   -6.7078   -0.0164 C.3       1 <0>         0.1401
     20 O2          1.5723   -7.1166    1.3308 O.3       1 <0>        -0.7498
     21 P1          2.4256   -8.4288    1.7075 P.3       1 <0>         2.1254
     22 O3          1.8087   -9.6769    0.9891 O.2       1 <0>        -1.1870
     23 O4          3.9092   -8.2385    1.2417 O.3       1 <0>        -1.1843
     24 O5          2.3892   -8.6480    3.2583 O.3       1 <0>        -1.1648
     25 O6         -1.2191   -5.4762   -1.7672 O.3       1 <0>        -0.5321
     26 O7         -1.0998   -2.9297   -1.7685 O.3       1 <0>        -0.5309
     27 N5          3.4393    2.2295   -0.0193 N.pl3     1 <0>        -0.8229
     28 H5         -0.9693    1.8187    0.0257 H         1 <0>         0.2009
     29 H6          3.4551   -2.9572   -0.0459 H         1 <0>         0.2313
     30 H7          0.7880   -7.4954   -0.5427 H         1 <0>         0.0627
     31 H8          2.2767   -6.5201   -0.5176 H         1 <0>         0.0452
     32 H9         -1.5313   -5.2049   -2.6412 H         1 <0>         0.3714
     33 H10        -1.4113   -3.1237   -2.6632 H         1 <0>         0.3765
     34 H11         3.3774    3.1975   -0.0138 H         1 <0>         0.4060
     35 H12         4.3085    1.7992   -0.0299 H         1 <0>         0.4181
@<TRIPOS>BOND
     1    1    6 ar
     2    1    2 ar
     3    1   28 1
     4    2    3 ar
     5    3    4 ar
     6    3   27 1
     7    4    9 1
     8    4    5 ar
     9    5    6 ar
    10    5    7 1
    11    7    8 1
    12    7   10 1
    13    8    9 2
    14    8   29 1
    15   10   11 1
    16   10   18 1
    17   10   12 1
    18   12   13 1
    19   12   14 1
    20   12   26 1
    21   14   15 1
    22   14   16 1
    23   14   25 1
    24   16   17 1
    25   16   18 1
    26   16   19 1
    27   19   20 1
    28   19   30 1
    29   19   31 1
    30   20   21 1
    31   21   22 2
    32   21   23 1
    33   21   24 1
    34   25   32 1
    35   26   33 1
    36   27   34 1
    37   27   35 1
@<TRIPOS>MOLECULE
ZINC03860156
   36    38     0     0     0
SMALL
USER_CHARGES

@<TRIPOS>ATOM
      1 C1         -0.0158    1.3119    0.0093 C.ar      1 <0>         0.3576
      2 N1          1.0888    2.0360    0.0026 N.ar      1 <0>        -0.5943
      3 C2          2.2875    1.4625   -0.0119 C.ar      1 <0>         0.5063
      4 C3          2.3582    0.0588   -0.0202 C.ar      1 <0>        -0.1070
      5 C4          1.1547   -0.6659   -0.0126 C.ar      1 <0>         0.3090
      6 N2          0.0021   -0.0041    0.0020 N.ar      1 <0>        -0.5459
      7 N3          1.5110   -1.9908   -0.0227 N.pl3     1 <0>        -0.4678
      8 C5          2.8729   -2.0476   -0.0358 C.2       1 <0>         0.2728
      9 N4          3.3680   -0.8441   -0.0343 N.2       1 <0>        -0.4661
     10 C6          0.5956   -3.1347   -0.0195 C.3       1 <0>         0.3106
     11 H1         -0.2832   -2.9148    0.5866 H         1 <0>         0.1217
     12 C7          0.1775   -3.4928   -1.4629 C.3       1 <0>         0.0369
     13 H2          0.9267   -3.1463   -2.1747 H         1 <0>         0.0829
     14 C8          0.1056   -5.0362   -1.4608 C.3       1 <0>         0.0468
     15 H3          0.8193   -5.4528   -2.1716 H         1 <0>         0.0920
     16 C9          0.4888   -5.4280   -0.0165 C.3       1 <0>         0.0876
     17 H4         -0.4066   -5.5617    0.5906 H         1 <0>         0.1032
     18 O1          1.2661   -4.3138    0.4763 O.3       1 <0>        -0.3404
     19 C10         1.3272   -6.7078   -0.0164 C.3       1 <0>         0.1463
     20 O2          1.5723   -7.1166    1.3308 O.3       1 <0>        -0.7534
     21 P1          2.4256   -8.4288    1.7075 P.3       1 <0>         2.2117
     22 O3          3.8133   -8.3520    1.0326 O.2       1 <0>        -1.1063
     23 O4          2.6094   -8.5091    3.3050 O.3       1 <0>        -0.8963
     24 O5          1.6804   -9.6878    1.2109 O.3       1 <0>        -1.1050
     25 O6         -1.2191   -5.4762   -1.7672 O.3       1 <0>        -0.5339
     26 O7         -1.0998   -2.9297   -1.7685 O.3       1 <0>        -0.5288
     27 N5          3.4393    2.2295   -0.0193 N.pl3     1 <0>        -0.8200
     28 H5         -0.9693    1.8187    0.0257 H         1 <0>         0.2035
     29 H6          3.4551   -2.9572   -0.0459 H         1 <0>         0.2281
     30 H7          0.7880   -7.4954   -0.5427 H         1 <0>         0.0791
     31 H8          2.2767   -6.5201   -0.5176 H         1 <0>         0.0672
     32 H9         -1.5313   -5.2049   -2.6412 H         1 <0>         0.3790
     33 H10        -1.4113   -3.1237   -2.6632 H         1 <0>         0.3804
     34 H11         3.3774    3.1975   -0.0138 H         1 <0>         0.4086
     35 H12         4.3085    1.7992   -0.0299 H         1 <0>         0.4187
     36 H13         3.1153   -9.2769    3.6046 H         1 <0>         0.4152
@<TRIPOS>BOND
     1    1    6 ar
     2    1    2 ar
     3    1   28 1
     4    2    3 ar
     5    3    4 ar
     6    3   27 1
     7    4    9 1
     8    4    5 ar
     9    5    6 ar
    10    5    7 1
    11    7    8 1
    12    7   10 1
    13    8    9 2
    14    8   29 1
    15   10   11 1
    16   10   18 1
    17   10   12 1
    18   12   13 1
    19   12   14 1
    20   12   26 1
    21   14   15 1
    22   14   16 1
    23   14   25 1
    24   16   17 1
    25   16   18 1
    26   16   19 1
    27   19   20 1
    28   19   30 1
    29   19   31 1
    30   20   21 1
    31   21   22 2
    32   21   23 1
    33   21   24 1
    34   23   36 1
    35   25   32 1
    36   26   33 1
    37   27   34 1
    38   27   35 1
@<TRIPOS>MOLECULE
ZINC00642079
   53    56     0     0     0
SMALL
USER_CHARGES
3-[3-[(2R,4aR,8aR)-decalin-2-yl]propyl]-4-hydroxy-naphthalene-1,2-dione
@<TRIPOS>ATOM
      1 C1          2.3847    1.4159   -0.0122 C.ar      1 <0>        -0.1041
      2 C2          1.1777    2.0889    0.0020 C.ar      1 <0>        -0.1353
      3 C3         -0.0168    1.3856    0.0097 C.ar      1 <0>        -0.0743
      4 C4          0.0021   -0.0041    0.0020 C.ar      1 <0>        -0.1504
      5 C5          1.2306   -0.6928   -0.0134 C.ar      1 <0>        -0.0397
      6 C6          2.4198    0.0307   -0.0204 C.ar      1 <0>        -0.0928
      7 C7          1.2492   -2.1658   -0.0223 C.2       1 <0>         0.3376
      8 C8          0.0998   -2.8920   -0.0153 C.2       1 <0>        -0.4522
      9 C9         -1.1609   -2.2765   -0.0000 C.2       1 <0>         0.3548
     10 O1         -2.1721   -2.9530    0.0051 O.3       1 <0>        -0.5074
     11 C10        -1.2546   -0.7826    0.0093 C.2       1 <0>         0.3618
     12 O2         -2.3324   -0.2259    0.0229 O.2       1 <0>        -0.4327
     13 C11         0.1820   -4.3967   -0.0246 C.3       1 <0>        -0.0085
     14 C12         0.0977   -4.9210    1.4104 C.3       1 <0>        -0.1056
     15 C13         0.1813   -6.4486    1.4009 C.3       1 <0>        -0.1121
     16 C14         0.0970   -6.9729    2.8359 C.3       1 <0>        -0.0842
     17 H1         -0.8149   -6.5865    3.3146 H         1 <0>         0.0652
     18 C15         1.3231   -6.5053    3.6225 C.3       1 <0>        -0.1157
     19 C16         1.2388   -7.0295    5.0574 C.3       1 <0>        -0.1144
     20 C17         1.1968   -8.5589    5.0400 C.3       1 <0>        -0.0795
     21 H2          2.1087   -8.9454    4.5614 H         1 <0>         0.0672
     22 C18         1.1125   -9.0831    6.4749 C.3       1 <0>        -0.1156
     23 C19         1.0704  -10.6124    6.4576 C.3       1 <0>        -0.1192
     24 C20        -0.1557  -11.0800    5.6709 C.3       1 <0>        -0.1194
     25 C21        -0.0714  -10.5557    4.2360 C.3       1 <0>        -0.1152
     26 C22        -0.0294   -9.0264    4.2534 C.3       1 <0>        -0.0801
     27 H3         -0.9413   -8.6399    4.7320 H         1 <0>         0.0670
     28 C23         0.0549   -8.5022    2.8185 C.3       1 <0>        -0.1086
     29 O3          2.4362   -2.8101   -0.0379 O.2       1 <0>        -0.6460
     30 H4          3.3089    1.9747   -0.0177 H         1 <0>         0.1238
     31 H5          1.1650    3.1689    0.0076 H         1 <0>         0.1239
     32 H6         -0.9580    1.9152    0.0170 H         1 <0>         0.1300
     33 H7          3.3678   -0.4866   -0.0319 H         1 <0>         0.1379
     34 H8          1.1364   -4.7090   -0.4736 H         1 <0>         0.0560
     35 H9         -0.6518   -4.8058   -0.6141 H         1 <0>         0.0387
     36 H10         0.9314   -4.5118    1.9998 H         1 <0>         0.0558
     37 H11        -0.8567   -4.6088    1.8594 H         1 <0>         0.0484
     38 H12        -0.6524   -6.8578    0.8114 H         1 <0>         0.0544
     39 H13         1.1357   -6.7608    0.9519 H         1 <0>         0.0561
     40 H14         2.2350   -6.8918    3.1439 H         1 <0>         0.0593
     41 H15         1.3533   -5.4058    3.6350 H         1 <0>         0.0685
     42 H16         2.1203   -6.6933    5.6230 H         1 <0>         0.0573
     43 H17         0.3269   -6.6431    5.5360 H         1 <0>         0.0588
     44 H18         1.9941   -8.7470    7.0404 H         1 <0>         0.0589
     45 H19         0.2006   -8.6966    6.9535 H         1 <0>         0.0599
     46 H20         1.9824  -10.9989    5.9791 H         1 <0>         0.0597
     47 H21         1.0097  -10.9893    7.4893 H         1 <0>         0.0569
     48 H22        -0.1858  -12.1795    5.6584 H         1 <0>         0.0571
     49 H23        -1.0677  -10.6937    6.1495 H         1 <0>         0.0597
     50 H24         0.8406  -10.9421    3.7574 H         1 <0>         0.0600
     51 H25        -0.9529  -10.8919    3.6704 H         1 <0>         0.0597
     52 H26        -0.8267   -8.8383    2.2529 H         1 <0>         0.0588
     53 H27         0.9668   -8.8887    2.3399 H         1 <0>         0.0593
@<TRIPOS>BOND
     1    1    6 ar
     2    1    2 ar
     3    1   30 1
     4    2    3 ar
     5    2   31 1
     6    3    4 ar
     7    3   32 1
     8    4   11 1
     9    4    5 ar
    10    5    6 ar
    11    5    7 1
    12    6   33 1
    13    7    8 1
    14    7   29 2
    15    8    9 2
    16    8   13 1
    17    9   10 1
    18    9   11 1
    19   11   12 2
    20   13   14 1
    21   13   34 1
    22   13   35 1
    23   14   15 1
    24   14   36 1
    25   14   37 1
    26   15   16 1
    27   15   38 1
    28   15   39 1
    29   16   17 1
    30   16   28 1
    31   16   18 1
    32   18   19 1
    33   18   40 1
    34   18   41 1
    35   19   20 1
    36   19   42 1
    37   19   43 1
    38   20   21 1
    39   20   26 1
    40   20   22 1
    41   22   23 1
    42   22   44 1
    43   22   45 1
    44   23   24 1
    45   23   46 1
    46   23   47 1
    47   24   25 1
    48   24   48 1
    49   24   49 1
    50   25   26 1
    51   25   50 1
    52   25   51 1
    53   26   27 1
    54   26   28 1
    55   28   52 1
    56   28   53 1
@<TRIPOS>MOLECULE
ZINC00642079
   54    57     0     0     0
SMALL
USER_CHARGES
2-(3-decalin-2-ylpropyl)-3-hydroxy-naphthalene-1,4-dione
@<TRIPOS>ATOM
      1 C1          2.3847    1.4199   -0.0131 C.ar      1 <0>        -0.0904
      2 C2          1.1769    2.0904    0.0020 C.ar      1 <0>        -0.0931
      3 C3         -0.0168    1.3860    0.0097 C.ar      1 <0>        -0.0574
      4 C4          0.0021   -0.0041    0.0020 C.ar      1 <0>        -0.1310
      5 C5          1.2315   -0.6863   -0.0134 C.ar      1 <0>        -0.1302
      6 C6          2.4191    0.0337   -0.0208 C.ar      1 <0>        -0.0589
      7 C7          1.2428   -2.1666   -0.0219 C.2       1 <0>         0.4181
      8 O1          2.3001   -2.7669   -0.0356 O.2       1 <0>        -0.4132
      9 C8         -0.0216   -2.9080   -0.0144 C.3       1 <0>        -0.1638
     10 C9         -1.2048   -2.2604    0.0008 C.2       1 <0>         0.2955
     11 C10        -1.2568   -0.7792    0.0094 C.2       1 <0>         0.3769
     12 O2         -2.3271   -0.2057    0.0231 O.2       1 <0>        -0.3655
     13 O3         -2.3567   -2.9707    0.0080 O.2       1 <0>        -0.4460
     14 C11         0.0006   -4.4148   -0.0233 C.3       1 <0>        -0.0862
     15 C12         0.1204   -4.9146   -1.4643 C.3       1 <0>        -0.1288
     16 C13         0.1430   -6.4444   -1.4734 C.3       1 <0>        -0.1107
     17 C14         0.2628   -6.9443   -2.9144 C.3       1 <0>        -0.0861
     18 H1          1.1375   -6.4939   -3.3837 H         1 <0>         0.0689
     19 C15        -0.9932   -6.5534   -3.6959 C.3       1 <0>        -0.1160
     20 C16        -0.8734   -7.0532   -5.1370 C.3       1 <0>        -0.1154
     21 C17        -0.7255   -8.5760   -5.1380 C.3       1 <0>        -0.0806
     22 H2         -1.6002   -9.0263   -4.6688 H         1 <0>         0.0687
     23 C18        -0.6057   -9.0758   -6.5791 C.3       1 <0>        -0.1155
     24 C19        -0.4577  -10.5986   -6.5801 C.3       1 <0>        -0.1203
     25 C20         0.7983  -10.9895   -5.7986 C.3       1 <0>        -0.1201
     26 C21         0.6785  -10.4897   -4.3575 C.3       1 <0>        -0.1151
     27 C22         0.5305   -8.9669   -4.3565 C.3       1 <0>        -0.0801
     28 H3          1.4052   -8.5166   -4.8258 H         1 <0>         0.0680
     29 C23         0.4107   -8.4671   -2.9154 C.3       1 <0>        -0.1091
     30 H4          3.3086    1.9792   -0.0192 H         1 <0>         0.1439
     31 H5          1.1627    3.1703    0.0076 H         1 <0>         0.1441
     32 H6         -0.9582    1.9152    0.0170 H         1 <0>         0.1484
     33 H7          3.3666   -0.4845   -0.0330 H         1 <0>         0.1492
     34 H8         -0.0355   -2.5693   -0.9552 H         1 <0>         0.1375
     35 H9          0.8532   -4.7690    0.5562 H         1 <0>         0.0959
     36 H10        -0.9212   -4.7944    0.4175 H         1 <0>         0.1005
     37 H11        -0.7321   -4.5604   -2.0438 H         1 <0>         0.0663
     38 H12         1.0422   -4.5351   -1.9051 H         1 <0>         0.0654
     39 H13         0.9955   -6.7987   -0.8939 H         1 <0>         0.0676
     40 H14        -0.7788   -6.8240   -1.0326 H         1 <0>         0.0674
     41 H15        -1.8679   -7.0037   -3.2267 H         1 <0>         0.0627
     42 H16        -1.0986   -5.4685   -3.6952 H         1 <0>         0.0602
     43 H17        -1.7682   -6.7747   -5.6937 H         1 <0>         0.0606
     44 H18         0.0013   -6.6028   -5.6062 H         1 <0>         0.0600
     45 H19        -1.5004   -8.7973   -7.1358 H         1 <0>         0.0603
     46 H20         0.2691   -8.6255   -7.0483 H         1 <0>         0.0604
     47 H21        -0.3724  -10.9547   -7.6067 H         1 <0>         0.0600
     48 H22        -1.3324  -11.0490   -6.1108 H         1 <0>         0.0606
     49 H23         1.6730  -10.5392   -6.2679 H         1 <0>         0.0603
     50 H24         0.9037  -12.0744   -5.7993 H         1 <0>         0.0602
     51 H25         1.5732  -10.7682   -3.8008 H         1 <0>         0.0608
     52 H26        -0.1963  -10.9401   -3.8883 H         1 <0>         0.0610
     53 H27         1.3055   -8.7456   -2.3587 H         1 <0>         0.0621
     54 H28        -0.4640   -8.9174   -2.4462 H         1 <0>         0.0624
@<TRIPOS>BOND
     1    1    6 ar
     2    1    2 ar
     3    1   30 1
     4    2    3 ar
     5    2   31 1
     6    3    4 ar
     7    3   32 1
     8    4   11 1
     9    4    5 ar
    10    5    6 ar
    11    5    7 1
    12    6   33 1
    13    7    9 1
    14    7    8 2
    15    9   34 1
    16    9   14 1
    17    9   10 1
    18   10   11 1
    19   10   13 2
    20   11   12 2
    21   14   15 1
    22   14   35 1
    23   14   36 1
    24   15   16 1
    25   15   37 1
    26   15   38 1
    27   16   17 1
    28   16   39 1
    29   16   40 1
    30   17   18 1
    31   17   29 1
    32   17   19 1
    33   19   20 1
    34   19   41 1
    35   19   42 1
    36   20   21 1
    37   20   43 1
    38   20   44 1
    39   21   22 1
    40   21   27 1
    41   21   23 1
    42   23   24 1
    43   23   45 1
    44   23   46 1
    45   24   25 1
    46   24   47 1
    47   24   48 1
    48   25   26 1
    49   25   49 1
    50   25   50 1
    51   26   27 1
    52   26   51 1
    53   26   52 1
    54   27   28 1
    55   27   29 1
    56   29   53 1
    57   29   54 1
@<TRIPOS>MOLECULE
ZINC00642085
   53    56     0     0     0
SMALL
USER_CHARGES
3-[3-[(2R,4aS,8aR)-decalin-2-yl]propyl]-4-hydroxy-naphthalene-1,2-dione
@<TRIPOS>ATOM
      1 C1          2.3847    1.4159   -0.0122 C.ar      1 <0>        -0.1041
      2 C2          1.1777    2.0889    0.0020 C.ar      1 <0>        -0.1353
      3 C3         -0.0168    1.3856    0.0097 C.ar      1 <0>        -0.0743
      4 C4          0.0021   -0.0041    0.0020 C.ar      1 <0>        -0.1504
      5 C5          1.2306   -0.6928   -0.0134 C.ar      1 <0>        -0.0397
      6 C6          2.4198    0.0307   -0.0204 C.ar      1 <0>        -0.0928
      7 C7          1.2492   -2.1658   -0.0214 C.2       1 <0>         0.3377
      8 C8          0.0998   -2.8920   -0.0153 C.2       1 <0>        -0.4522
      9 C9         -1.1609   -2.2765   -0.0000 C.2       1 <0>         0.3549
     10 O1         -2.1721   -2.9530    0.0051 O.3       1 <0>        -0.5075
     11 C10        -1.2546   -0.7826    0.0093 C.2       1 <0>         0.3617
     12 O2         -2.3324   -0.2259    0.0229 O.2       1 <0>        -0.4327
     13 C11         0.1820   -4.3967   -0.0246 C.3       1 <0>        -0.0083
     14 C12         0.0977   -4.9210    1.4104 C.3       1 <0>        -0.1055
     15 C13         0.1813   -6.4486    1.4009 C.3       1 <0>        -0.1117
     16 C14         0.0970   -6.9729    2.8359 C.3       1 <0>        -0.0841
     17 H1         -0.8149   -6.5865    3.3146 H         1 <0>         0.0644
     18 C15         1.3231   -6.5053    3.6225 C.3       1 <0>        -0.1170
     19 C16         1.2388   -7.0295    5.0574 C.3       1 <0>        -0.1152
     20 C17         1.1968   -8.5589    5.0400 C.3       1 <0>        -0.0779
     21 H2          1.1363   -8.9359    6.0716 H         1 <0>         0.0617
     22 C18         2.4652   -9.0964    4.3744 C.3       1 <0>        -0.1201
     23 C19         2.4231  -10.6257    4.3570 C.3       1 <0>        -0.1180
     24 C20         1.1970  -11.0933    3.5703 C.3       1 <0>        -0.1223
     25 C21        -0.0714  -10.5557    4.2360 C.3       1 <0>        -0.1138
     26 C22        -0.0294   -9.0264    4.2534 C.3       1 <0>        -0.0814
     27 H3         -0.9413   -8.6399    4.7320 H         1 <0>         0.0660
     28 C23         0.0549   -8.5022    2.8185 C.3       1 <0>        -0.1110
     29 O3          2.4363   -2.8101   -0.0362 O.2       1 <0>        -0.6461
     30 H4          3.3089    1.9747   -0.0177 H         1 <0>         0.1238
     31 H5          1.1650    3.1689    0.0076 H         1 <0>         0.1240
     32 H6         -0.9580    1.9152    0.0170 H         1 <0>         0.1300
     33 H7          3.3678   -0.4866   -0.0319 H         1 <0>         0.1379
     34 H8          1.1364   -4.7090   -0.4736 H         1 <0>         0.0559
     35 H9         -0.6518   -4.8058   -0.6141 H         1 <0>         0.0386
     36 H10         0.9314   -4.5118    1.9998 H         1 <0>         0.0558
     37 H11        -0.8567   -4.6088    1.8594 H         1 <0>         0.0483
     38 H12        -0.6524   -6.8578    0.8114 H         1 <0>         0.0541
     39 H13         1.1357   -6.7608    0.9519 H         1 <0>         0.0556
     40 H14         2.2350   -6.8918    3.1439 H         1 <0>         0.0627
     41 H15         1.3533   -5.4058    3.6350 H         1 <0>         0.0671
     42 H16         2.1203   -6.6933    5.6230 H         1 <0>         0.0573
     43 H17         0.3269   -6.6431    5.5360 H         1 <0>         0.0586
     44 H18         2.5258   -8.7195    3.3428 H         1 <0>         0.0729
     45 H19         3.3467   -8.7602    4.9400 H         1 <0>         0.0571
     46 H20         3.3350  -11.0122    3.8785 H         1 <0>         0.0573
     47 H21         2.3624  -11.0026    5.3886 H         1 <0>         0.0564
     48 H22         1.2577  -10.7164    2.5387 H         1 <0>         0.0666
     49 H23         1.1668  -12.1928    3.5578 H         1 <0>         0.0552
     50 H24        -0.9530  -10.8919    3.6705 H         1 <0>         0.0592
     51 H25        -0.1320  -10.9326    5.2676 H         1 <0>         0.0569
     52 H26        -0.8267   -8.8383    2.2529 H         1 <0>         0.0569
     53 H27         0.9668   -8.8887    2.3399 H         1 <0>         0.0668
@<TRIPOS>BOND
     1    1    6 ar
     2    1    2 ar
     3    1   30 1
     4    2    3 ar
     5    2   31 1
     6    3    4 ar
     7    3   32 1
     8    4   11 1
     9    4    5 ar
    10    5    6 ar
    11    5    7 1
    12    6   33 1
    13    7    8 1
    14    7   29 2
    15    8    9 2
    16    8   13 1
    17    9   10 1
    18    9   11 1
    19   11   12 2
    20   13   14 1
    21   13   34 1
    22   13   35 1
    23   14   15 1
    24   14   36 1
    25   14   37 1
    26   15   16 1
    27   15   38 1
    28   15   39 1
    29   16   17 1
    30   16   28 1
    31   16   18 1
    32   18   19 1
    33   18   40 1
    34   18   41 1
    35   19   20 1
    36   19   42 1
    37   19   43 1
    38   20   21 1
    39   20   26 1
    40   20   22 1
    41   22   23 1
    42   22   44 1
    43   22   45 1
    44   23   24 1
    45   23   46 1
    46   23   47 1
    47   24   25 1
    48   24   48 1
    49   24   49 1
    50   25   26 1
    51   25   50 1
    52   25   51 1
    53   26   27 1
    54   26   28 1
    55   28   52 1
    56   28   53 1
@<TRIPOS>MOLECULE
ZINC00642085
   54    57     0     0     0
SMALL
USER_CHARGES
2-(3-decalin-2-ylpropyl)-3-hydroxy-naphthalene-1,4-dione
@<TRIPOS>ATOM
      1 C1          6.2686    2.4868   -0.0439 C.ar      1 <0>        -0.0904
      2 C2          6.1596    1.1095   -0.0493 C.ar      1 <0>        -0.0931
      3 C3          4.9128    0.5042   -0.0407 C.ar      1 <0>        -0.0574
      4 C4          3.7649    1.2884   -0.0260 C.ar      1 <0>        -0.1310
      5 C5          3.8762    2.6901   -0.0200 C.ar      1 <0>        -0.1301
      6 C6          5.1326    3.2817   -0.0283 C.ar      1 <0>        -0.0590
      7 C7          2.6490    3.5179   -0.0043 C.2       1 <0>         0.4180
      8 O1          2.7333    4.7309    0.0005 O.2       1 <0>        -0.4131
      9 C8          1.3322    2.8741    0.0048 C.3       1 <0>        -0.1637
     10 C9          1.2176    1.5300   -0.0014 C.2       1 <0>         0.2956
     11 C10         2.4231    0.6679   -0.0113 C.2       1 <0>         0.3767
     12 O2          2.3093   -0.5411   -0.0117 O.2       1 <0>        -0.3655
     13 O3         -0.0110    0.9628    0.0073 O.2       1 <0>        -0.4460
     14 C11         0.0889    3.7257    0.0207 C.3       1 <0>        -0.0862
     15 C12        -0.2476    4.1099    1.4629 C.3       1 <0>        -0.1287
     16 C13        -1.5098    4.9744    1.4791 C.3       1 <0>        -0.1105
     17 C14        -1.8463    5.3587    2.9213 C.3       1 <0>        -0.0860
     18 H1         -0.9831    5.8413    3.3797 H         1 <0>         0.0681
     19 C15        -2.2074    4.1004    3.7134 C.3       1 <0>        -0.1176
     20 C16        -2.5439    4.4846    5.1556 C.3       1 <0>        -0.1156
     21 C17        -3.7311    5.4498    5.1625 C.3       1 <0>        -0.0807
     22 H2         -3.9708    5.7235    6.1900 H         1 <0>         0.0666
     23 C18        -4.9428    4.7724    4.5192 C.3       1 <0>        -0.1179
     24 C19        -6.1299    5.7375    4.5261 C.3       1 <0>        -0.1200
     25 C20        -5.7689    6.9958    3.7341 C.3       1 <0>        -0.1216
     26 C21        -4.5572    7.6732    4.3774 C.3       1 <0>        -0.1151
     27 C22        -3.3700    6.7081    4.3705 C.3       1 <0>        -0.0807
     28 H3         -2.5068    7.1906    4.8288 H         1 <0>         0.0669
     29 C23        -3.0335    6.3238    2.9282 C.3       1 <0>        -0.1115
     30 H4          7.2454    2.9474   -0.0511 H         1 <0>         0.1439
     31 H5          7.0515    0.5007   -0.0608 H         1 <0>         0.1441
     32 H6          4.8332   -0.5729   -0.0457 H         1 <0>         0.1484
     33 H7          5.2246    4.3578   -0.0238 H         1 <0>         0.1492
     34 H8          1.6159    2.6809    0.9440 H         1 <0>         0.1374
     35 H9          0.2595    4.6286   -0.5655 H         1 <0>         0.0958
     36 H10        -0.7411    3.1649   -0.4090 H         1 <0>         0.1004
     37 H11        -0.4181    3.2069    2.0492 H         1 <0>         0.0663
     38 H12         0.5825    4.6707    1.8927 H         1 <0>         0.0653
     39 H13        -1.3392    5.8774    0.8929 H         1 <0>         0.0674
     40 H14        -2.3398    4.4137    1.0494 H         1 <0>         0.0669
     41 H15        -3.0706    3.6178    3.2551 H         1 <0>         0.0661
     42 H16        -1.3616    3.4128    3.7085 H         1 <0>         0.0588
     43 H17        -2.8011    3.5882    5.7198 H         1 <0>         0.0605
     44 H18        -1.6807    4.9672    5.6139 H         1 <0>         0.0598
     45 H19        -4.7030    4.4987    3.4917 H         1 <0>         0.0688
     46 H20        -5.2000    3.8760    5.0834 H         1 <0>         0.0583
     47 H21        -6.9932    5.2550    4.0678 H         1 <0>         0.0595
     48 H22        -6.3697    6.0113    5.5535 H         1 <0>         0.0592
     49 H23        -5.5291    6.7221    2.7066 H         1 <0>         0.0642
     50 H24        -6.6146    7.6834    3.7390 H         1 <0>         0.0586
     51 H25        -4.3000    8.5696    3.8131 H         1 <0>         0.0607
     52 H26        -4.7969    7.9469    5.4048 H         1 <0>         0.0603
     53 H27        -2.7763    7.2202    2.3640 H         1 <0>         0.0602
     54 H28        -3.8967    5.8412    2.4699 H         1 <0>         0.0697
@<TRIPOS>BOND
     1    1    6 ar
     2    1    2 ar
     3    1   30 1
     4    2    3 ar
     5    2   31 1
     6    3    4 ar
     7    3   32 1
     8    4   11 1
     9    4    5 ar
    10    5    6 ar
    11    5    7 1
    12    6   33 1
    13    7    9 1
    14    7    8 2
    15    9   34 1
    16    9   14 1
    17    9   10 1
    18   10   11 1
    19   10   13 2
    20   11   12 2
    21   14   15 1
    22   14   35 1
    23   14   36 1
    24   15   16 1
    25   15   37 1
    26   15   38 1
    27   16   17 1
    28   16   39 1
    29   16   40 1
    30   17   18 1
    31   17   29 1
    32   17   19 1
    33   19   20 1
    34   19   41 1
    35   19   42 1
    36   20   21 1
    37   20   43 1
    38   20   44 1
    39   21   22 1
    40   21   27 1
    41   21   23 1
    42   23   24 1
    43   23   45 1
    44   23   46 1
    45   24   25 1
    46   24   47 1
    47   24   48 1
    48   25   26 1
    49   25   49 1
    50   25   50 1
    51   26   27 1
    52   26   51 1
    53   26   52 1
    54   27   28 1
    55   27   29 1
    56   29   53 1
    57   29   54 1
@<TRIPOS>MOLECULE
ZINC04353330
   53    56     0     0     0
SMALL
USER_CHARGES
3-[3-[(2S,4aS,8aR)-decalin-2-yl]propyl]-4-hydroxy-naphthalene-1,2-dione
@<TRIPOS>ATOM
      1 C1         -1.1928    4.9321   -4.7304 C.ar      1 <0>        -0.1041
      2 C2         -2.2768    4.2638   -5.2674 C.ar      1 <0>        -0.1353
      3 C3         -2.7356    3.0918   -4.6864 C.ar      1 <0>        -0.0743
      4 C4         -2.1006    2.5882   -3.5574 C.ar      1 <0>        -0.1504
      5 C5         -0.9959    3.2673   -3.0075 C.ar      1 <0>        -0.0397
      6 C6         -0.5498    4.4430   -3.6046 C.ar      1 <0>        -0.0929
      7 C7         -0.3231    2.7320   -1.8113 C.2       1 <0>         0.3375
      8 C8         -0.7416    1.5850   -1.2129 C.2       1 <0>        -0.4522
      9 C9         -1.8309    0.8513   -1.7062 C.2       1 <0>         0.3550
     10 O1         -2.1794   -0.1741   -1.1518 O.3       1 <0>        -0.5073
     11 C10        -2.5656    1.3406   -2.9151 C.2       1 <0>         0.3617
     12 O2         -3.5135    0.7272   -3.3589 O.2       1 <0>        -0.4327
     13 C11        -0.0127    1.0858    0.0080 C.3       1 <0>        -0.0084
     14 C12        -0.7288    1.5792    1.2668 C.3       1 <0>        -0.1052
     15 C13         0.0111    1.0724    2.5063 C.3       1 <0>        -0.1126
     16 C14        -0.7050    1.5658    3.7651 C.3       1 <0>        -0.0851
     17 H1         -0.7993    2.6611    3.7278 H         1 <0>         0.0693
     18 C15        -2.0975    0.9364    3.8395 C.3       1 <0>        -0.1161
     19 C16        -2.8137    1.4298    5.0983 C.3       1 <0>        -0.1168
     20 C17        -2.0062    1.0292    6.3346 C.3       1 <0>        -0.0807
     21 H2         -1.9119   -0.0661    6.3719 H         1 <0>         0.0659
     22 C18        -2.7224    1.5226    7.5934 C.3       1 <0>        -0.1140
     23 C19        -2.8534    3.0461    7.5416 C.3       1 <0>        -0.1221
     24 C20        -1.4609    3.6755    7.4672 C.3       1 <0>        -0.1183
     25 C21        -0.7447    3.1821    6.2084 C.3       1 <0>        -0.1203
     26 C22        -0.6137    1.6586    6.2602 C.3       1 <0>        -0.0781
     27 H3         -0.0332    1.3705    7.1490 H         1 <0>         0.0624
     28 C23         0.1025    1.1652    5.0014 C.3       1 <0>        -0.1097
     29 O3          0.7348    3.3960   -1.2971 O.2       1 <0>        -0.6463
     30 H4         -0.8444    5.8443   -5.1918 H         1 <0>         0.1239
     31 H5         -2.7690    4.6567   -6.1448 H         1 <0>         0.1240
     32 H6         -3.5830    2.5725   -5.1091 H         1 <0>         0.1300
     33 H7          0.2960    4.9724   -3.1916 H         1 <0>         0.1379
     34 H8          1.0193    1.4666    0.0002 H         1 <0>         0.0556
     35 H9          0.0023   -0.0141    0.0019 H         1 <0>         0.0389
     36 H10        -0.7437    2.6791    1.2728 H         1 <0>         0.0511
     37 H11        -1.7608    1.1985    1.2746 H         1 <0>         0.0526
     38 H12         0.0260   -0.0275    2.5003 H         1 <0>         0.0542
     39 H13         1.0431    1.4531    2.4985 H         1 <0>         0.0557
     40 H14        -2.6780    1.2244    2.9507 H         1 <0>         0.0675
     41 H15        -2.0033   -0.1589    3.8768 H         1 <0>         0.0581
     42 H16        -2.9080    2.5251    5.0610 H         1 <0>         0.0664
     43 H17        -3.8149    0.9772    5.1518 H         1 <0>         0.0554
     44 H18        -3.7236    1.0701    7.6468 H         1 <0>         0.0583
     45 H19        -2.1420    1.2345    8.4823 H         1 <0>         0.0574
     46 H20        -3.4339    3.3342    6.6528 H         1 <0>         0.0657
     47 H21        -3.3682    3.4009    8.4466 H         1 <0>         0.0551
     48 H22        -1.5551    4.7708    7.4299 H         1 <0>         0.0575
     49 H23        -0.8804    3.3875    8.3560 H         1 <0>         0.0568
     50 H24        -1.3252    3.4702    5.3196 H         1 <0>         0.0720
     51 H25         0.2565    3.6346    6.1550 H         1 <0>         0.0587
     52 H26         0.1968    0.0699    5.0387 H         1 <0>         0.0589
     53 H27         1.1037    1.6178    4.9479 H         1 <0>         0.0592
@<TRIPOS>BOND
     1    1    6 ar
     2    1    2 ar
     3    1   30 1
     4    2    3 ar
     5    2   31 1
     6    3    4 ar
     7    3   32 1
     8    4   11 1
     9    4    5 ar
    10    5    6 ar
    11    5    7 1
    12    6   33 1
    13    7    8 1
    14    7   29 2
    15    8    9 2
    16    8   13 1
    17    9   10 1
    18    9   11 1
    19   11   12 2
    20   13   14 1
    21   13   34 1
    22   13   35 1
    23   14   15 1
    24   14   36 1
    25   14   37 1
    26   15   16 1
    27   15   38 1
    28   15   39 1
    29   16   17 1
    30   16   28 1
    31   16   18 1
    32   18   19 1
    33   18   40 1
    34   18   41 1
    35   19   20 1
    36   19   42 1
    37   19   43 1
    38   20   21 1
    39   20   26 1
    40   20   22 1
    41   22   23 1
    42   22   44 1
    43   22   45 1
    44   23   24 1
    45   23   46 1
    46   23   47 1
    47   24   25 1
    48   24   48 1
    49   24   49 1
    50   25   26 1
    51   25   50 1
    52   25   51 1
    53   26   27 1
    54   26   28 1
    55   28   52 1
    56   28   53 1
@<TRIPOS>MOLECULE
ZINC04353330
   54    57     0     0     0
SMALL
USER_CHARGES
2-(3-decalin-2-ylpropyl)-3-hydroxy-naphthalene-1,4-dione
@<TRIPOS>ATOM
      1 C1         -4.3524    1.0760   -4.5630 C.ar      1 <0>        -0.0905
      2 C2         -3.9399    2.2396   -5.1831 C.ar      1 <0>        -0.0931
      3 C3         -2.8592    2.9531   -4.6889 C.ar      1 <0>        -0.0574
      4 C4         -2.1865    2.4943   -3.5621 C.ar      1 <0>        -0.1310
      5 C5         -2.6065    1.3099   -2.9312 C.ar      1 <0>        -0.1303
      6 C6         -3.6908    0.6060   -3.4387 C.ar      1 <0>        -0.0589
      7 C7         -1.8808    0.8251   -1.7355 C.2       1 <0>         0.4180
      8 O1         -2.2322   -0.2005   -1.1848 O.2       1 <0>        -0.4130
      9 C8         -0.7416    1.5850   -1.2129 C.3       1 <0>        -0.1638
     10 C9         -0.3330    2.7221   -1.8128 C.2       1 <0>         0.2956
     11 C10        -1.0306    3.2362   -3.0151 C.2       1 <0>         0.3769
     12 O2         -0.6552    4.2609   -3.5476 O.2       1 <0>        -0.3655
     13 O3          0.7255    3.4003   -1.3117 O.2       1 <0>        -0.4460
     14 C11        -0.0127    1.0858    0.0080 C.3       1 <0>        -0.0863
     15 C12        -0.7288    1.5792    1.2668 C.3       1 <0>        -0.1287
     16 C13         0.0111    1.0724    2.5063 C.3       1 <0>        -0.1111
     17 C14        -0.7050    1.5658    3.7651 C.3       1 <0>        -0.0882
     18 H1         -0.7983    2.6512    3.7282 H         1 <0>         0.0722
     19 C15        -2.0975    0.9364    3.8395 C.3       1 <0>        -0.1150
     20 C16        -2.8137    1.4298    5.0983 C.3       1 <0>        -0.1181
     21 C17        -2.0062    1.0292    6.3346 C.3       1 <0>        -0.0806
     22 H2         -1.9129   -0.0562    6.3715 H         1 <0>         0.0676
     23 C18        -2.7224    1.5226    7.5934 C.3       1 <0>        -0.1157
     24 C19        -2.8534    3.0461    7.5416 C.3       1 <0>        -0.1216
     25 C20        -1.4609    3.6755    7.4672 C.3       1 <0>        -0.1202
     26 C21        -0.7447    3.1821    6.2084 C.3       1 <0>        -0.1177
     27 C22        -0.6137    1.6586    6.2602 C.3       1 <0>        -0.0807
     28 H3         -0.0384    1.3732    7.1410 H         1 <0>         0.0679
     29 C23         0.1025    1.1652    5.0014 C.3       1 <0>        -0.1094
     30 H4         -5.1958    0.5284   -4.9570 H         1 <0>         0.1439
     31 H5         -4.4631    2.5958   -6.0582 H         1 <0>         0.1441
     32 H6         -2.5407    3.8619   -5.1777 H         1 <0>         0.1484
     33 H7         -4.0180   -0.3045   -2.9588 H         1 <0>         0.1492
     34 H8         -1.4846    2.1926   -0.9323 H         1 <0>         0.1375
     35 H9          0.0021   -0.0041    0.0020 H         1 <0>         0.0959
     36 H10         1.0099    1.4631    0.0003 H         1 <0>         0.1002
     37 H11        -0.7436    2.6691    1.2728 H         1 <0>         0.0630
     38 H12        -1.7514    1.2020    1.2746 H         1 <0>         0.0683
     39 H13         0.0259   -0.0175    2.5003 H         1 <0>         0.0672
     40 H14         1.0337    1.4497    2.4986 H         1 <0>         0.0670
     41 H15        -2.6728    1.2218    2.9588 H         1 <0>         0.0597
     42 H16        -2.0042   -0.1490    3.8764 H         1 <0>         0.0618
     43 H17        -2.9070    2.5152    5.0614 H         1 <0>         0.0673
     44 H18        -3.8058    0.9814    5.1513 H         1 <0>         0.0587
     45 H19        -3.7144    1.0742    7.6464 H         1 <0>         0.0602
     46 H20        -2.1471    1.2371    8.4741 H         1 <0>         0.0606
     47 H21        -3.4286    3.3315    6.6608 H         1 <0>         0.0633
     48 H22        -3.3636    3.3976    8.4383 H         1 <0>         0.0585
     49 H23        -1.5542    4.7609    7.4302 H         1 <0>         0.0592
     50 H24        -0.8856    3.3901    8.3479 H         1 <0>         0.0598
     51 H25        -1.3200    3.4675    5.3276 H         1 <0>         0.0672
     52 H26         0.2474    3.6305    6.1554 H         1 <0>         0.0591
     53 H27         0.1958    0.0798    5.0384 H         1 <0>         0.0622
     54 H28         1.0945    1.6136    4.9484 H         1 <0>         0.0620
@<TRIPOS>BOND
     1    1    6 ar
     2    1    2 ar
     3    1   30 1
     4    2    3 ar
     5    2   31 1
     6    3    4 ar
     7    3   32 1
     8    4   11 1
     9    4    5 ar
    10    5    6 ar
    11    5    7 1
    12    6   33 1
    13    7    9 1
    14    7    8 2
    15    9   34 1
    16    9   14 1
    17    9   10 1
    18   10   11 1
    19   10   13 2
    20   11   12 2
    21   14   15 1
    22   14   35 1
    23   14   36 1
    24   15   16 1
    25   15   37 1
    26   15   38 1
    27   16   17 1
    28   16   39 1
    29   16   40 1
    30   17   18 1
    31   17   29 1
    32   17   19 1
    33   19   20 1
    34   19   41 1
    35   19   42 1
    36   20   21 1
    37   20   43 1
    38   20   44 1
    39   21   22 1
    40   21   27 1
    41   21   23 1
    42   23   24 1
    43   23   45 1
    44   23   46 1
    45   24   25 1
    46   24   47 1
    47   24   48 1
    48   25   26 1
    49   25   49 1
    50   25   50 1
    51   26   27 1
    52   26   51 1
    53   26   52 1
    54   27   28 1
    55   27   29 1
    56   29   53 1
    57   29   54 1
@<TRIPOS>MOLECULE
ZINC04353331
   53    56     0     0     0
SMALL
USER_CHARGES
3-[3-[(2S,4aR,8aR)-decalin-2-yl]propyl]-4-hydroxy-naphthalene-1,2-dione
@<TRIPOS>ATOM
      1 C1         -1.3087    7.2012    8.4613 C.ar      1 <0>        -0.1041
      2 C2         -2.6724    7.3315    8.6443 C.ar      1 <0>        -0.1354
      3 C3         -3.5505    7.0125    7.6203 C.ar      1 <0>        -0.0744
      4 C4         -3.0545    6.5592    6.4037 C.ar      1 <0>        -0.1505
      5 C5         -1.6653    6.4253    6.2141 C.ar      1 <0>        -0.0397
      6 C6         -0.7990    6.7506    7.2540 C.ar      1 <0>        -0.0929
      7 C7         -1.1413    5.9394    4.9259 C.2       1 <0>         0.3373
      8 C8         -1.9692    5.6207    3.8956 C.2       1 <0>        -0.4520
      9 C9         -3.3634    5.7283    4.0098 C.2       1 <0>         0.3550
     10 O1         -4.0790    5.4318    3.0716 O.3       1 <0>        -0.5067
     11 C10        -3.9653    6.2106    5.2928 C.2       1 <0>         0.3616
     12 O2         -5.1677    6.3130    5.4172 O.2       1 <0>        -0.4328
     13 C11        -1.3743    5.1335    2.5995 C.3       1 <0>        -0.0074
     14 C12        -1.3536    3.6037    2.5911 C.3       1 <0>        -0.1058
     15 C13        -0.7496    3.1091    1.2752 C.3       1 <0>        -0.1136
     16 C14        -0.7288    1.5792    1.2668 C.3       1 <0>        -0.0863
     17 H1         -0.1967    1.2147    2.1579 H         1 <0>         0.0651
     18 C15        -2.1642    1.0497    1.2777 C.3       1 <0>        -0.1134
     19 C16        -2.9042    1.5565    0.0381 C.3       1 <0>        -0.1180
     20 C17        -2.1881    1.0631   -1.2207 C.3       1 <0>        -0.0763
     21 H2         -2.1732   -0.0368   -1.2268 H         1 <0>         0.0630
     22 C18        -2.9281    1.5699   -2.4602 C.3       1 <0>        -0.1171
     23 C19        -2.2119    1.0765   -3.7190 C.3       1 <0>        -0.1180
     24 C20        -0.7766    1.6061   -3.7298 C.3       1 <0>        -0.1199
     25 C21        -0.0366    1.0992   -2.4903 C.3       1 <0>        -0.1143
     26 C22        -0.7527    1.5927   -1.2315 C.3       1 <0>        -0.0829
     27 H3         -0.7676    2.6926   -1.2254 H         1 <0>         0.0754
     28 C23        -0.0127    1.0858    0.0080 C.3       1 <0>        -0.1068
     29 O3          0.1935    5.8121    4.7629 O.2       1 <0>        -0.6465
     30 H4         -0.6343    7.4525    9.2665 H         1 <0>         0.1238
     31 H5         -3.0560    7.6842    9.5903 H         1 <0>         0.1239
     32 H6         -4.6155    7.1153    7.7674 H         1 <0>         0.1300
     33 H7          0.2681    6.6523    7.1201 H         1 <0>         0.1379
     34 H8         -0.3471    5.5146    2.5013 H         1 <0>         0.0551
     35 H9         -1.9821    5.4966    1.7577 H         1 <0>         0.0384
     36 H10        -0.7458    3.2406    3.4329 H         1 <0>         0.0504
     37 H11        -2.3808    3.2225    2.6893 H         1 <0>         0.0527
     38 H12        -1.3575    3.4722    0.4334 H         1 <0>         0.0620
     39 H13         0.2775    3.4903    1.1770 H         1 <0>         0.0539
     40 H14        -2.1493   -0.0502    1.2717 H         1 <0>         0.0516
     41 H15        -2.6791    1.4045    2.1827 H         1 <0>         0.0672
     42 H16        -3.9362    1.1757    0.0459 H         1 <0>         0.0554
     43 H17        -2.9192    2.6564    0.0441 H         1 <0>         0.0721
     44 H18        -3.9601    1.1891   -2.4524 H         1 <0>         0.0587
     45 H19        -2.9431    2.6698   -2.4541 H         1 <0>         0.0627
     46 H20        -2.1970   -0.0234   -3.7250 H         1 <0>         0.0578
     47 H21        -2.7439    1.4408   -4.6102 H         1 <0>         0.0568
     48 H22        -0.2617    1.2514   -4.6348 H         1 <0>         0.0561
     49 H23        -0.7915    2.7060   -3.7237 H         1 <0>         0.0614
     50 H24        -0.0218   -0.0007   -2.4964 H         1 <0>         0.0574
     51 H25         0.9954    1.4798   -2.4981 H         1 <0>         0.0590
     52 H26         1.0193    1.4665    0.0002 H         1 <0>         0.0586
     53 H27         0.0022   -0.0141    0.0019 H         1 <0>         0.0545
@<TRIPOS>BOND
     1    1    6 ar
     2    1    2 ar
     3    1   30 1
     4    2    3 ar
     5    2   31 1
     6    3    4 ar
     7    3   32 1
     8    4   11 1
     9    4    5 ar
    10    5    6 ar
    11    5    7 1
    12    6   33 1
    13    7    8 1
    14    7   29 2
    15    8    9 2
    16    8   13 1
    17    9   10 1
    18    9   11 1
    19   11   12 2
    20   13   14 1
    21   13   34 1
    22   13   35 1
    23   14   15 1
    24   14   36 1
    25   14   37 1
    26   15   16 1
    27   15   38 1
    28   15   39 1
    29   16   17 1
    30   16   28 1
    31   16   18 1
    32   18   19 1
    33   18   40 1
    34   18   41 1
    35   19   20 1
    36   19   42 1
    37   19   43 1
    38   20   21 1
    39   20   26 1
    40   20   22 1
    41   22   23 1
    42   22   44 1
    43   22   45 1
    44   23   24 1
    45   23   46 1
    46   23   47 1
    47   24   25 1
    48   24   48 1
    49   24   49 1
    50   25   26 1
    51   25   50 1
    52   25   51 1
    53   26   27 1
    54   26   28 1
    55   28   52 1
    56   28   53 1
@<TRIPOS>MOLECULE
ZINC04353331
   54    57     0     0     0
SMALL
USER_CHARGES
2-(3-decalin-2-ylpropyl)-3-hydroxy-naphthalene-1,4-dione
@<TRIPOS>ATOM
      1 C1         -5.9300    6.7788    6.6327 C.ar      1 <0>        -0.0905
      2 C2         -5.1024    7.1121    7.6876 C.ar      1 <0>        -0.0932
      3 C3         -3.7265    7.0020    7.5620 C.ar      1 <0>        -0.0575
      4 C4         -3.1763    6.5531    6.3668 C.ar      1 <0>        -0.1309
      5 C5         -4.0188    6.2139    5.2933 C.ar      1 <0>        -0.1300
      6 C6         -5.3955    6.3297    5.4346 C.ar      1 <0>        -0.0590
      7 C7         -3.4248    5.7364    4.0242 C.2       1 <0>         0.4185
      8 O1         -4.1437    5.4399    3.0895 O.2       1 <0>        -0.4126
      9 C8         -1.9692    5.6207    3.8956 C.3       1 <0>        -0.1619
     10 C9         -1.1550    5.9391    4.9229 C.2       1 <0>         0.2955
     11 C10        -1.7121    6.4261    6.2071 C.2       1 <0>         0.3769
     12 O2         -0.9704    6.7145    7.1243 O.2       1 <0>        -0.3657
     13 O3          0.1849    5.8169    4.7778 O.2       1 <0>        -0.4459
     14 C11        -1.3743    5.1335    2.5995 C.3       1 <0>        -0.0831
     15 C12        -1.3536    3.6037    2.5911 C.3       1 <0>        -0.1148
     16 C13        -0.7496    3.1091    1.2752 C.3       1 <0>        -0.1172
     17 C14        -0.7288    1.5792    1.2668 C.3       1 <0>        -0.0861
     18 H1         -0.2017    1.2182    2.1499 H         1 <0>         0.0688
     19 C15        -2.1642    1.0497    1.2777 C.3       1 <0>        -0.1153
     20 C16        -2.9042    1.5565    0.0381 C.3       1 <0>        -0.1164
     21 C17        -2.1881    1.0631   -1.2207 C.3       1 <0>        -0.0797
     22 H2         -2.1733   -0.0268   -1.2266 H         1 <0>         0.0669
     23 C18        -2.9281    1.5699   -2.4602 C.3       1 <0>        -0.1152
     24 C19        -2.2119    1.0765   -3.7190 C.3       1 <0>        -0.1200
     25 C20        -0.7766    1.6061   -3.7298 C.3       1 <0>        -0.1198
     26 C21        -0.0366    1.0992   -2.4903 C.3       1 <0>        -0.1159
     27 C22        -0.7527    1.5927   -1.2315 C.3       1 <0>        -0.0811
     28 H3         -0.7675    2.6825   -1.2255 H         1 <0>         0.0719
     29 C23        -0.0127    1.0858    0.0080 C.3       1 <0>        -0.1098
     30 H4         -7.0007    6.8690    6.7419 H         1 <0>         0.1438
     31 H5         -5.5303    7.4604    8.6160 H         1 <0>         0.1440
     32 H6         -3.0841    7.2642    8.3896 H         1 <0>         0.1483
     33 H7         -6.0479    6.0711    4.6137 H         1 <0>         0.1491
     34 H8         -2.0560    6.6166    3.8690 H         1 <0>         0.1361
     35 H9         -0.3565    5.5112    2.5022 H         1 <0>         0.0948
     36 H10        -1.9766    5.4933    1.7653 H         1 <0>         0.0883
     37 H11        -2.3714    3.2260    2.6883 H         1 <0>         0.0709
     38 H12        -0.7512    3.2439    3.4253 H         1 <0>         0.0665
     39 H13         0.2682    3.4868    1.1780 H         1 <0>         0.0624
     40 H14        -1.3519    3.4689    0.4410 H         1 <0>         0.0708
     41 H15        -2.6744    1.4012    2.1745 H         1 <0>         0.0632
     42 H16        -2.1494   -0.0402    1.2717 H         1 <0>         0.0591
     43 H17        -2.9190    2.6464    0.0441 H         1 <0>         0.0663
     44 H18        -3.9268    1.1792    0.0459 H         1 <0>         0.0586
     45 H19        -2.9429    2.6598   -2.4542 H         1 <0>         0.0604
     46 H20        -3.9507    1.1926   -2.4524 H         1 <0>         0.0599
     47 H21        -2.7391    1.4376   -4.6020 H         1 <0>         0.0593
     48 H22        -2.1972   -0.0134   -3.7250 H         1 <0>         0.0600
     49 H23        -0.7913    2.6960   -3.7239 H         1 <0>         0.0601
     50 H24        -0.2664    1.2545   -4.6266 H         1 <0>         0.0593
     51 H25         0.9860    1.4765   -2.4981 H         1 <0>         0.0600
     52 H26        -0.0218    0.0093   -2.4963 H         1 <0>         0.0600
     53 H27         0.0021   -0.0041    0.0020 H         1 <0>         0.0607
     54 H28         1.0099    1.4631    0.0003 H         1 <0>         0.0611
@<TRIPOS>BOND
     1    1    6 ar
     2    1    2 ar
     3    1   30 1
     4    2    3 ar
     5    2   31 1
     6    3    4 ar
     7    3   32 1
     8    4   11 1
     9    4    5 ar
    10    5    6 ar
    11    5    7 1
    12    6   33 1
    13    7    9 1
    14    7    8 2
    15    9   34 1
    16    9   14 1
    17    9   10 1
    18   10   11 1
    19   10   13 2
    20   11   12 2
    21   14   15 1
    22   14   35 1
    23   14   36 1
    24   15   16 1
    25   15   37 1
    26   15   38 1
    27   16   17 1
    28   16   39 1
    29   16   40 1
    30   17   18 1
    31   17   29 1
    32   17   19 1
    33   19   20 1
    34   19   41 1
    35   19   42 1
    36   20   21 1
    37   20   43 1
    38   20   44 1
    39   21   22 1
    40   21   27 1
    41   21   23 1
    42   23   24 1
    43   23   45 1
    44   23   46 1
    45   24   25 1
    46   24   47 1
    47   24   48 1
    48   25   26 1
    49   25   49 1
    50   25   50 1
    51   26   27 1
    52   26   51 1
    53   26   52 1
    54   27   28 1
    55   27   29 1
    56   29   53 1
    57   29   54 1
@<TRIPOS>MOLECULE
ZINC13604424
   72    74     0     0     0
SMALL
USER_CHARGES
(4R,5S,6S,7R)-4,7-dibenzyl-1,3-bis(2-ethoxyethyl)-5,6-dihydroxy-1,3-diazepan-2-one
@<TRIPOS>ATOM
      1 C1         -2.1878   11.5970   -6.6452 C.3       1 <0>        -0.1487
      2 C2         -2.7149   10.1846   -6.9061 C.3       1 <0>         0.0604
      3 O1         -1.8230    9.2291   -6.3286 O.3       1 <0>        -0.3841
      4 C3         -2.2253    7.8708   -6.5163 C.3       1 <0>         0.0453
      5 C4         -1.2025    6.9407   -5.8609 C.3       1 <0>         0.1251
      6 N1         -1.2105    7.1508   -4.4079 N.am      1 <0>        -0.5965
      7 C5         -0.2523    8.1126   -3.8740 C.3       1 <0>         0.1635
      8 H1         -0.2382    8.9801   -4.5561 H         1 <0>         0.1085
      9 C6         -0.6774    8.6067   -2.4920 C.3       1 <0>         0.0766
     10 H2         -1.7626    8.7695   -2.4875 H         1 <0>         0.0806
     11 C7         -0.3219    7.6201   -1.4005 C.3       1 <0>         0.0658
     12 H3          0.7610    7.5901   -1.2664 H         1 <0>         0.0739
     13 C8         -0.8309    6.2150   -1.6337 C.3       1 <0>         0.1639
     14 H4         -0.0802    5.6379   -2.1769 H         1 <0>         0.0867
     15 N2         -2.0795    6.2162   -2.3928 N.am      1 <0>        -0.6161
     16 C9         -2.1067    6.4819   -3.7076 C.2       1 <0>         0.7162
     17 O2         -3.0975    6.1118   -4.3184 O.2       1 <0>        -0.5819
     18 C10        -3.3385    5.9154   -1.6986 C.3       1 <0>         0.1270
     19 C11        -3.9796    7.2187   -1.2175 C.3       1 <0>         0.0383
     20 O3         -4.3507    8.0121   -2.3465 O.3       1 <0>        -0.3714
     21 C12        -4.9620    9.2580   -2.0057 C.3       1 <0>         0.0606
     22 C13        -5.3154   10.0195   -3.2848 C.3       1 <0>        -0.1481
     23 C14        -1.0736    5.5397   -0.2782 C.3       1 <0>        -0.0775
     24 C15         0.2348    5.4053    0.4575 C.ar      1 <0>        -0.0820
     25 C16         0.5974    6.3486    1.4008 C.ar      1 <0>        -0.1007
     26 C17         1.7977    6.2256    2.0753 C.ar      1 <0>        -0.1250
     27 C18         2.6355    5.1593    1.8065 C.ar      1 <0>        -0.1211
     28 C19         2.2753    4.2190    0.8594 C.ar      1 <0>        -0.1207
     29 C20         1.0726    4.3391    0.1887 C.ar      1 <0>        -0.1186
     30 O4         -0.8833    8.0970   -0.1668 O.3       1 <0>        -0.5559
     31 O5         -0.0402    9.8621   -2.2202 O.3       1 <0>        -0.5539
     32 C21         1.1499    7.5134   -3.8525 C.3       1 <0>        -0.0960
     33 C22         1.6247    7.2952   -5.2660 C.ar      1 <0>        -0.0789
     34 C23         1.5304    6.0417   -5.8411 C.ar      1 <0>        -0.1139
     35 C24         1.9615    5.8427   -7.1393 C.ar      1 <0>        -0.1206
     36 C25         2.4964    6.8947   -7.8590 C.ar      1 <0>        -0.1211
     37 C26         2.5954    8.1471   -7.2821 C.ar      1 <0>        -0.1146
     38 C27         2.1596    8.3473   -5.9857 C.ar      1 <0>        -0.1098
     39 H5         -2.1196   11.7667   -5.5707 H         1 <0>         0.0605
     40 H6         -1.2000   11.7048   -7.0935 H         1 <0>         0.0612
     41 H7         -2.8681   12.3259   -7.0857 H         1 <0>         0.0679
     42 H8         -2.7831   10.0149   -7.9807 H         1 <0>         0.0439
     43 H9         -3.7026   10.0768   -6.4579 H         1 <0>         0.0445
     44 H10        -2.2833    7.6531   -7.5828 H         1 <0>         0.0492
     45 H11        -3.2029    7.7151   -6.0600 H         1 <0>         0.0671
     46 H12        -0.2094    7.1581   -6.2540 H         1 <0>         0.1021
     47 H13        -1.4610    5.9046   -6.0796 H         1 <0>         0.0890
     48 H14        -4.0181    5.4071   -2.3826 H         1 <0>         0.0969
     49 H15        -3.1365    5.2721   -0.8422 H         1 <0>         0.0975
     50 H16        -4.8666    6.9907   -0.6264 H         1 <0>         0.0522
     51 H17        -3.2664    7.7699   -0.6047 H         1 <0>         0.0612
     52 H18        -5.8693    9.0723   -1.4309 H         1 <0>         0.0440
     53 H19        -4.2691    9.8515   -1.4092 H         1 <0>         0.0406
     54 H20        -5.7817   10.9698   -3.0248 H         1 <0>         0.0675
     55 H21        -4.4081   10.2052   -3.8596 H         1 <0>         0.0600
     56 H22        -6.0083    9.4260   -3.8813 H         1 <0>         0.0615
     57 H23        -1.5044    4.5511   -0.4367 H         1 <0>         0.0792
     58 H24        -1.7615    6.1456    0.3116 H         1 <0>         0.0962
     59 H25        -0.0570    7.1818    1.6105 H         1 <0>         0.1334
     60 H26         2.0811    6.9627    2.8120 H         1 <0>         0.1195
     61 H27         3.5734    5.0634    2.3332 H         1 <0>         0.1192
     62 H28         2.9319    3.3884    0.6462 H         1 <0>         0.1202
     63 H29         0.7895    3.6024   -0.5485 H         1 <0>         0.1186
     64 H30        -0.6121    8.9951    0.0675 H         1 <0>         0.3692
     65 H31        -0.2635   10.2380   -1.3577 H         1 <0>         0.3772
     66 H32         1.8292    8.1965   -3.3425 H         1 <0>         0.0897
     67 H33         1.1295    6.5599   -3.3248 H         1 <0>         0.0720
     68 H34         1.1166    5.2187   -5.2773 H         1 <0>         0.1178
     69 H35         1.8844    4.8641   -7.5899 H         1 <0>         0.1217
     70 H36         2.8372    6.7382   -8.8717 H         1 <0>         0.1208
     71 H37         3.0136    8.9690   -7.8442 H         1 <0>         0.1214
     72 H38         2.2373    9.3257   -5.5349 H         1 <0>         0.1219
@<TRIPOS>BOND
     1    1    2 1
     2    1   39 1
     3    1   40 1
     4    1   41 1
     5    2    3 1
     6    2   42 1
     7    2   43 1
     8    3    4 1
     9    4    5 1
    10    4   44 1
    11    4   45 1
    12    5    6 1
    13    5   46 1
    14    5   47 1
    15    6   16 am
    16    6    7 1
    17    7    8 1
    18    7    9 1
    19    7   32 1
    20    9   10 1
    21    9   11 1
    22    9   31 1
    23   11   12 1
    24   11   13 1
    25   11   30 1
    26   13   14 1
    27   13   15 1
    28   13   23 1
    29   15   16 am
    30   15   18 1
    31   16   17 2
    32   18   19 1
    33   18   48 1
    34   18   49 1
    35   19   20 1
    36   19   50 1
    37   19   51 1
    38   20   21 1
    39   21   22 1
    40   21   52 1
    41   21   53 1
    42   22   54 1
    43   22   55 1
    44   22   56 1
    45   23   24 1
    46   23   57 1
    47   23   58 1
    48   24   29 ar
    49   24   25 ar
    50   25   26 ar
    51   25   59 1
    52   26   27 ar
    53   26   60 1
    54   27   28 ar
    55   27   61 1
    56   28   29 ar
    57   28   62 1
    58   29   63 1
    59   30   64 1
    60   31   65 1
    61   32   33 1
    62   32   66 1
    63   32   67 1
    64   33   38 ar
    65   33   34 ar
    66   34   35 ar
    67   34   68 1
    68   35   36 ar
    69   35   69 1
    70   36   37 ar
    71   36   70 1
    72   37   38 ar
    73   37   71 1
    74   38   72 1
@<TRIPOS>MOLECULE
ZINC13738186
   37    39     0     0     0
SMALL
USER_CHARGES

@<TRIPOS>ATOM
      1 C1         -0.0167    1.3784    0.0096 C.ar      1 <0>        -0.1697
      2 C2          1.1698    2.0883    0.0021 C.ar      1 <0>        -0.0831
      3 C3          2.3773    1.4175   -0.0134 C.ar      1 <0>        -0.1595
      4 C4          2.3989    0.0304   -0.0210 C.ar      1 <0>         0.1393
      5 C5          1.2070   -0.6796   -0.0130 C.ar      1 <0>        -0.2117
      6 C6          0.0021   -0.0041    0.0020 C.ar      1 <0>        -0.0806
      7 O1          3.5855   -0.6319   -0.0368 O.3       1 <0>        -0.3141
      8 C7          3.5315   -2.0598   -0.0438 C.3       1 <0>         0.0619
      9 C8          4.9536   -2.6239   -0.0615 C.3       1 <0>        -0.1064
     10 C9          4.8957   -4.1528   -0.0690 C.3       1 <0>         0.0062
     11 C10         6.2964   -4.7084   -0.0864 C.2       1 <0>        -0.4726
     12 C11         6.9068   -5.0689    1.0832 C.2       1 <0>         0.3425
     13 C12         8.2746   -5.6060    1.0117 C.ar      1 <0>        -0.1689
     14 C13         8.9573   -5.9943    2.1664 C.ar      1 <0>        -0.0418
     15 C14        10.2367   -6.4936    2.0650 C.ar      1 <0>        -0.1677
     16 C15        10.8463   -6.6113    0.8245 C.ar      1 <0>        -0.0837
     17 C16        10.1834   -6.2311   -0.3234 C.ar      1 <0>        -0.1550
     18 C17         8.8922   -5.7254   -0.2434 C.ar      1 <0>         0.1531
     19 O2          8.2282   -5.3496   -1.3578 O.3       1 <0>        -0.2997
     20 C18         6.9779   -4.8635   -1.3032 C.2       1 <0>         0.5138
     21 O3          6.4211   -4.5432   -2.3389 O.2       1 <0>        -0.5407
     22 O4          6.2721   -4.9354    2.2700 O.3       1 <0>        -0.6570
     23 H1         -0.9596    1.9047    0.0260 H         1 <0>         0.1193
     24 H2          1.1525    3.1682    0.0080 H         1 <0>         0.1251
     25 H3          3.3038    1.9724   -0.0200 H         1 <0>         0.1286
     26 H4          1.2211   -1.7595   -0.0193 H         1 <0>         0.1294
     27 H5         -0.9260   -0.5563    0.0082 H         1 <0>         0.1217
     28 H6          3.0134   -2.4083    0.8497 H         1 <0>         0.0602
     29 H7          2.9951   -2.3988   -0.9302 H         1 <0>         0.0590
     30 H8          5.4716   -2.2755   -0.9550 H         1 <0>         0.0648
     31 H9          5.4899   -2.2850    0.8248 H         1 <0>         0.0665
     32 H10         4.3777   -4.5012    0.8245 H         1 <0>         0.0609
     33 H11         4.3594   -4.4918   -0.9554 H         1 <0>         0.0468
     34 H12         8.4848   -5.9032    3.1333 H         1 <0>         0.1343
     35 H13        10.7682   -6.7947    2.9557 H         1 <0>         0.1221
     36 H14        11.8500   -7.0042    0.7570 H         1 <0>         0.1260
     37 H15        10.6679   -6.3264   -1.2839 H         1 <0>         0.1307
@<TRIPOS>BOND
     1    1    6 ar
     2    1    2 ar
     3    1   23 1
     4    2    3 ar
     5    2   24 1
     6    3    4 ar
     7    3   25 1
     8    4    5 ar
     9    4    7 1
    10    5    6 ar
    11    5   26 1
    12    6   27 1
    13    7    8 1
    14    8    9 1
    15    8   28 1
    16    8   29 1
    17    9   10 1
    18    9   30 1
    19    9   31 1
    20   10   11 1
    21   10   32 1
    22   10   33 1
    23   11   20 1
    24   11   12 2
    25   12   13 1
    26   12   22 1
    27   13   18 ar
    28   13   14 ar
    29   14   15 ar
    30   14   34 1
    31   15   16 ar
    32   15   35 1
    33   16   17 ar
    34   16   36 1
    35   17   18 ar
    36   17   37 1
    37   18   19 1
    38   19   20 1
    39   20   21 2
@<TRIPOS>MOLECULE
ZINC13738186
   38    40     0     0     0
SMALL
USER_CHARGES

@<TRIPOS>ATOM
      1 C1         -0.0167    1.3784    0.0096 C.ar      1 <0>        -0.1604
      2 C2          1.1698    2.0883    0.0021 C.ar      1 <0>        -0.0806
      3 C3          2.3773    1.4175   -0.0134 C.ar      1 <0>        -0.1544
      4 C4          2.3989    0.0304   -0.0210 C.ar      1 <0>         0.1308
      5 C5          1.2070   -0.6796   -0.0130 C.ar      1 <0>        -0.2104
      6 C6          0.0021   -0.0041    0.0020 C.ar      1 <0>        -0.0803
      7 O1          3.5855   -0.6319   -0.0368 O.3       1 <0>        -0.3153
      8 C7          3.5315   -2.0598   -0.0438 C.3       1 <0>         0.0616
      9 C8          4.9536   -2.6239   -0.0615 C.3       1 <0>        -0.1122
     10 C9          4.8957   -4.1528   -0.0690 C.3       1 <0>        -0.0415
     11 C10         6.2964   -4.7084   -0.0864 C.2       1 <0>        -0.2781
     12 C11         6.9068   -5.0689    1.0832 C.2       1 <0>         0.2405
     13 C12         8.2746   -5.6060    1.0117 C.ar      1 <0>        -0.1935
     14 C13         8.9573   -5.9943    2.1664 C.ar      1 <0>        -0.0666
     15 C14        10.2367   -6.4936    2.0650 C.ar      1 <0>        -0.1344
     16 C15        10.8463   -6.6113    0.8245 C.ar      1 <0>        -0.0565
     17 C16        10.1834   -6.2311   -0.3234 C.ar      1 <0>        -0.1306
     18 C17         8.8922   -5.7254   -0.2434 C.ar      1 <0>         0.1658
     19 O2          8.2282   -5.3496   -1.3578 O.3       1 <0>        -0.2730
     20 C18         6.9779   -4.8635   -1.3032 C.2       1 <0>         0.5282
     21 O3          6.4211   -4.5432   -2.3389 O.2       1 <0>        -0.4574
     22 O4          6.2721   -4.9354    2.2700 O.3       1 <0>        -0.4389
     23 H1         -0.9596    1.9047    0.0260 H         1 <0>         0.1237
     24 H2          1.1525    3.1682    0.0080 H         1 <0>         0.1292
     25 H3          3.3038    1.9724   -0.0200 H         1 <0>         0.1299
     26 H4          1.2211   -1.7595   -0.0193 H         1 <0>         0.1274
     27 H5         -0.9260   -0.5563    0.0082 H         1 <0>         0.1246
     28 H6          3.0134   -2.4083    0.8497 H         1 <0>         0.0632
     29 H7          2.9951   -2.3988   -0.9302 H         1 <0>         0.0648
     30 H8          5.4716   -2.2755   -0.9550 H         1 <0>         0.0769
     31 H9          5.4899   -2.2850    0.8248 H         1 <0>         0.0728
     32 H10         4.3777   -4.5012    0.8245 H         1 <0>         0.0827
     33 H11         4.3594   -4.4918   -0.9554 H         1 <0>         0.0835
     34 H12         8.4848   -5.9032    3.1333 H         1 <0>         0.1370
     35 H13        10.7682   -6.7947    2.9557 H         1 <0>         0.1407
     36 H14        11.8500   -7.0042    0.7570 H         1 <0>         0.1453
     37 H15        10.6679   -6.3264   -1.2839 H         1 <0>         0.1496
     38 H16         6.7965   -5.2206    3.0308 H         1 <0>         0.4059
@<TRIPOS>BOND
     1    1    6 ar
     2    1    2 ar
     3    1   23 1
     4    2    3 ar
     5    2   24 1
     6    3    4 ar
     7    3   25 1
     8    4    5 ar
     9    4    7 1
    10    5    6 ar
    11    5   26 1
    12    6   27 1
    13    7    8 1
    14    8    9 1
    15    8   28 1
    16    8   29 1
    17    9   10 1
    18    9   30 1
    19    9   31 1
    20   10   11 1
    21   10   32 1
    22   10   33 1
    23   11   20 1
    24   11   12 2
    25   12   13 1
    26   12   22 1
    27   13   18 ar
    28   13   14 ar
    29   14   15 ar
    30   14   34 1
    31   15   16 ar
    32   15   35 1
    33   16   17 ar
    34   16   36 1
    35   17   18 ar
    36   17   37 1
    37   18   19 1
    38   19   20 1
    39   20   21 2
    40   22   38 1
