@<TRIPOS>MOLECULE
ZINC04658574
    8     7     0     0     0
SMALL
USER_CHARGES
2-sulfanylacetic acid
@<TRIPOS>ATOM
      1 C1          1.2350    3.0943    0.0069 C.3       1 <0>        -0.1078
      2 C2          1.1765    1.5884   -0.0006 C.2       1 <0>         0.4790
      3 O1          2.1986    0.9442   -0.0139 O.co2     1 <0>        -0.6106
      4 S1          2.9673    3.6322   -0.0068 S.3       1 <0>        -0.2094
      5 H1          0.7272    3.4820   -0.8762 H         1 <0>         0.0839
      6 H2          0.7441    3.4725    0.9036 H         1 <0>         0.0839
      7 H3          2.8911    4.9751    0.0012 H         1 <0>         0.0389
      8 O2         -0.0110    0.9628    0.0073 O.co2     1 <0>        -0.7579
@<TRIPOS>BOND
     1    1    2 1
     2    1    4 1
     3    1    5 1
     4    1    6 1
     5    2    3 2
     6    2    8 1
     7    4    7 1
@<TRIPOS>MOLECULE
ZINC33902580
   22    21     0     0     0
SMALL
USER_CHARGES

@<TRIPOS>ATOM
      1 C1          0.0167    1.5112    0.0690 C.3       1 <0>        -0.1329
      2 C2          0.0150   -0.0187    0.0536 C.3       1 <0>        -0.0634
      3 C3         -1.4060   -0.5191    0.0172 C.2       1 <0>        -0.2033
      4 C4         -1.9798   -0.8259   -1.1571 C.2       1 <0>        -0.1463
      5 C5         -1.2527   -0.5459   -2.4470 C.3       1 <0>        -0.0747
      6 C6         -0.5094   -1.8052   -2.8972 C.3       1 <0>        -0.1353
      7 C7         -3.3243   -1.4380   -1.1848 C.2       1 <0>         0.5648
      8 O1         -4.3138   -0.7337   -1.3230 O.co2     1 <0>        -0.7140
      9 O2         -3.4471   -2.6488   -1.0695 O.co2     1 <0>        -0.7066
     10 C8         -2.1678   -0.6721    1.2740 C.2       1 <0>         0.5157
     11 O3         -3.2854   -1.1668    1.2549 O.co2     1 <0>        -0.6518
     12 O4         -1.6803   -0.3039    2.3328 O.co2     1 <0>        -0.7325
     13 H1          1.0445    1.8732    0.0953 H         1 <0>         0.0323
     14 H2         -0.4770    1.8842   -0.8283 H         1 <0>         0.0419
     15 H3         -0.5162    1.8663    0.9511 H         1 <0>         0.0580
     16 H4          0.5479   -0.3737   -0.8285 H         1 <0>         0.0423
     17 H5          0.5087   -0.3917    0.9509 H         1 <0>         0.0573
     18 H6         -1.9711   -0.2545   -3.2132 H         1 <0>         0.0542
     19 H7         -0.5378    0.2624   -2.2930 H         1 <0>         0.0520
     20 H8          0.2090   -2.0965   -2.1309 H         1 <0>         0.0482
     21 H9         -1.2243   -2.6135   -3.0511 H         1 <0>         0.0586
     22 H10         0.0165   -1.6027   -3.8301 H         1 <0>         0.0357
@<TRIPOS>BOND
     1    1    2 1
     2    1   13 1
     3    1   14 1
     4    1   15 1
     5    2    3 1
     6    2   16 1
     7    2   17 1
     8    3    4 2
     9    3   10 1
    10    4    5 1
    11    4    7 1
    12    5    6 1
    13    5   18 1
    14    5   19 1
    15    6   20 1
    16    6   21 1
    17    6   22 1
    18    7    8 2
    19    7    9 1
    20   10   11 2
    21   10   12 1
@<TRIPOS>MOLECULE
ZINC03860582
   11    10     0     0     0
SMALL
USER_CHARGES
3-sulfanylpropanoic acid
@<TRIPOS>ATOM
      1 C1         -1.3295    1.9397    0.0189 C.3       1 <0>        -0.1441
      2 C2         -2.4788    0.9298    0.0189 C.3       1 <0>        -0.0297
      3 S1         -4.0619    1.8154    0.0312 S.3       1 <0>        -0.2852
      4 C3         -0.0143    1.2041    0.0087 C.2       1 <0>         0.4677
      5 O1          0.0021   -0.0041    0.0020 O.co2     1 <0>        -0.6412
      6 H1         -1.3915    2.5607    0.9126 H         1 <0>         0.0769
      7 H2         -1.4000    2.5704   -0.8673 H         1 <0>         0.0770
      8 H3         -2.4168    0.3088   -0.8748 H         1 <0>         0.0826
      9 H4         -2.4084    0.2992    0.9051 H         1 <0>         0.0826
     10 H5         -4.9830    0.8352    0.0302 H         1 <0>         0.0796
     11 O2          1.1389    1.8910    0.0013 O.co2     1 <0>        -0.7662
@<TRIPOS>BOND
     1    1    2 1
     2    1    4 1
     3    1    6 1
     4    1    7 1
     5    2    3 1
     6    2    8 1
     7    2    9 1
     8    3   10 1
     9    4    5 2
    10    4   11 1
