@<TRIPOS>MOLECULE
ZINC13523229
   41    43     0     0     0
SMALL
USER_CHARGES
methyl (1S,3S,4S,5R)-3-(3,4-dichlorophenyl)-8-methyl-8-azabicyclo[3.2.1]octane-4-carboxylate
@<TRIPOS>ATOM
      1 C1          1.8712   -2.2682   -2.0871 C.3       1 <0>        -0.0360
      2 C2          1.0761   -0.0584   -1.4392 C.3       1 <0>         0.0344
      3 H1          0.9276    0.1383   -2.5010 H         1 <0>         0.1588
      4 C3         -0.2100   -0.5766   -0.7552 C.3       1 <0>        -0.1465
      5 C4          0.2873   -1.5358    0.3463 C.3       1 <0>        -0.1413
      6 C5          1.8286   -1.5099    0.2277 C.3       1 <0>         0.0451
      7 H2          2.2784   -2.4673    0.4910 H         1 <0>         0.1626
      8 C6          2.3489   -0.3637    1.1099 C.3       1 <0>        -0.1064
      9 H3          2.2485   -0.6370    2.1603 H         1 <0>         0.1532
     10 C7          1.5252    0.8951    0.8238 C.3       1 <0>        -0.0409
     11 H4          0.4974    0.7380    1.1510 H         1 <0>         0.1274
     12 C8          1.5416    1.1934   -0.6781 C.3       1 <0>        -0.1494
     13 C9          2.1158    2.0617    1.5730 C.ar      1 <0>        -0.0925
     14 C10         3.2832    2.6513    1.1244 C.ar      1 <0>        -0.1123
     15 C11         3.8259    3.7212    1.8105 C.ar      1 <0>        -0.0881
     16 C12         3.2011    4.2028    2.9470 C.ar      1 <0>        -0.0217
     17 C13         2.0322    3.6124    3.3962 C.ar      1 <0>        -0.0263
     18 C14         1.4873    2.5451    2.7049 C.ar      1 <0>        -0.0811
     19 Cl1         1.2469    4.2156    4.8221 Cl        1 <0>        -0.0278
     20 Cl2         3.8827    5.5463    3.8096 Cl        1 <0>        -0.0278
     21 C15         3.7987   -0.1011    0.7931 C.2       1 <0>         0.4803
     22 O1          4.1460    0.0670   -0.3519 O.2       1 <0>        -0.5185
     23 O2          4.7041   -0.0539    1.7829 O.3       1 <0>        -0.3244
     24 C16         6.0820    0.2034    1.4042 C.3       1 <0>         0.0267
     25 H5          0.8429   -2.6184   -1.9974 H         1 <0>         0.1169
     26 H6          2.0616   -1.9600   -3.1152 H         1 <0>         0.1237
     27 H7          2.5542   -3.0735   -1.8169 H         1 <0>         0.1206
     28 H8         -0.8315   -1.1125   -1.4725 H         1 <0>         0.1029
     29 H9         -0.7654    0.2514   -0.3147 H         1 <0>         0.1135
     30 H10        -0.0235   -1.1793    1.3284 H         1 <0>         0.1153
     31 H11        -0.0914   -2.5428    0.1717 H         1 <0>         0.1083
     32 H12         0.8679    2.0228   -0.8930 H         1 <0>         0.1213
     33 H13         2.5535    1.4554   -0.9872 H         1 <0>         0.1022
     34 H14         3.7710    2.2758    0.2370 H         1 <0>         0.1358
     35 H15         4.7380    4.1810    1.4598 H         1 <0>         0.1480
     36 H16         0.5730    2.0869    3.0523 H         1 <0>         0.1486
     37 H17         6.1466    1.1686    0.9019 H         1 <0>         0.0749
     38 H18         6.7079    0.2155    2.2965 H         1 <0>         0.1177
     39 H19         6.4259   -0.5809    0.7298 H         1 <0>         0.0750
     40 N1          2.0554   -1.1033   -1.1620 N.4       1 <0>        -0.4017
     41 H20         3.0067   -0.7328   -1.2713 H         1 <0>         0.4294
@<TRIPOS>BOND
     1    1   25 1
     2    1   26 1
     3    1   27 1
     4    1   40 1
     5    2    3 1
     6    2   12 1
     7    2    4 1
     8    2   40 1
     9    4    5 1
    10    4   28 1
    11    4   29 1
    12    5    6 1
    13    5   30 1
    14    5   31 1
    15    6    7 1
    16    6    8 1
    17    6   40 1
    18    8    9 1
    19    8   10 1
    20    8   21 1
    21   10   11 1
    22   10   12 1
    23   10   13 1
    24   12   32 1
    25   12   33 1
    26   13   18 ar
    27   13   14 ar
    28   14   15 ar
    29   14   34 1
    30   15   16 ar
    31   15   35 1
    32   16   17 ar
    33   16   20 1
    34   17   18 ar
    35   17   19 1
    36   18   36 1
    37   21   22 2
    38   21   23 1
    39   23   24 1
    40   24   37 1
    41   24   38 1
    42   24   39 1
    43   40   41 1
