@<TRIPOS>MOLECULE
ZINC03112462
   51    54     0     0     0
SMALL
USER_CHARGES
N-(9-anthrylmethyleneamino)-N'-(3-bromophenyl)butanediamide
@<TRIPOS>ATOM
      1 C1         -0.5945    6.8944    0.5583 C.ar      1 <0>        -0.1237
      2 C2          0.5577    6.1107    0.5241 C.ar      1 <0>        -0.0979
      3 C3          0.4973    4.7577    0.4018 C.ar      1 <0>        -0.1231
      4 C4         -0.7542    4.1235    0.3122 C.ar      1 <0>        -0.0102
      5 C5         -1.9661    4.9450    0.3426 C.ar      1 <0>        -0.0617
      6 C6         -1.8334    6.3443    0.4712 C.ar      1 <0>        -0.0935
      7 C7         -3.2242    4.3485    0.2502 C.ar      1 <0>        -0.0607
      8 C8         -3.3311    2.9631    0.1231 C.ar      1 <0>        -0.0595
      9 C9         -4.5929    2.3377    0.0275 C.ar      1 <0>        -0.1100
     10 C10        -4.6633    0.9869   -0.0959 C.ar      1 <0>        -0.1136
     11 C11        -3.5167    0.1949   -0.1311 C.ar      1 <0>        -0.1076
     12 C12        -2.2723    0.7364   -0.0435 C.ar      1 <0>        -0.1242
     13 C13        -2.1282    2.1288    0.0859 C.ar      1 <0>        -0.0102
     14 C14        -0.8530    2.7233    0.1787 C.ar      1 <0>        -0.0509
     15 C15         0.3557    1.8948    0.1429 C.2       1 <0>         0.1202
     16 N1          0.2552    0.5971    0.1368 N.2       1 <0>        -0.2314
     17 N2          1.4103   -0.1947    0.0967 N.am      1 <0>        -0.5876
     18 C16         1.3063   -1.5385    0.0903 C.2       1 <0>         0.5325
     19 O1          0.2125   -2.0623    0.1193 O.2       1 <0>        -0.5050
     20 C17         2.5487   -2.3902    0.0472 C.3       1 <0>        -0.1208
     21 C18         2.1540   -3.8684    0.0487 C.3       1 <0>        -0.1244
     22 C19         3.3965   -4.7201    0.0055 C.2       1 <0>         0.5155
     23 O2          4.4901   -4.1964   -0.0235 O.2       1 <0>        -0.5166
     24 N3          3.2925   -6.0639   -0.0008 N.am      1 <0>        -0.6738
     25 C20         4.4442   -6.8551    0.0733 C.ar      1 <0>         0.1514
     26 C21         4.5012   -8.0662   -0.6044 C.ar      1 <0>        -0.1298
     27 C22         5.6407   -8.8431   -0.5331 C.ar      1 <0>        -0.0925
     28 C23         6.7211   -8.4213    0.2199 C.ar      1 <0>        -0.1059
     29 C24         6.6660   -7.2181    0.9005 C.ar      1 <0>        -0.0716
     30 C25         5.5300   -6.4339    0.8290 C.ar      1 <0>        -0.0938
     31 Br1         8.1456   -6.6462    1.9299 Br        1 <0>        -0.0430
     32 H1         -0.4999    7.9657    0.6569 H         1 <0>         0.1246
     33 H2          1.5228    6.5901    0.5968 H         1 <0>         0.1246
     34 H3          1.4052    4.1733    0.3775 H         1 <0>         0.1274
     35 H4         -2.7108    6.9733    0.4998 H         1 <0>         0.1315
     36 H5         -4.1147    4.9589    0.2768 H         1 <0>         0.1371
     37 H6         -5.4962    2.9292    0.0527 H         1 <0>         0.1296
     38 H7         -5.6318    0.5146   -0.1690 H         1 <0>         0.1223
     39 H8         -3.6192   -0.8756   -0.2303 H         1 <0>         0.1227
     40 H9         -1.3999    0.1005   -0.0736 H         1 <0>         0.1815
     41 H10         1.3294    2.3612    0.1170 H         1 <0>         0.1277
     42 H11         2.2849    0.2241    0.0735 H         1 <0>         0.3890
     43 H12         3.1121   -2.1654   -0.8584 H         1 <0>         0.1088
     44 H13         3.1652   -2.1779    0.9207 H         1 <0>         0.1088
     45 H14         1.5907   -4.0932    0.9543 H         1 <0>         0.1108
     46 H15         1.5375   -4.0807   -0.8248 H         1 <0>         0.1096
     47 H16         2.4193   -6.4825   -0.0567 H         1 <0>         0.4164
     48 H17         3.6564   -8.3982   -1.1897 H         1 <0>         0.1339
     49 H18         5.6865   -9.7832   -1.0627 H         1 <0>         0.1381
     50 H19         7.6097   -9.0326    0.2771 H         1 <0>         0.1355
     51 H20         5.4872   -5.4945    1.3601 H         1 <0>         0.1435
@<TRIPOS>BOND
     1    1    6 ar
     2    1    2 ar
     3    1   32 1
     4    2    3 ar
     5    2   33 1
     6    3    4 ar
     7    3   34 1
     8    4   14 ar
     9    4    5 ar
    10    5    6 ar
    11    5    7 ar
    12    6   35 1
    13    7    8 ar
    14    7   36 1
    15    8   13 ar
    16    8    9 ar
    17    9   10 ar
    18    9   37 1
    19   10   11 ar
    20   10   38 1
    21   11   12 ar
    22   11   39 1
    23   12   13 ar
    24   12   40 1
    25   13   14 ar
    26   14   15 1
    27   15   16 2
    28   15   41 1
    29   16   17 1
    30   17   18 am
    31   17   42 1
    32   18   19 2
    33   18   20 1
    34   20   21 1
    35   20   43 1
    36   20   44 1
    37   21   22 1
    38   21   45 1
    39   21   46 1
    40   22   23 2
    41   22   24 am
    42   24   25 1
    43   24   47 1
    44   25   30 ar
    45   25   26 ar
    46   26   27 ar
    47   26   48 1
    48   27   28 ar
    49   27   49 1
    50   28   29 ar
    51   28   50 1
    52   29   30 ar
    53   29   31 1
    54   30   51 1
@<TRIPOS>MOLECULE
ZINC03083921
   51    54     0     0     0
SMALL
USER_CHARGES
N-(9-anthrylmethyleneamino)-N'-(3-chlorophenyl)butanediamide
@<TRIPOS>ATOM
      1 C1         -0.5946    6.8946    0.5584 C.ar      1 <0>        -0.1237
      2 C2          0.5577    6.1109    0.5242 C.ar      1 <0>        -0.0979
      3 C3          0.4973    4.7579    0.4019 C.ar      1 <0>        -0.1231
      4 C4         -0.7542    4.1237    0.3123 C.ar      1 <0>        -0.0102
      5 C5         -1.9661    4.9451    0.3426 C.ar      1 <0>        -0.0617
      6 C6         -1.8334    6.3444    0.4713 C.ar      1 <0>        -0.0935
      7 C7         -3.2242    4.3486    0.2503 C.ar      1 <0>        -0.0607
      8 C8         -3.3311    2.9632    0.1232 C.ar      1 <0>        -0.0595
      9 C9         -4.5928    2.3377    0.0276 C.ar      1 <0>        -0.1100
     10 C10        -4.6631    0.9869   -0.0958 C.ar      1 <0>        -0.1135
     11 C11        -3.5165    0.1950   -0.1310 C.ar      1 <0>        -0.1076
     12 C12        -2.2722    0.7365   -0.0434 C.ar      1 <0>        -0.1242
     13 C13        -2.1281    2.1289    0.0860 C.ar      1 <0>        -0.0102
     14 C14        -0.8529    2.7235    0.1788 C.ar      1 <0>        -0.0509
     15 C15         0.3558    1.8951    0.1429 C.2       1 <0>         0.1203
     16 N1          0.2554    0.5973    0.1368 N.2       1 <0>        -0.2315
     17 N2          1.4105   -0.1945    0.0967 N.am      1 <0>        -0.5875
     18 C16         1.3065   -1.5382    0.0904 C.2       1 <0>         0.5325
     19 O1          0.2127   -2.0621    0.1194 O.2       1 <0>        -0.5050
     20 C17         2.5490   -2.3899    0.0473 C.3       1 <0>        -0.1208
     21 C18         2.1544   -3.8681    0.0487 C.3       1 <0>        -0.1245
     22 C19         3.3969   -4.7198    0.0056 C.2       1 <0>         0.5157
     23 O2          4.4904   -4.1960   -0.0234 O.2       1 <0>        -0.5166
     24 N3          3.2929   -6.0635   -0.0007 N.am      1 <0>        -0.6737
     25 C20         4.4446   -6.8547    0.0734 C.ar      1 <0>         0.1582
     26 C21         4.5017   -8.0658   -0.6044 C.ar      1 <0>        -0.1408
     27 C22         5.6415   -8.8423   -0.5340 C.ar      1 <0>        -0.0859
     28 C23         6.7219   -8.4210    0.2192 C.ar      1 <0>        -0.1255
     29 C24         6.6668   -7.2175    0.9001 C.ar      1 <0>        -0.0154
     30 C25         5.5303   -6.4334    0.8291 C.ar      1 <0>        -0.1143
     31 Cl1         8.0254   -6.6923    1.8446 Cl        1 <0>        -0.0628
     32 H1         -0.5000    7.9659    0.6570 H         1 <0>         0.1246
     33 H2          1.5227    6.5903    0.5969 H         1 <0>         0.1246
     34 H3          1.4052    4.1736    0.3776 H         1 <0>         0.1274
     35 H4         -2.7109    6.9734    0.4999 H         1 <0>         0.1315
     36 H5         -4.1147    4.9590    0.2769 H         1 <0>         0.1371
     37 H6         -5.4961    2.9292    0.0528 H         1 <0>         0.1296
     38 H7         -5.6316    0.5146   -0.1689 H         1 <0>         0.1223
     39 H8         -3.6190   -0.8755   -0.2303 H         1 <0>         0.1227
     40 H9         -1.3997    0.1007   -0.0735 H         1 <0>         0.1815
     41 H10         1.3295    2.3615    0.1171 H         1 <0>         0.1277
     42 H11         2.2850    0.2244    0.0736 H         1 <0>         0.3890
     43 H12         3.1124   -2.1651   -0.8583 H         1 <0>         0.1088
     44 H13         3.1655   -2.1776    0.9208 H         1 <0>         0.1087
     45 H14         1.5910   -4.0929    0.9544 H         1 <0>         0.1108
     46 H15         1.5379   -4.0804   -0.8248 H         1 <0>         0.1096
     47 H16         2.4197   -6.4822   -0.0567 H         1 <0>         0.4166
     48 H17         3.6567   -8.3981   -1.1891 H         1 <0>         0.1336
     49 H18         5.6873   -9.7822   -1.0640 H         1 <0>         0.1384
     50 H19         7.6102   -9.0325    0.2765 H         1 <0>         0.1360
     51 H20         5.4874   -5.4942    1.3605 H         1 <0>         0.1438
@<TRIPOS>BOND
     1    1    6 ar
     2    1    2 ar
     3    1   32 1
     4    2    3 ar
     5    2   33 1
     6    3    4 ar
     7    3   34 1
     8    4   14 ar
     9    4    5 ar
    10    5    6 ar
    11    5    7 ar
    12    6   35 1
    13    7    8 ar
    14    7   36 1
    15    8   13 ar
    16    8    9 ar
    17    9   10 ar
    18    9   37 1
    19   10   11 ar
    20   10   38 1
    21   11   12 ar
    22   11   39 1
    23   12   13 ar
    24   12   40 1
    25   13   14 ar
    26   14   15 1
    27   15   16 2
    28   15   41 1
    29   16   17 1
    30   17   18 am
    31   17   42 1
    32   18   19 2
    33   18   20 1
    34   20   21 1
    35   20   43 1
    36   20   44 1
    37   21   22 1
    38   21   45 1
    39   21   46 1
    40   22   23 2
    41   22   24 am
    42   24   25 1
    43   24   47 1
    44   25   30 ar
    45   25   26 ar
    46   26   27 ar
    47   26   48 1
    48   27   28 ar
    49   27   49 1
    50   28   29 ar
    51   28   50 1
    52   29   30 ar
    53   29   31 1
    54   30   51 1
