@<TRIPOS>MOLECULE
ZINC19796168
   63    66     0     0     0
SMALL
USER_CHARGES

@<TRIPOS>ATOM
      1 C1         -0.0187    1.5258    0.0104 C.3       1 <0>        -0.1516
      2 C2          0.0021   -0.0041    0.0020 C.3       1 <0>        -0.1160
      3 C3          0.7182   -0.4975   -1.2568 C.3       1 <0>        -0.0368
      4 C4          0.7386   -2.0043   -1.2651 C.2       1 <0>         0.1083
      5 C5          1.7436   -2.8145   -0.7017 C.2       1 <0>         0.0436
      6 C6          1.3716   -4.1454   -0.9309 C.2       1 <0>        -0.0357
      7 C7          2.2155   -5.1793   -0.4631 C.2       1 <0>         0.5719
      8 O1          1.9272   -6.3498   -0.6430 O.2       1 <0>        -0.5217
      9 N1          3.3497   -4.8379    0.1877 N.am      1 <0>        -0.6330
     10 H1          3.9439   -5.5300    0.5176 H         1 <0>         0.4219
     11 C8          3.6639   -3.5203    0.3833 C.2       1 <0>         0.3994
     12 N2          2.8908   -2.5515   -0.0437 N.2       1 <0>        -0.4298
     13 C9          4.9101   -3.1798    1.0980 C.ar      1 <0>        -0.1126
     14 C10         5.7536   -4.1922    1.5597 C.ar      1 <0>         0.0399
     15 C11         6.9158   -3.8678    2.2265 C.ar      1 <0>        -0.7185
     16 C12         7.2508   -2.5412    2.4411 C.ar      1 <0>         0.0430
     17 C13         6.4250   -1.5305    1.9894 C.ar      1 <0>        -0.2315
     18 C14         5.2556   -1.8391    1.3116 C.ar      1 <0>         0.2415
     19 O2          4.4461   -0.8467    0.8623 O.3       1 <0>        -0.2578
     20 C15         4.8632    0.4961    1.1168 C.3       1 <0>         0.0414
     21 C16         3.8319    1.4685    0.5407 C.3       1 <0>        -0.1519
     22 S1          7.9793   -5.1464    2.8085 S.o2      1 <0>         2.6926
     23 O3          8.7312   -4.5930    3.8798 O.2       1 <0>        -0.9482
     24 O4          7.1730   -6.3063    2.9631 O.2       1 <0>        -0.9501
     25 N3          9.0568   -5.4772    1.5953 N.pl3     1 <0>        -0.9979
     26 C17         8.7556   -6.4921    0.5742 C.3       1 <0>         0.1239
     27 C18         8.9742   -5.8704   -0.8093 C.3       1 <0>         0.0382
     28 N4         10.3268   -5.3015   -0.8788 N.3       1 <0>        -0.5395
     29 C19        10.4964   -4.2104    0.0900 C.3       1 <0>         0.0386
     30 C20        10.3376   -4.7598    1.5068 C.3       1 <0>         0.1243
     31 C21        10.6381   -4.8489   -2.2412 C.3       1 <0>         0.0245
     32 N5          0.1842   -4.1164   -1.6082 N.pl3     1 <0>        -0.3299
     33 N6         -0.1751   -2.7746   -1.7907 N.2       1 <0>        -0.2328
     34 C22        -0.5794   -5.2824   -2.0596 C.3       1 <0>         0.0994
     35 H2          1.0039    1.9031    0.0027 H         1 <0>         0.0577
     36 H3         -0.5459    1.8868   -0.8726 H         1 <0>         0.0559
     37 H4         -0.5289    1.8773    0.9072 H         1 <0>         0.0565
     38 H5          0.5293   -0.3651    0.8851 H         1 <0>         0.0665
     39 H6         -1.0205   -0.3814    0.0098 H         1 <0>         0.0628
     40 H7          0.1910   -0.1364   -2.1398 H         1 <0>         0.0831
     41 H8          1.7408   -0.1202   -1.2645 H         1 <0>         0.0935
     42 H9          5.4957   -5.2279    1.3950 H         1 <0>         0.1438
     43 H10         8.1628   -2.2958    2.9650 H         1 <0>         0.1492
     44 H11         6.6926   -0.4983    2.1608 H         1 <0>         0.1488
     45 H12         4.9489    0.6524    2.1922 H         1 <0>         0.0678
     46 H13         5.8306    0.6715    0.6460 H         1 <0>         0.0666
     47 H14         3.7463    1.3123   -0.5346 H         1 <0>         0.0692
     48 H15         2.8646    1.2931    1.0115 H         1 <0>         0.0720
     49 H16         4.1502    2.4927    0.7349 H         1 <0>         0.0796
     50 H17         9.4199   -7.3470    0.7005 H         1 <0>         0.0879
     51 H18         7.7185   -6.8131    0.6717 H         1 <0>         0.0935
     52 H19         8.8627   -6.6382   -1.5748 H         1 <0>         0.0901
     53 H20         8.2393   -5.0824   -0.9741 H         1 <0>         0.0394
     54 H21        11.4890   -3.7744   -0.0233 H         1 <0>         0.0905
     55 H22         9.7403   -3.4456   -0.0874 H         1 <0>         0.0393
     56 H23        10.3460   -3.9360    2.2206 H         1 <0>         0.0948
     57 H24        11.1569   -5.4449    1.7245 H         1 <0>         0.0867
     58 H25         9.9216   -4.0848   -2.5429 H         1 <0>         0.0257
     59 H26        11.6450   -4.4322   -2.2645 H         1 <0>         0.0713
     60 H27        10.5786   -5.6939   -2.9273 H         1 <0>         0.0713
     61 H28        -1.2781   -5.5834   -1.2791 H         1 <0>         0.0824
     62 H29        -1.1323   -5.0268   -2.9634 H         1 <0>         0.0965
     63 H30         0.1042   -6.1043   -2.2721 H         1 <0>         0.1003
@<TRIPOS>BOND
     1    1    2 1
     2    1   35 1
     3    1   36 1
     4    1   37 1
     5    2    3 1
     6    2   38 1
     7    2   39 1
     8    3    4 1
     9    3   40 1
    10    3   41 1
    11    4   33 2
    12    4    5 1
    13    5   12 1
    14    5    6 2
    15    6    7 1
    16    6   32 1
    17    7    8 2
    18    7    9 am
    19    9   10 1
    20    9   11 1
    21   11   12 2
    22   11   13 1
    23   13   18 ar
    24   13   14 ar
    25   14   15 ar
    26   14   42 1
    27   15   16 ar
    28   15   22 1
    29   16   17 ar
    30   16   43 1
    31   17   18 ar
    32   17   44 1
    33   18   19 1
    34   19   20 1
    35   20   21 1
    36   20   45 1
    37   20   46 1
    38   21   47 1
    39   21   48 1
    40   21   49 1
    41   22   23 2
    42   22   24 2
    43   22   25 1
    44   25   30 1
    45   25   26 1
    46   26   27 1
    47   26   50 1
    48   26   51 1
    49   27   28 1
    50   27   52 1
    51   27   53 1
    52   28   29 1
    53   28   31 1
    54   29   30 1
    55   29   54 1
    56   29   55 1
    57   30   56 1
    58   30   57 1
    59   31   58 1
    60   31   59 1
    61   31   60 1
    62   32   33 1
    63   32   34 1
    64   34   61 1
    65   34   62 1
    66   34   63 1
@<TRIPOS>MOLECULE
ZINC19796168
   63    66     0     0     0
SMALL
USER_CHARGES

@<TRIPOS>ATOM
      1 C1         -0.0187    1.5258    0.0104 C.3       1 <0>        -0.1539
      2 C2          0.0021   -0.0041    0.0020 C.3       1 <0>        -0.1188
      3 C3          0.7182   -0.4975   -1.2568 C.3       1 <0>        -0.0455
      4 C4          0.7386   -2.0043   -1.2651 C.2       1 <0>         0.0795
      5 C5          1.7371   -2.8090   -0.7054 C.2       1 <0>         0.0226
      6 C6          1.3740   -4.1350   -0.9304 C.2       1 <0>        -0.0270
      7 C7          2.2608   -5.1909   -0.4384 C.2       1 <0>         0.5560
      8 O1          1.9844   -6.3672   -0.6123 O.2       1 <0>        -0.4907
      9 N1          3.3842   -4.8398    0.2075 N.2       1 <0>        -0.5489
     10 C8          3.6977   -3.5767    0.4033 C.2       1 <0>         0.4949
     11 N2          2.9154   -2.5523   -0.0295 N.pl3     1 <0>        -0.5912
     12 C9          4.9471   -3.2598    1.1207 C.ar      1 <0>        -0.1387
     13 C10         5.3072   -1.9297    1.3507 C.ar      1 <0>         0.0502
     14 C11         6.4754   -1.6404    2.0219 C.ar      1 <0>        -0.7241
     15 C12         7.2958   -2.6630    2.4697 C.ar      1 <0>         0.0516
     16 C13         6.9520   -3.9820    2.2486 C.ar      1 <0>        -0.2347
     17 C14         5.7769   -4.2915    1.5805 C.ar      1 <0>         0.2542
     18 O2          5.4349   -5.5872    1.3679 O.3       1 <0>        -0.2513
     19 C15         6.3296   -6.5843    1.8652 C.3       1 <0>         0.0415
     20 C16         5.7806   -7.9733    1.5332 C.3       1 <0>        -0.1498
     21 S1          6.9282    0.0377    2.3112 S.o2      1 <0>         2.6935
     22 O3          8.3389    0.0542    2.4813 O.2       1 <0>        -0.9470
     23 O4          6.2716    0.8126    1.3174 O.2       1 <0>        -0.9501
     24 N3          6.2708    0.4783    3.7659 N.pl3     1 <0>        -0.9978
     25 C17         4.9211    1.0580    3.8397 C.3       1 <0>         0.1243
     26 C18         4.1139    0.2804    4.8848 C.3       1 <0>         0.0380
     27 N4          4.8523    0.2619    6.1546 N.3       1 <0>        -0.5392
     28 C19         6.1314   -0.4472    6.0169 C.3       1 <0>         0.0382
     29 C20         7.0189    0.2948    5.0189 C.3       1 <0>         0.1242
     30 C21         4.0386   -0.3238    7.2283 C.3       1 <0>         0.0243
     31 N5          0.1890   -4.1166   -1.6070 N.pl3     1 <0>        -0.3265
     32 N6         -0.1769   -2.7759   -1.7917 N.2       1 <0>        -0.2363
     33 C22        -0.5677   -5.2881   -2.0556 C.3       1 <0>         0.1018
     34 H1          1.0039    1.9031    0.0027 H         1 <0>         0.0587
     35 H2         -0.5459    1.8868   -0.8726 H         1 <0>         0.0584
     36 H3         -0.5289    1.8773    0.9072 H         1 <0>         0.0590
     37 H4          0.5293   -0.3651    0.8851 H         1 <0>         0.0617
     38 H5         -1.0205   -0.3814    0.0098 H         1 <0>         0.0685
     39 H6          0.1910   -0.1364   -2.1398 H         1 <0>         0.0924
     40 H7          1.7408   -0.1202   -1.2645 H         1 <0>         0.0851
     41 H8          4.6710   -1.1293    1.0027 H         1 <0>         0.1448
     42 H9          8.2097   -2.4272    2.9946 H         1 <0>         0.1511
     43 H10         7.5970   -4.7736    2.6002 H         1 <0>         0.1511
     44 H11         7.3075   -6.4595    1.4002 H         1 <0>         0.0690
     45 H12         6.4252   -6.4802    2.9460 H         1 <0>         0.0679
     46 H13         6.4630   -8.7339    1.9125 H         1 <0>         0.0796
     47 H14         4.8027   -8.0982    1.9981 H         1 <0>         0.0699
     48 H15         5.6850   -8.0774    0.4524 H         1 <0>         0.0705
     49 H16         4.9880    2.1054    4.1338 H         1 <0>         0.0882
     50 H17         4.4346    0.9780    2.8676 H         1 <0>         0.0929
     51 H18         3.1485    0.7644    5.0325 H         1 <0>         0.0901
     52 H19         3.9598   -0.7416    4.5387 H         1 <0>         0.0392
     53 H20         6.6291   -0.4910    6.9857 H         1 <0>         0.0908
     54 H21         5.9492   -1.4591    5.6551 H         1 <0>         0.0394
     55 H22         7.9186   -0.2894    4.8260 H         1 <0>         0.0949
     56 H23         7.2913    1.2675    5.4285 H         1 <0>         0.0873
     57 H24         3.7712   -1.3470    6.9645 H         1 <0>         0.0259
     58 H25         4.6091   -0.3253    8.1570 H         1 <0>         0.0715
     59 H26         3.1316    0.2663    7.3599 H         1 <0>         0.0715
     60 H27        -1.2651   -5.5910   -1.2745 H         1 <0>         0.0826
     61 H28        -1.1218   -5.0381   -2.9604 H         1 <0>         0.0959
     62 H29         0.1207   -6.1067   -2.2656 H         1 <0>         0.1018
     63 H30         3.1857   -1.6357    0.1370 H         1 <0>         0.4171
@<TRIPOS>BOND
     1    1    2 1
     2    1   34 1
     3    1   35 1
     4    1   36 1
     5    2    3 1
     6    2   37 1
     7    2   38 1
     8    3    4 1
     9    3   39 1
    10    3   40 1
    11    4   32 2
    12    4    5 1
    13    5   11 1
    14    5    6 2
    15    6    7 1
    16    6   31 1
    17    7    8 2
    18    7    9 1
    19    9   10 2
    20   10   11 1
    21   10   12 1
    22   11   63 1
    23   12   17 ar
    24   12   13 ar
    25   13   14 ar
    26   13   41 1
    27   14   15 ar
    28   14   21 1
    29   15   16 ar
    30   15   42 1
    31   16   17 ar
    32   16   43 1
    33   17   18 1
    34   18   19 1
    35   19   20 1
    36   19   44 1
    37   19   45 1
    38   20   46 1
    39   20   47 1
    40   20   48 1
    41   21   22 2
    42   21   23 2
    43   21   24 1
    44   24   29 1
    45   24   25 1
    46   25   26 1
    47   25   49 1
    48   25   50 1
    49   26   27 1
    50   26   51 1
    51   26   52 1
    52   27   28 1
    53   27   30 1
    54   28   29 1
    55   28   53 1
    56   28   54 1
    57   29   55 1
    58   29   56 1
    59   30   57 1
    60   30   58 1
    61   30   59 1
    62   31   32 1
    63   31   33 1
    64   33   60 1
    65   33   61 1
    66   33   62 1
@<TRIPOS>MOLECULE
ZINC19796168
   62    65     0     0     0
SMALL
USER_CHARGES

@<TRIPOS>ATOM
      1 C1         -0.0187    1.5258    0.0104 C.3       1 <0>        -0.1485
      2 C2          0.0021   -0.0041    0.0020 C.3       1 <0>        -0.1148
      3 C3         -1.4333   -0.5336    0.0129 C.3       1 <0>        -0.0265
      4 C4         -1.4129   -2.0405    0.0046 C.2       1 <0>         0.0755
      5 C5         -1.4070   -2.8569   -1.1475 C.ar      1 <0>         0.0668
      6 C6         -1.3869   -4.1920   -0.7014 C.ar      1 <0>        -0.0515
      7 C7         -1.3777   -5.2165   -1.6565 C.ar      1 <0>         0.4648
      8 O1         -1.3588   -6.5164   -1.2751 O.3       1 <0>        -0.6909
      9 N1         -1.3884   -4.8893   -2.9402 N.ar      1 <0>        -0.5725
     10 C8         -1.4074   -3.6162   -3.3266 C.ar      1 <0>         0.3612
     11 N2         -1.4163   -2.6161   -2.4630 N.ar      1 <0>        -0.5554
     12 C9         -1.4186   -3.3091   -4.7764 C.ar      1 <0>        -0.0636
     13 C10        -1.4328   -1.9850   -5.2116 C.ar      1 <0>         0.0543
     14 C11        -1.4432   -1.7045   -6.5622 C.ar      1 <0>        -0.7317
     15 C12        -1.4396   -2.7334   -7.4883 C.ar      1 <0>         0.0205
     16 C13        -1.4256   -4.0494   -7.0685 C.ar      1 <0>        -0.2451
     17 C14        -1.4092   -4.3463   -5.7145 C.ar      1 <0>         0.2216
     18 O2         -1.3897   -5.6394   -5.3005 O.3       1 <0>        -0.2427
     19 C15        -1.3811   -6.6454   -6.3153 C.3       1 <0>         0.0442
     20 C16        -1.3591   -8.0288   -5.6620 C.3       1 <0>        -0.1464
     21 S1         -1.4617   -0.0302   -7.1108 S.o2      1 <0>         2.6962
     22 O3         -2.0201   -0.0370   -8.4174 O.2       1 <0>        -0.9629
     23 O4         -2.0135    0.7385   -6.0505 O.2       1 <0>        -0.9522
     24 N3          0.1150    0.4496   -7.2724 N.pl3     1 <0>        -1.0004
     25 C17         0.8390    1.0557   -6.1447 C.3       1 <0>         0.1268
     26 C18         2.1670    0.3130   -5.9632 C.3       1 <0>         0.0372
     27 N4          2.8976    0.3041   -7.2376 N.3       1 <0>        -0.5398
     28 C19         2.1569   -0.4314   -8.2713 C.3       1 <0>         0.0376
     29 C20         0.8304    0.2753   -8.5456 C.3       1 <0>         0.1276
     30 C21         4.2487   -0.2463   -7.0660 C.3       1 <0>         0.0248
     31 N5         -1.3812   -4.1504    0.6672 N.pl3     1 <0>        -0.3678
     32 N6         -1.3920   -2.8055    1.0596 N.2       1 <0>        -0.2631
     33 C22        -1.3618   -5.3088    1.5638 C.3       1 <0>         0.1224
     34 H1          1.0039    1.9031    0.0027 H         1 <0>         0.0507
     35 H2         -0.5459    1.8868   -0.8726 H         1 <0>         0.0575
     36 H3         -0.5289    1.8773    0.9072 H         1 <0>         0.0512
     37 H4          0.5123   -0.3556   -0.8948 H         1 <0>         0.0656
     38 H5          0.5293   -0.3651    0.8851 H         1 <0>         0.0578
     39 H6         -1.9435   -0.1821    0.9097 H         1 <0>         0.0708
     40 H7         -1.9605   -0.1726   -0.8702 H         1 <0>         0.0861
     41 H8         -1.4360   -1.1795   -4.4922 H         1 <0>         0.1566
     42 H9         -1.4482   -2.5062   -8.5441 H         1 <0>         0.1359
     43 H10        -1.4233   -4.8477   -7.7959 H         1 <0>         0.1361
     44 H11        -2.2755   -6.5484   -6.9307 H         1 <0>         0.0581
     45 H12        -0.4957   -6.5243   -6.9395 H         1 <0>         0.0570
     46 H13        -1.3526   -8.7961   -6.4360 H         1 <0>         0.0694
     47 H14        -0.4647   -8.1258   -5.0466 H         1 <0>         0.0690
     48 H15        -2.2445   -8.1499   -5.0378 H         1 <0>         0.0696
     49 H16         1.0335    2.1070   -6.3571 H         1 <0>         0.0814
     50 H17         0.2427    0.9670   -5.2366 H         1 <0>         0.0979
     51 H18         2.7652    0.8176   -5.2045 H         1 <0>         0.0879
     52 H19         1.9704   -0.7122   -5.6495 H         1 <0>         0.0449
     53 H20         2.7478   -0.4666   -9.1865 H         1 <0>         0.0858
     54 H21         1.9605   -1.4462   -7.9254 H         1 <0>         0.0417
     55 H22         0.2284   -0.3292   -9.2240 H         1 <0>         0.0922
     56 H23         1.0240    1.2501   -8.9932 H         1 <0>         0.0807
     57 H24         4.1801   -1.2690   -6.6954 H         1 <0>         0.0264
     58 H25         4.7675   -0.2413   -8.0246 H         1 <0>         0.0675
     59 H26         4.8011    0.3631   -6.3508 H         1 <0>         0.0692
     60 H27        -0.3294   -5.5825    1.7815 H         1 <0>         0.0592
     61 H28        -1.8748   -5.0582    2.4923 H         1 <0>         0.0722
     62 H29        -1.8667   -6.1476    1.0847 H         1 <0>         0.0961
@<TRIPOS>BOND
     1    1    2 1
     2    1   34 1
     3    1   35 1
     4    1   36 1
     5    2    3 1
     6    2   37 1
     7    2   38 1
     8    3    4 1
     9    3   39 1
    10    3   40 1
    11    4   32 2
    12    4    5 1
    13    5   11 ar
    14    5    6 ar
    15    6    7 ar
    16    6   31 1
    17    7    8 1
    18    7    9 ar
    19    9   10 ar
    20   10   11 ar
    21   10   12 1
    22   12   17 ar
    23   12   13 ar
    24   13   14 ar
    25   13   41 1
    26   14   15 ar
    27   14   21 1
    28   15   16 ar
    29   15   42 1
    30   16   17 ar
    31   16   43 1
    32   17   18 1
    33   18   19 1
    34   19   20 1
    35   19   44 1
    36   19   45 1
    37   20   46 1
    38   20   47 1
    39   20   48 1
    40   21   22 2
    41   21   23 2
    42   21   24 1
    43   24   29 1
    44   24   25 1
    45   25   26 1
    46   25   49 1
    47   25   50 1
    48   26   27 1
    49   26   51 1
    50   26   52 1
    51   27   28 1
    52   27   30 1
    53   28   29 1
    54   28   53 1
    55   28   54 1
    56   29   55 1
    57   29   56 1
    58   30   57 1
    59   30   58 1
    60   30   59 1
    61   31   32 1
    62   31   33 1
    63   33   60 1
    64   33   61 1
    65   33   62 1
@<TRIPOS>MOLECULE
ZINC19796168
   64    67     0     0     0
SMALL
USER_CHARGES

@<TRIPOS>ATOM
      1 C1         -0.0187    1.5258    0.0104 C.3       1 <0>        -0.1524
      2 C2          0.0021   -0.0041    0.0020 C.3       1 <0>        -0.1163
      3 C3         -1.4333   -0.5336    0.0129 C.3       1 <0>        -0.0382
      4 C4         -1.4129   -2.0405    0.0046 C.2       1 <0>         0.1125
      5 C5         -1.4070   -2.8548   -1.1446 C.2       1 <0>         0.0358
      6 C6         -1.3861   -4.1841   -0.7032 C.2       1 <0>        -0.0303
      7 C7         -1.3769   -5.2214   -1.6643 C.2       1 <0>         0.5721
      8 O1         -1.3591   -6.3907   -1.3206 O.2       1 <0>        -0.5177
      9 N1         -1.3887   -4.8848   -2.9731 N.am      1 <0>        -0.6346
     10 H1         -1.3827   -5.5793   -3.6502 H         1 <0>         0.4185
     11 C8         -1.4095   -3.5686   -3.3476 C.2       1 <0>         0.3827
     12 N2         -1.4171   -2.5966   -2.4679 N.2       1 <0>        -0.4195
     13 C9         -1.4219   -3.2333   -4.7854 C.ar      1 <0>        -0.1025
     14 C10        -1.4183   -4.2493   -5.7432 C.ar      1 <0>         0.0333
     15 C11        -1.4299   -3.9298   -7.0842 C.ar      1 <0>        -0.7276
     16 C12        -1.4448   -2.6046   -7.4863 C.ar      1 <0>         0.0370
     17 C13        -1.4485   -1.5903   -6.5488 C.ar      1 <0>        -0.2285
     18 C14        -1.4433   -1.8942   -5.1961 C.ar      1 <0>         0.2470
     19 O2         -1.4527   -0.8984   -4.2738 O.3       1 <0>        -0.2539
     20 C15        -1.4745    0.4426   -4.7671 C.3       1 <0>         0.0414
     21 C16        -1.4823    1.4191   -3.5893 C.3       1 <0>        -0.1545
     22 S1         -1.4253   -5.2129   -8.2917 S.o2      1 <0>         2.6914
     23 O3         -0.8874   -4.6500   -9.4805 O.2       1 <0>        -0.9316
     24 O4         -0.8594   -6.3568   -7.6667 O.2       1 <0>        -0.9334
     25 N3         -3.0059   -5.5847   -8.6172 N.pl3     1 <0>        -1.0127
     26 C17        -3.7155   -6.6148   -7.8430 C.3       1 <0>         0.0947
     27 C18        -5.0462   -6.0287   -7.3599 C.3       1 <0>        -0.0248
     28 N4         -5.7976   -5.5098   -8.5098 N.4       1 <0>        -0.3832
     29 C19        -5.0699   -4.3889   -9.1182 C.3       1 <0>        -0.0235
     30 C20        -3.7420   -4.8899   -9.6846 C.3       1 <0>         0.0949
     31 C21        -7.1182   -5.0483   -8.0616 C.3       1 <0>        -0.0476
     32 N5         -1.3799   -4.1501    0.6637 N.pl3     1 <0>        -0.3251
     33 N6         -1.3920   -2.8068    1.0614 N.2       1 <0>        -0.2289
     34 C22        -1.3598   -5.3128    1.5547 C.3       1 <0>         0.0963
     35 H2          1.0039    1.9031    0.0027 H         1 <0>         0.0582
     36 H3         -0.5459    1.8868   -0.8726 H         1 <0>         0.0570
     37 H4         -0.5289    1.8773    0.9072 H         1 <0>         0.0575
     38 H5          0.5123   -0.3556   -0.8948 H         1 <0>         0.0655
     39 H6          0.5293   -0.3651    0.8851 H         1 <0>         0.0644
     40 H7         -1.9435   -0.1821    0.9097 H         1 <0>         0.0854
     41 H8         -1.9605   -0.1726   -0.8702 H         1 <0>         0.0931
     42 H9         -1.4060   -5.2840   -5.4339 H         1 <0>         0.1444
     43 H10        -1.4531   -2.3629   -8.5389 H         1 <0>         0.1495
     44 H11        -1.4598   -0.5592   -6.8698 H         1 <0>         0.1518
     45 H12        -0.5902    0.6189   -5.3794 H         1 <0>         0.0706
     46 H13        -2.3699    0.5934   -5.3701 H         1 <0>         0.0677
     47 H14        -1.4990    2.4420   -3.9655 H         1 <0>         0.0830
     48 H15        -2.3667    1.2428   -2.9770 H         1 <0>         0.0703
     49 H16        -0.5869    1.2683   -2.9863 H         1 <0>         0.0743
     50 H17        -3.9053   -7.4822   -8.4752 H         1 <0>         0.1071
     51 H18        -3.1115   -6.9087   -6.9845 H         1 <0>         0.1349
     52 H19        -5.6284   -6.8070   -6.8666 H         1 <0>         0.1469
     53 H20        -4.8527   -5.2186   -6.6568 H         1 <0>         0.1345
     54 H21        -5.6695   -3.9589   -9.9204 H         1 <0>         0.1472
     55 H22        -4.8756   -3.6285   -8.3618 H         1 <0>         0.1345
     56 H23        -3.1556   -4.0439  -10.0432 H         1 <0>         0.1362
     57 H24        -3.9345   -5.5801  -10.5059 H         1 <0>         0.1058
     58 H25        -6.9949   -4.2582   -7.3209 H         1 <0>         0.1220
     59 H26        -7.6771   -4.6629   -8.9144 H         1 <0>         0.1268
     60 H27        -7.6626   -5.8814   -7.6170 H         1 <0>         0.1264
     61 H28        -0.3273   -5.5873    1.7707 H         1 <0>         0.0857
     62 H29        -1.8725   -5.0668    2.4846 H         1 <0>         0.0997
     63 H30        -1.8648   -6.1494    1.0718 H         1 <0>         0.1010
     64 H31        -5.9143   -6.2436   -9.1925 H         1 <0>         0.4277
@<TRIPOS>BOND
     1    1    2 1
     2    1   35 1
     3    1   36 1
     4    1   37 1
     5    2    3 1
     6    2   38 1
     7    2   39 1
     8    3    4 1
     9    3   40 1
    10    3   41 1
    11    4   33 2
    12    4    5 1
    13    5   12 1
    14    5    6 2
    15    6    7 1
    16    6   32 1
    17    7    8 2
    18    7    9 am
    19    9   10 1
    20    9   11 1
    21   11   12 2
    22   11   13 1
    23   13   18 ar
    24   13   14 ar
    25   14   15 ar
    26   14   42 1
    27   15   16 ar
    28   15   22 1
    29   16   17 ar
    30   16   43 1
    31   17   18 ar
    32   17   44 1
    33   18   19 1
    34   19   20 1
    35   20   21 1
    36   20   45 1
    37   20   46 1
    38   21   47 1
    39   21   48 1
    40   21   49 1
    41   22   23 2
    42   22   24 2
    43   22   25 1
    44   25   30 1
    45   25   26 1
    46   26   27 1
    47   26   50 1
    48   26   51 1
    49   27   28 1
    50   27   52 1
    51   27   53 1
    52   28   29 1
    53   28   31 1
    54   28   64 1
    55   29   30 1
    56   29   54 1
    57   29   55 1
    58   30   56 1
    59   30   57 1
    60   31   58 1
    61   31   59 1
    62   31   60 1
    63   32   33 1
    64   32   34 1
    65   34   61 1
    66   34   62 1
    67   34   63 1
@<TRIPOS>MOLECULE
ZINC01533881
   48    49     0     0     0
SMALL
USER_CHARGES
5-[(6,7,8-trimethoxyquinazolin-4-yl)amino]pentyl nitrate
@<TRIPOS>ATOM
      1 C1         -3.3974   -1.8993   -0.1373 C.3       1 <0>         0.0215
      2 O1         -2.2051   -2.6790   -0.0254 O.3       1 <0>        -0.2999
      3 C2         -1.0246   -2.0040   -0.0171 C.ar      1 <0>         0.1169
      4 C3         -1.0256   -0.6404   -0.1141 C.ar      1 <0>        -0.1713
      5 C4          0.1876    0.0578   -0.1054 C.ar      1 <0>        -0.1537
      6 C5          1.4097   -0.6505    0.0033 C.ar      1 <0>         0.1539
      7 C6          1.3886   -2.0508    0.1014 C.ar      1 <0>         0.1242
      8 C7          0.1770   -2.7138    0.0903 C.ar      1 <0>         0.1003
      9 O2          0.1512   -4.0702    0.1851 O.3       1 <0>        -0.3185
     10 C8          0.2022   -4.8071   -1.0382 C.3       1 <0>         0.0387
     11 O3          2.5514   -2.7487    0.2061 O.3       1 <0>        -0.3100
     12 C9          3.0522   -2.9809    1.5242 C.3       1 <0>         0.0420
     13 N1          2.5589    0.0429    0.0088 N.ar      1 <0>        -0.5301
     14 C10         2.5466    1.3509   -0.0849 C.ar      1 <0>         0.3405
     15 N2          1.4297    2.0548   -0.1882 N.ar      1 <0>        -0.5864
     16 C11         0.2402    1.4689   -0.2033 C.ar      1 <0>         0.4691
     17 N3         -0.9153    2.2146   -0.3172 N.pl3     1 <0>        -0.6993
     18 C12        -0.8383    3.6742   -0.4172 C.3       1 <0>         0.1267
     19 C13        -2.2500    4.2526   -0.5326 C.3       1 <0>        -0.1336
     20 C14        -2.1696    5.7770   -0.6371 C.3       1 <0>        -0.1113
     21 C15        -3.5813    6.3554   -0.7525 C.3       1 <0>        -0.1099
     22 C16        -3.5009    7.8797   -0.8570 C.3       1 <0>         0.0251
     23 O4         -4.8194    8.4200   -0.9648 O.3       1 <0>        -0.2188
     24 N4         -4.8567    9.8318   -1.0674 N.pl3     1 <0>         0.1236
     25 O5         -3.8198   10.4707   -1.0585 O.2       1 <0>        -0.1294
     26 O6         -5.9258   10.4073   -1.1646 O.3       1 <0>        -0.0762
     27 H1         -4.2649   -2.5593   -0.1318 H         1 <0>         0.1072
     28 H2         -3.4605   -1.2092    0.7041 H         1 <0>         0.0580
     29 H3         -3.3762   -1.3348   -1.0695 H         1 <0>         0.0572
     30 H4         -1.9592   -0.1037   -0.1969 H         1 <0>         0.1378
     31 H5         -0.6217   -4.4997   -1.6821 H         1 <0>         0.0483
     32 H6          1.1492   -4.6111   -1.5412 H         1 <0>         0.0532
     33 H7          0.1182   -5.8726   -0.8243 H         1 <0>         0.0991
     34 H8          3.2945   -2.0277    1.9940 H         1 <0>         0.0503
     35 H9          2.2945   -3.4952    2.1154 H         1 <0>         0.0494
     36 H10         3.9496   -3.5971    1.4686 H         1 <0>         0.0987
     37 H11         3.4894    1.8775   -0.0773 H         1 <0>         0.1976
     38 H12        -1.7785    1.7724   -0.3310 H         1 <0>         0.4096
     39 H13        -0.3533    4.0743    0.4732 H         1 <0>         0.0747
     40 H14        -0.2602    3.9479   -1.2999 H         1 <0>         0.0748
     41 H15        -2.7350    3.8525   -1.4230 H         1 <0>         0.0737
     42 H16        -2.8281    3.9790    0.3500 H         1 <0>         0.0737
     43 H17        -1.6846    6.1771    0.2533 H         1 <0>         0.0770
     44 H18        -1.5915    6.0506   -1.5197 H         1 <0>         0.0771
     45 H19        -4.0663    5.9553   -1.6429 H         1 <0>         0.0826
     46 H20        -4.1594    6.0817    0.1301 H         1 <0>         0.0826
     47 H21        -3.0159    8.2799    0.0334 H         1 <0>         0.0918
     48 H22        -2.9228    8.1534   -1.7396 H         1 <0>         0.0918
@<TRIPOS>BOND
     1    1    2 1
     2    1   27 1
     3    1   28 1
     4    1   29 1
     5    2    3 1
     6    3    8 ar
     7    3    4 ar
     8    4    5 ar
     9    4   30 1
    10    5   16 ar
    11    5    6 ar
    12    6    7 ar
    13    6   13 ar
    14    7    8 ar
    15    7   11 1
    16    8    9 1
    17    9   10 1
    18   10   31 1
    19   10   32 1
    20   10   33 1
    21   11   12 1
    22   12   34 1
    23   12   35 1
    24   12   36 1
    25   13   14 ar
    26   14   15 ar
    27   14   37 1
    28   15   16 ar
    29   16   17 1
    30   17   18 1
    31   17   38 1
    32   18   19 1
    33   18   39 1
    34   18   40 1
    35   19   20 1
    36   19   41 1
    37   19   42 1
    38   20   21 1
    39   20   43 1
    40   20   44 1
    41   21   22 1
    42   21   45 1
    43   21   46 1
    44   22   23 1
    45   22   47 1
    46   22   48 1
    47   23   24 1
    48   24   25 2
    49   24   26 1
@<TRIPOS>MOLECULE
ZINC09224016
   25    26     0     0     0
SMALL
USER_CHARGES

@<TRIPOS>ATOM
      1 C1         -0.0184    1.5028    0.0103 C.3       1 <0>        -0.1391
      2 C2          0.0021   -0.0041    0.0020 C.2       1 <0>         0.2276
      3 C3         -1.1906   -0.6918    0.0041 C.2       1 <0>        -0.1838
      4 C4         -1.1990   -2.0975   -0.0031 C.2       1 <0>         0.0727
      5 C5          0.0161   -2.7742   -0.0126 C.2       1 <0>        -0.1606
      6 C6          1.2525   -1.9900   -0.0149 C.2       1 <0>         0.5412
      7 N1          1.1865   -0.6449   -0.0127 N.am      1 <0>        -0.5906
      8 O1          2.3345   -2.5509   -0.0232 O.2       1 <0>        -0.5158
      9 C7          0.0570   -4.2056   -0.0197 C.1       1 <0>         0.2716
     10 N2          0.0895   -5.3411   -0.0253 N.1       1 <0>        -0.4064
     11 C8         -2.4728    0.0540    0.0144 C.ar      1 <0>         0.0158
     12 C9         -2.8306    0.8519    1.1050 C.ar      1 <0>        -0.1625
     13 C10        -4.0319    1.5289    1.0733 C.ar      1 <0>         0.1042
     14 N3         -4.8375    1.4306    0.0329 N.ar      1 <0>        -0.4835
     15 C11        -4.5375    0.6886   -1.0161 C.ar      1 <0>         0.1054
     16 C12        -3.3536   -0.0172   -1.0689 C.ar      1 <0>        -0.1591
     17 H1          1.0042    1.8801    0.0026 H         1 <0>         0.0841
     18 H2         -0.5455    1.8639   -0.8728 H         1 <0>         0.1024
     19 H3         -0.5286    1.8543    0.9071 H         1 <0>         0.1042
     20 H4         -2.1318   -2.6419   -0.0008 H         1 <0>         0.1516
     21 H5         -2.1762    0.9367    1.9600 H         1 <0>         0.1377
     22 H6         -4.3172    2.1475    1.9114 H         1 <0>         0.1588
     23 H7         -5.2263    0.6366   -1.8464 H         1 <0>         0.1591
     24 H8         -3.1125   -0.6192   -1.9325 H         1 <0>         0.1389
     25 H9          2.0073   -0.1280   -0.0178 H         1 <0>         0.4261
@<TRIPOS>BOND
     1    1    2 1
     2    1   17 1
     3    1   18 1
     4    1   19 1
     5    2    7 1
     6    2    3 2
     7    3    4 1
     8    3   11 1
     9    4    5 2
    10    4   20 1
    11    5    6 1
    12    5    9 1
    13    6    7 am
    14    6    8 2
    15    7   25 1
    16    9   10 3
    17   11   16 ar
    18   11   12 ar
    19   12   13 ar
    20   12   21 1
    21   13   14 ar
    22   13   22 1
    23   14   15 ar
    24   15   16 ar
    25   15   23 1
    26   16   24 1
@<TRIPOS>MOLECULE
ZINC00056555
   46    48     0     0     0
SMALL
USER_CHARGES

@<TRIPOS>ATOM
      1 C1         -0.0173    1.4248    0.0099 C.3       1 <0>         0.0258
      2 O1          0.0021   -0.0041    0.0020 O.3       1 <0>        -0.3063
      3 C2          0.6262   -0.6188    1.0422 C.ar      1 <0>         0.0999
      4 C3          1.2021    0.1367    2.0510 C.ar      1 <0>        -0.1710
      5 C4          1.8358   -0.4897    3.1079 C.ar      1 <0>        -0.1122
      6 C5          1.8971   -1.8699    3.1612 C.ar      1 <0>        -0.0760
      7 C6          1.3251   -2.6295    2.1578 C.ar      1 <0>        -0.1547
      8 C7          0.6830   -2.0080    1.0988 C.ar      1 <0>         0.1015
      9 O2          0.1145   -2.7540    0.1140 O.3       1 <0>        -0.3064
     10 C8          0.2115   -4.1743    0.2380 C.3       1 <0>         0.0255
     11 C9          2.5896   -2.5476    4.3154 C.3       1 <0>        -0.0305
     12 C10         1.5954   -2.8002    5.4194 C.ar      1 <0>         0.1803
     13 C11         1.3868   -1.8306    6.4126 C.ar      1 <0>        -0.0927
     14 C12         2.0813   -0.6102    6.4178 C.ar      1 <0>        -0.1656
     15 C13         1.8397    0.2976    7.4073 C.ar      1 <0>         0.1202
     16 C14         0.9067    0.0284    8.4207 C.ar      1 <0>         0.1418
     17 C15         0.2161   -1.1496    8.4419 C.ar      1 <0>        -0.1891
     18 C16         0.4428   -2.1015    7.4380 C.ar      1 <0>        -0.0102
     19 C17        -0.2384   -3.3323    7.4069 C.ar      1 <0>        -0.1601
     20 C18         0.0362   -4.2060    6.3992 C.ar      1 <0>         0.0826
     21 N1          0.9194   -3.9252    5.4505 N.ar      1 <0>        -0.4840
     22 O3          0.6880    0.9516    9.3935 O.3       1 <0>        -0.3019
     23 C19        -0.2734    0.6206   10.3977 C.3       1 <0>         0.0223
     24 O4          2.5122    1.4790    7.4120 O.3       1 <0>        -0.3019
     25 C20         3.4494    1.6962    6.3553 C.3       1 <0>         0.0208
     26 H1          1.0053    1.8021    0.0021 H         1 <0>         0.0553
     27 H2         -0.5445    1.7859   -0.8732 H         1 <0>         0.1013
     28 H3         -0.5275    1.7763    0.9067 H         1 <0>         0.0545
     29 H4          1.1562    1.2150    2.0113 H         1 <0>         0.1358
     30 H5          2.2842    0.1003    3.8935 H         1 <0>         0.1221
     31 H6          1.3747   -3.7075    2.2017 H         1 <0>         0.1401
     32 H7          1.2614   -4.4664    0.2576 H         1 <0>         0.0558
     33 H8         -0.2714   -4.4922    1.1620 H         1 <0>         0.0564
     34 H9         -0.2815   -4.6476   -0.6111 H         1 <0>         0.1010
     35 H10         3.0097   -3.4961    3.9808 H         1 <0>         0.0985
     36 H11         3.3894   -1.9067    4.6863 H         1 <0>         0.0913
     37 H12         2.8023   -0.3917    5.6438 H         1 <0>         0.1473
     38 H13        -0.4993   -1.3466    9.2266 H         1 <0>         0.1459
     39 H14        -0.9645   -3.5793    8.1673 H         1 <0>         0.1371
     40 H15        -0.4831   -5.1525    6.3692 H         1 <0>         0.1540
     41 H16        -0.3511    1.4413   11.1107 H         1 <0>         0.1057
     42 H17        -1.2436    0.4521    9.9304 H         1 <0>         0.0589
     43 H18         0.0414   -0.2840   10.9179 H         1 <0>         0.0591
     44 H19         4.2164    0.9223    6.3853 H         1 <0>         0.0590
     45 H20         2.9316    1.6577    5.3969 H         1 <0>         0.0571
     46 H21         3.9148    2.6741    6.4778 H         1 <0>         0.1062
@<TRIPOS>BOND
     1    1    2 1
     2    1   26 1
     3    1   27 1
     4    1   28 1
     5    2    3 1
     6    3    8 ar
     7    3    4 ar
     8    4    5 ar
     9    4   29 1
    10    5    6 ar
    11    5   30 1
    12    6    7 ar
    13    6   11 1
    14    7    8 ar
    15    7   31 1
    16    8    9 1
    17    9   10 1
    18   10   32 1
    19   10   33 1
    20   10   34 1
    21   11   12 1
    22   11   35 1
    23   11   36 1
    24   12   21 ar
    25   12   13 ar
    26   13   18 ar
    27   13   14 ar
    28   14   15 ar
    29   14   37 1
    30   15   16 ar
    31   15   24 1
    32   16   17 ar
    33   16   22 1
    34   17   18 ar
    35   17   38 1
    36   18   19 ar
    37   19   20 ar
    38   19   39 1
    39   20   21 ar
    40   20   40 1
    41   22   23 1
    42   23   41 1
    43   23   42 1
    44   23   43 1
    45   24   25 1
    46   25   44 1
    47   25   45 1
    48   25   46 1
@<TRIPOS>MOLECULE
ZINC13741955
   65    67     0     0     0
SMALL
USER_CHARGES

@<TRIPOS>ATOM
      1 C1         -0.0063    1.5352   -0.0203 C.3       1 <0>        -0.1508
      2 C2          0.0098    0.0052   -0.0204 C.3       1 <0>        -0.1140
      3 C3          0.7280   -0.4972   -1.2745 C.3       1 <0>        -0.0644
      4 C4          0.7439   -2.0041   -1.2746 C.ar      1 <0>        -0.1560
      5 C5          1.7927   -2.6877   -0.6758 C.ar      1 <0>         0.1821
      6 C6          1.8134   -4.0799   -0.6718 C.ar      1 <0>        -0.2305
      7 C7          0.8037   -4.7874   -1.2566 C.ar      1 <0>        -0.0220
      8 C8         -0.2634   -4.1141   -1.8665 C.ar      1 <0>        -0.2412
      9 C9         -0.2903   -2.7076   -1.8667 C.ar      1 <0>         0.2093
     10 O1         -1.3206   -2.0451   -2.4485 O.3       1 <0>        -0.4711
     11 C10        -1.3482   -4.8713   -2.4958 C.2       1 <0>         0.3944
     12 O2         -2.3180   -4.2898   -2.9358 O.2       1 <0>        -0.4493
     13 C11        -1.2596   -6.3723   -2.5967 C.3       1 <0>        -0.2017
     14 O3          2.8032   -1.9960   -0.0918 O.3       1 <0>        -0.2873
     15 C12         3.8518   -2.7605    0.5065 C.3       1 <0>         0.0273
     16 C13         4.8925   -1.8147    1.1092 C.3       1 <0>         0.1148
     17 H1          5.2418   -1.1229    0.3428 H         1 <0>         0.1230
     18 C14         6.0749   -2.6284    1.6390 C.3       1 <0>         0.0288
     19 O4          7.0974   -1.7408    2.0959 O.3       1 <0>        -0.2875
     20 C15         8.2235   -2.3057    2.6004 C.ar      1 <0>         0.1810
     21 C16         8.3377   -3.6949    2.6463 C.ar      1 <0>        -0.2442
     22 C17         9.4629   -4.2772    3.1550 C.ar      1 <0>         0.0033
     23 C18        10.5016   -3.4754    3.6298 C.ar      1 <0>        -0.2603
     24 C19        11.7278   -4.0620    4.2007 C.2       1 <0>         0.4243
     25 O5         11.9934   -5.2450    4.0816 O.2       1 <0>        -0.4839
     26 C20        12.6146   -3.1306    4.9247 C.2       1 <0>        -0.3009
     27 C21        12.3913   -1.8007    4.7940 C.2       1 <0>         0.0963
     28 O6         11.4113   -1.3019    4.0267 O.3       1 <0>        -0.1917
     29 C22        10.4007   -2.0719    3.5813 C.ar      1 <0>         0.1887
     30 C23         9.2493   -1.4971    3.0588 C.ar      1 <0>        -0.1397
     31 C24         9.1147    0.0026    2.9964 C.3       1 <0>        -0.0644
     32 C25         8.4794    0.5120    4.2917 C.3       1 <0>        -0.1138
     33 C26         8.3428    2.0345    4.2283 C.3       1 <0>        -0.1483
     34 C27        13.2654   -0.8591    5.5293 C.2       1 <0>         0.5391
     35 O7         14.1662   -1.2865    6.2363 O.co2     1 <0>        -0.6427
     36 O8         13.0863    0.3459    5.4295 O.co2     1 <0>        -0.6456
     37 O9          4.3021   -1.0784    2.1822 O.3       1 <0>        -0.5360
     38 H2          1.0175    1.9093   -0.0272 H         1 <0>         0.0559
     39 H3         -0.5298    1.8931   -0.9068 H         1 <0>         0.0524
     40 H4         -0.5180    1.8931    0.8731 H         1 <0>         0.0540
     41 H5          0.5333   -0.3527    0.8661 H         1 <0>         0.0626
     42 H6         -1.0140   -0.3689   -0.0136 H         1 <0>         0.0615
     43 H7          0.2045   -0.1393   -2.1610 H         1 <0>         0.0714
     44 H8          1.7518   -0.1230   -1.2813 H         1 <0>         0.0780
     45 H9          2.6339   -4.6031   -0.2033 H         1 <0>         0.1365
     46 H10         0.8271   -5.8671   -1.2497 H         1 <0>         0.1409
     47 H11        -1.1829   -1.8484   -3.3852 H         1 <0>         0.3960
     48 H12        -0.3693   -6.7197   -2.0725 H         1 <0>         0.0810
     49 H13        -2.1450   -6.8197   -2.1449 H         1 <0>         0.0922
     50 H14        -1.2005   -6.6631   -3.6455 H         1 <0>         0.0943
     51 H15         3.4378   -3.3931    1.2916 H         1 <0>         0.0749
     52 H16         4.3243   -3.3849   -0.2518 H         1 <0>         0.0803
     53 H17         5.7426   -3.2562    2.4658 H         1 <0>         0.0729
     54 H18         6.4697   -3.2574    0.8412 H         1 <0>         0.0777
     55 H19         7.5321   -4.3128    2.2780 H         1 <0>         0.1327
     56 H20         9.5485   -5.3533    3.1900 H         1 <0>         0.1394
     57 H21        13.4200   -3.4993    5.5425 H         1 <0>         0.1665
     58 H22        10.1007    0.4511    2.8745 H         1 <0>         0.0816
     59 H23         8.4841    0.2759    2.1504 H         1 <0>         0.0754
     60 H24         7.4934    0.0635    4.4136 H         1 <0>         0.0581
     61 H25         9.1100    0.2387    5.1377 H         1 <0>         0.0637
     62 H26         9.3287    2.4830    4.1064 H         1 <0>         0.0584
     63 H27         7.7121    2.3079    3.3823 H         1 <0>         0.0505
     64 H28         7.8901    2.3974    5.1511 H         1 <0>         0.0511
     65 H29         3.9683   -1.6313    2.9018 H         1 <0>         0.3752
@<TRIPOS>BOND
     1    1    2 1
     2    1   38 1
     3    1   39 1
     4    1   40 1
     5    2    3 1
     6    2   41 1
     7    2   42 1
     8    3    4 1
     9    3   43 1
    10    3   44 1
    11    4    9 ar
    12    4    5 ar
    13    5    6 ar
    14    5   14 1
    15    6    7 ar
    16    6   45 1
    17    7    8 ar
    18    7   46 1
    19    8    9 ar
    20    8   11 1
    21    9   10 1
    22   10   47 1
    23   11   12 2
    24   11   13 1
    25   13   48 1
    26   13   49 1
    27   13   50 1
    28   14   15 1
    29   15   16 1
    30   15   51 1
    31   15   52 1
    32   16   17 1
    33   16   18 1
    34   16   37 1
    35   18   19 1
    36   18   53 1
    37   18   54 1
    38   19   20 1
    39   20   30 ar
    40   20   21 ar
    41   21   22 ar
    42   21   55 1
    43   22   23 ar
    44   22   56 1
    45   23   29 ar
    46   23   24 1
    47   24   25 2
    48   24   26 1
    49   26   27 2
    50   26   57 1
    51   27   28 1
    52   27   34 1
    53   28   29 1
    54   29   30 ar
    55   30   31 1
    56   31   32 1
    57   31   58 1
    58   31   59 1
    59   32   33 1
    60   32   60 1
    61   32   61 1
    62   33   62 1
    63   33   63 1
    64   33   64 1
    65   34   35 2
    66   34   36 1
    67   37   65 1
@<TRIPOS>MOLECULE
ZINC13741956
   65    67     0     0     0
SMALL
USER_CHARGES

@<TRIPOS>ATOM
      1 C1         -0.0063    1.5352   -0.0203 C.3       1 <0>        -0.1514
      2 C2          0.0098    0.0052   -0.0204 C.3       1 <0>        -0.1144
      3 C3          0.7280   -0.4972   -1.2745 C.3       1 <0>        -0.0652
      4 C4          0.7439   -2.0041   -1.2746 C.ar      1 <0>        -0.1559
      5 C5          1.7927   -2.6877   -0.6758 C.ar      1 <0>         0.1821
      6 C6          1.8134   -4.0799   -0.6718 C.ar      1 <0>        -0.2305
      7 C7          0.8037   -4.7874   -1.2566 C.ar      1 <0>        -0.0220
      8 C8         -0.2634   -4.1141   -1.8665 C.ar      1 <0>        -0.2412
      9 C9         -0.2903   -2.7076   -1.8667 C.ar      1 <0>         0.2093
     10 O1         -1.3206   -2.0451   -2.4485 O.3       1 <0>        -0.4711
     11 C10        -1.3482   -4.8713   -2.4958 C.2       1 <0>         0.3943
     12 O2         -2.3180   -4.2898   -2.9358 O.2       1 <0>        -0.4493
     13 C11        -1.2596   -6.3723   -2.5967 C.3       1 <0>        -0.2017
     14 O3          2.8032   -1.9960   -0.0918 O.3       1 <0>        -0.2873
     15 C12         3.8518   -2.7605    0.5065 C.3       1 <0>         0.0274
     16 C13         4.8925   -1.8147    1.1092 C.3       1 <0>         0.1145
     17 H1          4.4033   -1.1307    1.8027 H         1 <0>         0.1236
     18 C14         5.9497   -2.6296    1.8571 C.3       1 <0>         0.0288
     19 O4          6.8555   -1.7430    2.5171 O.3       1 <0>        -0.2874
     20 C15         7.8612   -2.3091    3.2311 C.ar      1 <0>         0.1810
     21 C16         7.9715   -3.6982    3.2862 C.ar      1 <0>        -0.2442
     22 C17         8.9756   -4.2817    4.0040 C.ar      1 <0>         0.0034
     23 C18         9.8942   -3.4811    4.6841 C.ar      1 <0>        -0.2603
     24 C19        10.9848   -4.0691    5.4830 C.2       1 <0>         0.4242
     25 O5         11.2752   -5.2500    5.4086 O.2       1 <0>        -0.4840
     26 C20        11.7041   -3.1419    6.3780 C.2       1 <0>        -0.3009
     27 C21        11.5042   -1.8116    6.2176 C.2       1 <0>         0.0962
     28 O6         10.6944   -1.3086    5.2746 O.3       1 <0>        -0.1917
     29 C22         9.7974   -2.0775    4.6292 C.ar      1 <0>         0.1887
     30 C23         8.7704   -1.5015    3.8926 C.ar      1 <0>        -0.1396
     31 C24         8.6429   -0.0018    3.8183 C.3       1 <0>        -0.0654
     32 C25         7.7589    0.4924    4.9652 C.3       1 <0>        -0.1141
     33 C26         7.6294    2.0150    4.8897 C.3       1 <0>        -0.1489
     34 C27        12.2087   -0.8744    7.1213 C.2       1 <0>         0.5392
     35 O7         12.9525   -1.3058    7.9900 O.co2     1 <0>        -0.6427
     36 O8         12.0466    0.3309    6.9987 O.co2     1 <0>        -0.6456
     37 O9          5.5184   -1.0671    0.0645 O.3       1 <0>        -0.5369
     38 H2          1.0175    1.9093   -0.0272 H         1 <0>         0.0559
     39 H3         -0.5298    1.8931   -0.9068 H         1 <0>         0.0532
     40 H4         -0.5180    1.8931    0.8731 H         1 <0>         0.0542
     41 H5          0.5333   -0.3527    0.8661 H         1 <0>         0.0609
     42 H6         -1.0140   -0.3689   -0.0136 H         1 <0>         0.0622
     43 H7          0.2045   -0.1393   -2.1610 H         1 <0>         0.0717
     44 H8          1.7518   -0.1230   -1.2813 H         1 <0>         0.0796
     45 H9          2.6339   -4.6031   -0.2033 H         1 <0>         0.1365
     46 H10         0.8271   -5.8671   -1.2497 H         1 <0>         0.1409
     47 H11        -1.1829   -1.8484   -3.3852 H         1 <0>         0.3959
     48 H12        -0.3693   -6.7197   -2.0725 H         1 <0>         0.0810
     49 H13        -2.1450   -6.8197   -2.1449 H         1 <0>         0.0923
     50 H14        -1.2005   -6.6631   -3.6455 H         1 <0>         0.0942
     51 H15         3.4378   -3.3931    1.2916 H         1 <0>         0.0805
     52 H16         4.3243   -3.3849   -0.2518 H         1 <0>         0.0747
     53 H17         5.4623   -3.2667    2.5951 H         1 <0>         0.0781
     54 H18         6.4993   -3.2491    1.1484 H         1 <0>         0.0727
     55 H19         7.2590   -4.3153    2.7588 H         1 <0>         0.1327
     56 H20         9.0583   -5.3577    4.0456 H         1 <0>         0.1394
     57 H21        12.3719   -3.5141    7.1409 H         1 <0>         0.1665
     58 H22         9.6309    0.4513    3.8999 H         1 <0>         0.0819
     59 H23         8.1924    0.2778    2.8659 H         1 <0>         0.0771
     60 H24         6.7709    0.0392    4.8836 H         1 <0>         0.0562
     61 H25         8.2094    0.2127    5.9175 H         1 <0>         0.0644
     62 H26         8.6174    2.4681    4.9713 H         1 <0>         0.0592
     63 H27         7.1790    2.2946    3.9373 H         1 <0>         0.0507
     64 H28         6.9997    2.3670    5.7068 H         1 <0>         0.0511
     65 H29         5.9743   -1.6127   -0.5908 H         1 <0>         0.3749
@<TRIPOS>BOND
     1    1    2 1
     2    1   38 1
     3    1   39 1
     4    1   40 1
     5    2    3 1
     6    2   41 1
     7    2   42 1
     8    3    4 1
     9    3   43 1
    10    3   44 1
    11    4    9 ar
    12    4    5 ar
    13    5    6 ar
    14    5   14 1
    15    6    7 ar
    16    6   45 1
    17    7    8 ar
    18    7   46 1
    19    8    9 ar
    20    8   11 1
    21    9   10 1
    22   10   47 1
    23   11   12 2
    24   11   13 1
    25   13   48 1
    26   13   49 1
    27   13   50 1
    28   14   15 1
    29   15   16 1
    30   15   51 1
    31   15   52 1
    32   16   17 1
    33   16   18 1
    34   16   37 1
    35   18   19 1
    36   18   53 1
    37   18   54 1
    38   19   20 1
    39   20   30 ar
    40   20   21 ar
    41   21   22 ar
    42   21   55 1
    43   22   23 ar
    44   22   56 1
    45   23   29 ar
    46   23   24 1
    47   24   25 2
    48   24   26 1
    49   26   27 2
    50   26   57 1
    51   27   28 1
    52   27   34 1
    53   28   29 1
    54   29   30 ar
    55   30   31 1
    56   31   32 1
    57   31   58 1
    58   31   59 1
    59   32   33 1
    60   32   60 1
    61   32   61 1
    62   33   62 1
    63   33   63 1
    64   33   64 1
    65   34   35 2
    66   34   36 1
    67   37   65 1
@<TRIPOS>MOLECULE
ZINC14953365
   31    33     0     0     0
SMALL
USER_CHARGES

@<TRIPOS>ATOM
      1 C1         -0.0187    1.5258    0.0104 C.3       1 <0>        -0.1423
      2 C2          0.0021   -0.0041    0.0020 C.3       1 <0>        -0.1231
      3 C3          0.7421   -0.5109    1.2415 C.3       1 <0>         0.0541
      4 O1          0.7614   -1.9398    1.2337 O.3       1 <0>        -0.2395
      5 C4          1.3846   -2.5535    2.2722 C.ar      1 <0>         0.1595
      6 C5          1.9611   -1.7987    3.2821 C.ar      1 <0>        -0.2333
      7 C6          2.5948   -2.4244    4.3380 C.ar      1 <0>        -0.0982
      8 C7          2.6582   -3.8062    4.3957 C.ar      1 <0>        -0.1779
      9 C8          2.0888   -4.5703    3.3986 C.ar      1 <0>        -0.0533
     10 C9          1.4423   -3.9501    2.3303 C.ar      1 <0>        -0.0190
     11 C10         0.8245   -4.7657    1.2592 C.ar      1 <0>         0.3508
     12 N1          0.2275   -4.1264    0.2544 N.ar      1 <0>        -0.6291
     13 C11        -0.3501   -4.7739   -0.7445 C.ar      1 <0>         0.5035
     14 O2         -0.9512   -4.1076   -1.7566 O.3       1 <0>        -0.7157
     15 C12        -0.3151   -6.2310   -0.7156 C.ar      1 <0>        -0.1910
     16 N2         -0.7406   -7.2297   -1.4617 N.2       1 <0>        -0.3291
     17 N3         -0.3994   -8.3395   -0.9027 N.2       1 <0>        -0.1963
     18 N4          0.2445   -8.1643    0.1989 N.2       1 <0>        -0.3779
     19 C13         0.3620   -6.8697    0.4258 C.ar      1 <0>         0.1454
     20 N5          0.9051   -6.0766    1.3584 N.ar      1 <0>        -0.5680
     21 H1          1.0039    1.9031    0.0027 H         1 <0>         0.0496
     22 H2         -0.5459    1.8868   -0.8726 H         1 <0>         0.0570
     23 H3         -0.5289    1.8773    0.9072 H         1 <0>         0.0496
     24 H4         -1.0205   -0.3814    0.0098 H         1 <0>         0.0770
     25 H5          0.5123   -0.3556   -0.8948 H         1 <0>         0.0771
     26 H6          1.7647   -0.1336    1.2338 H         1 <0>         0.0463
     27 H7          0.2319   -0.1594    2.1383 H         1 <0>         0.0462
     28 H8          1.9151   -0.7204    3.2430 H         1 <0>         0.1171
     29 H9          3.0433   -1.8327    5.1223 H         1 <0>         0.1089
     30 H10         3.1558   -4.2876    5.2246 H         1 <0>         0.1125
     31 H11         2.1408   -5.6480    3.4470 H         1 <0>         0.1392
@<TRIPOS>BOND
     1    1    2 1
     2    1   21 1
     3    1   22 1
     4    1   23 1
     5    2    3 1
     6    2   24 1
     7    2   25 1
     8    3    4 1
     9    3   26 1
    10    3   27 1
    11    4    5 1
    12    5   10 ar
    13    5    6 ar
    14    6    7 ar
    15    6   28 1
    16    7    8 ar
    17    7   29 1
    18    8    9 ar
    19    8   30 1
    20    9   10 ar
    21    9   31 1
    22   10   11 1
    23   11   20 ar
    24   11   12 ar
    25   12   13 ar
    26   13   14 1
    27   13   15 ar
    28   15   19 ar
    29   15   16 2
    30   16   17 1
    31   17   18 1
    32   18   19 2
    33   19   20 ar
@<TRIPOS>MOLECULE
ZINC14953365
   32    34     0     0     0
SMALL
USER_CHARGES

@<TRIPOS>ATOM
      1 C1         -0.0187    1.5258    0.0104 C.3       1 <0>        -0.1458
      2 C2          0.0021   -0.0041    0.0020 C.3       1 <0>        -0.1216
      3 C3         -1.4333   -0.5336    0.0129 C.3       1 <0>         0.0534
      4 O1         -1.4139   -1.9625    0.0050 O.3       1 <0>        -0.2533
      5 C4         -2.6153   -2.5953    0.0131 C.ar      1 <0>         0.1746
      6 C5         -3.7897   -1.8588    0.0225 C.ar      1 <0>        -0.2311
      7 C6         -5.0111   -2.5039    0.0312 C.ar      1 <0>        -0.0713
      8 C7         -5.0711   -3.8869    0.0301 C.ar      1 <0>        -0.1782
      9 C8         -3.9107   -4.6328    0.0203 C.ar      1 <0>        -0.0340
     10 C9         -2.6726   -3.9927    0.0061 C.ar      1 <0>        -0.0608
     11 C10        -1.4229   -4.7891   -0.0106 C.ar      1 <0>         0.4081
     12 N1         -0.2554   -4.1511   -0.0133 N.ar      1 <0>        -0.5727
     13 C11         0.8902   -4.8180   -0.0276 C.ar      1 <0>         0.4867
     14 O2          2.0741   -4.1594   -0.0298 O.3       1 <0>        -0.6795
     15 C12         0.8508   -6.2155   -0.0399 C.ar      1 <0>        -0.1593
     16 C13        -0.4029   -6.8559   -0.0366 C.ar      1 <0>         0.2596
     17 N2         -1.5075   -6.1089   -0.0169 N.ar      1 <0>        -0.5690
     18 N3         -0.1345   -8.1734   -0.0512 N.2       1 <0>        -0.2773
     19 N4          1.1405   -8.3484   -0.0624 N.2       1 <0>        -0.0384
     20 N5          1.7753   -7.2265   -0.0565 N.pl3     1 <0>        -0.3729
     21 H1          2.7391   -7.1171   -0.0631 H         1 <0>         0.4476
     22 H2          1.0039    1.9031    0.0027 H         1 <0>         0.0602
     23 H3         -0.5459    1.8868   -0.8726 H         1 <0>         0.0527
     24 H4         -0.5289    1.8773    0.9072 H         1 <0>         0.0527
     25 H5          0.5123   -0.3556   -0.8948 H         1 <0>         0.0759
     26 H6          0.5293   -0.3651    0.8851 H         1 <0>         0.0760
     27 H7         -1.9435   -0.1821    0.9097 H         1 <0>         0.0536
     28 H8         -1.9605   -0.1726   -0.8702 H         1 <0>         0.0536
     29 H9         -3.7496   -0.7795    0.0234 H         1 <0>         0.1258
     30 H10        -5.9238   -1.9264    0.0393 H         1 <0>         0.1192
     31 H11        -6.0299   -4.3838    0.0374 H         1 <0>         0.1223
     32 H12        -3.9616   -5.7116    0.0195 H         1 <0>         0.1433
@<TRIPOS>BOND
     1    1    2 1
     2    1   22 1
     3    1   23 1
     4    1   24 1
     5    2    3 1
     6    2   25 1
     7    2   26 1
     8    3    4 1
     9    3   27 1
    10    3   28 1
    11    4    5 1
    12    5   10 ar
    13    5    6 ar
    14    6    7 ar
    15    6   29 1
    16    7    8 ar
    17    7   30 1
    18    8    9 ar
    19    8   31 1
    20    9   10 ar
    21    9   32 1
    22   10   11 1
    23   11   17 ar
    24   11   12 ar
    25   12   13 ar
    26   13   14 1
    27   13   15 ar
    28   15   16 ar
    29   15   20 1
    30   16   17 ar
    31   16   18 1
    32   18   19 2
    33   19   20 1
    34   20   21 1
@<TRIPOS>MOLECULE
ZINC14953365
   32    34     0     0     0
SMALL
USER_CHARGES

@<TRIPOS>ATOM
      1 C1         -0.0187    1.5258    0.0104 C.3       1 <0>        -0.1457
      2 C2          0.0021   -0.0041    0.0020 C.3       1 <0>        -0.1224
      3 C3         -1.4333   -0.5336    0.0129 C.3       1 <0>         0.0532
      4 O1         -1.4139   -1.9625    0.0050 O.3       1 <0>        -0.2520
      5 C4         -2.6152   -2.5953    0.0131 C.ar      1 <0>         0.1789
      6 C5         -3.7896   -1.8588    0.0225 C.ar      1 <0>        -0.2310
      7 C6         -5.0111   -2.5039    0.0308 C.ar      1 <0>        -0.0680
      8 C7         -5.0712   -3.8870    0.0297 C.ar      1 <0>        -0.1802
      9 C8         -3.9111   -4.6331    0.0208 C.ar      1 <0>        -0.0323
     10 C9         -2.6726   -3.9930    0.0061 C.ar      1 <0>        -0.0665
     11 C10        -1.4235   -4.7891   -0.0106 C.ar      1 <0>         0.4378
     12 N1         -0.2555   -4.1526   -0.0133 N.ar      1 <0>        -0.5853
     13 C11         0.8886   -4.8183   -0.0276 C.ar      1 <0>         0.5093
     14 O2          2.0713   -4.1592   -0.0297 O.3       1 <0>        -0.6423
     15 C12         0.8505   -6.2267   -0.0400 C.ar      1 <0>        -0.1919
     16 C13        -0.4080   -6.8564   -0.0366 C.ar      1 <0>         0.3382
     17 N2         -1.5070   -6.1104   -0.0169 N.ar      1 <0>        -0.6189
     18 N3         -0.1580   -8.2010   -0.0510 N.pl3     1 <0>        -0.5059
     19 N4          1.2372   -8.3495   -0.0627 N.2       1 <0>        -0.0830
     20 N5          1.7907   -7.1872   -0.0559 N.2       1 <0>        -0.1662
     21 H1         -0.8167   -8.9130   -0.0527 H         1 <0>         0.4358
     22 H2          1.0039    1.9031    0.0027 H         1 <0>         0.0608
     23 H3         -0.5459    1.8868   -0.8726 H         1 <0>         0.0526
     24 H4         -0.5289    1.8773    0.9072 H         1 <0>         0.0526
     25 H5          0.5123   -0.3556   -0.8948 H         1 <0>         0.0768
     26 H6          0.5293   -0.3651    0.8851 H         1 <0>         0.0769
     27 H7         -1.9435   -0.1821    0.9097 H         1 <0>         0.0542
     28 H8         -1.9605   -0.1726   -0.8702 H         1 <0>         0.0542
     29 H9         -3.7496   -0.7795    0.0238 H         1 <0>         0.1271
     30 H10        -5.9237   -1.9264    0.0385 H         1 <0>         0.1201
     31 H11        -6.0302   -4.3837    0.0362 H         1 <0>         0.1222
     32 H12        -3.9622   -5.7119    0.0203 H         1 <0>         0.1409
@<TRIPOS>BOND
     1    1    2 1
     2    1   22 1
     3    1   23 1
     4    1   24 1
     5    2    3 1
     6    2   25 1
     7    2   26 1
     8    3    4 1
     9    3   27 1
    10    3   28 1
    11    4    5 1
    12    5   10 ar
    13    5    6 ar
    14    6    7 ar
    15    6   29 1
    16    7    8 ar
    17    7   30 1
    18    8    9 ar
    19    8   31 1
    20    9   10 ar
    21    9   32 1
    22   10   11 1
    23   11   17 ar
    24   11   12 ar
    25   12   13 ar
    26   13   14 1
    27   13   15 ar
    28   15   16 ar
    29   15   20 1
    30   16   17 ar
    31   16   18 1
    32   18   21 1
    33   18   19 1
    34   19   20 2
@<TRIPOS>MOLECULE
ZINC14953365
   32    34     0     0     0
SMALL
USER_CHARGES

@<TRIPOS>ATOM
      1 C1         -0.0187    1.5258    0.0104 C.3       1 <0>        -0.1457
      2 C2          0.0021   -0.0041    0.0020 C.3       1 <0>        -0.1218
      3 C3          0.7421   -0.5109    1.2415 C.3       1 <0>         0.0528
      4 O1          0.7614   -1.9398    1.2337 O.3       1 <0>        -0.2494
      5 C4          1.3846   -2.5535    2.2722 C.ar      1 <0>         0.1779
      6 C5          1.9611   -1.7987    3.2821 C.ar      1 <0>        -0.2330
      7 C6          2.5948   -2.4244    4.3380 C.ar      1 <0>        -0.0705
      8 C7          2.6582   -3.8062    4.3957 C.ar      1 <0>        -0.1809
      9 C8          2.0888   -4.5703    3.3986 C.ar      1 <0>        -0.0318
     10 C9          1.4423   -3.9501    2.3303 C.ar      1 <0>        -0.0655
     11 C10         0.8245   -4.7657    1.2592 C.ar      1 <0>         0.4409
     12 N1          0.2275   -4.1264    0.2544 N.ar      1 <0>        -0.6040
     13 C11        -0.3501   -4.7739   -0.7445 C.ar      1 <0>         0.5269
     14 O2         -0.9512   -4.1076   -1.7566 O.3       1 <0>        -0.6419
     15 C12        -0.3151   -6.2310   -0.7156 C.ar      1 <0>        -0.1264
     16 N2         -0.7406   -7.2297   -1.4617 N.2       1 <0>        -0.2278
     17 N3         -0.3994   -8.3395   -0.9027 N.pl3     1 <0>        -0.2462
     18 N4          0.2445   -8.1643    0.1989 N.2       1 <0>        -0.3215
     19 C13         0.3620   -6.8697    0.4258 C.ar      1 <0>         0.2652
     20 N5          0.9051   -6.0766    1.3584 N.ar      1 <0>        -0.5901
     21 H1          1.0039    1.9031    0.0027 H         1 <0>         0.0523
     22 H2         -0.5459    1.8868   -0.8726 H         1 <0>         0.0600
     23 H3         -0.5289    1.8773    0.9072 H         1 <0>         0.0523
     24 H4         -1.0205   -0.3814    0.0098 H         1 <0>         0.0764
     25 H5          0.5123   -0.3556   -0.8948 H         1 <0>         0.0765
     26 H6          1.7647   -0.1336    1.2338 H         1 <0>         0.0531
     27 H7          0.2319   -0.1594    2.1383 H         1 <0>         0.0530
     28 H8          1.9151   -0.7204    3.2430 H         1 <0>         0.1254
     29 H9          3.0433   -1.8327    5.1223 H         1 <0>         0.1184
     30 H10         3.1558   -4.2876    5.2246 H         1 <0>         0.1211
     31 H11         2.1408   -5.6480    3.4470 H         1 <0>         0.1429
     32 H12        -0.6055   -9.2126   -1.2715 H         1 <0>         0.4610
@<TRIPOS>BOND
     1    1    2 1
     2    1   21 1
     3    1   22 1
     4    1   23 1
     5    2    3 1
     6    2   24 1
     7    2   25 1
     8    3    4 1
     9    3   26 1
    10    3   27 1
    11    4    5 1
    12    5   10 ar
    13    5    6 ar
    14    6    7 ar
    15    6   28 1
    16    7    8 ar
    17    7   29 1
    18    8    9 ar
    19    8   30 1
    20    9   10 ar
    21    9   31 1
    22   10   11 1
    23   11   20 ar
    24   11   12 ar
    25   12   13 ar
    26   13   14 1
    27   13   15 ar
    28   15   19 ar
    29   15   16 2
    30   16   17 1
    31   17   18 1
    32   17   32 1
    33   18   19 2
    34   19   20 ar
@<TRIPOS>MOLECULE
ZINC01537820
   46    49     0     0     0
SMALL
USER_CHARGES
N-(benzo[1,3]dioxol-5-ylmethyl)-6,7,8-trimethoxy-quinazolin-4-amine
@<TRIPOS>ATOM
      1 C1         -0.1990    0.8421    0.1000 C.3       1 <0>         0.0214
      2 O1         -0.7713    1.3787    1.2944 O.3       1 <0>        -0.3002
      3 C2         -0.8313    2.7334    1.3956 C.ar      1 <0>         0.1161
      4 C3         -0.3483    3.5087    0.3784 C.ar      1 <0>        -0.1701
      5 C4         -0.4135    4.9036    0.4767 C.ar      1 <0>        -0.1528
      6 C5         -0.9679    5.5053    1.6332 C.ar      1 <0>         0.1544
      7 C6         -1.4530    4.6909    2.6689 C.ar      1 <0>         0.1233
      8 C7         -1.3815    3.3174    2.5425 C.ar      1 <0>         0.1005
      9 O2         -1.8500    2.5243    3.5429 O.3       1 <0>        -0.3187
     10 C8         -3.2225    2.1328    3.4716 C.3       1 <0>         0.0387
     11 O3         -1.9893    5.2498    3.7869 O.3       1 <0>        -0.3100
     12 C9         -1.0933    5.5366    4.8626 C.3       1 <0>         0.0423
     13 N1         -1.0127    6.8448    1.7051 N.ar      1 <0>        -0.5310
     14 C10        -0.5512    7.5791    0.7215 C.ar      1 <0>         0.3411
     15 N2         -0.0247    7.0615   -0.3777 N.ar      1 <0>        -0.5866
     16 C11         0.0680    5.7500   -0.5506 C.ar      1 <0>         0.4705
     17 N3          0.6186    5.2244   -1.7016 N.pl3     1 <0>        -0.6944
     18 C12         1.1109    6.1185   -2.7526 C.3       1 <0>         0.1752
     19 C13         1.6588    5.2996   -3.8929 C.ar      1 <0>        -0.1080
     20 C14         2.9931    4.9379   -3.9036 C.ar      1 <0>        -0.0856
     21 C15         3.4990    4.1820   -4.9446 C.ar      1 <0>        -0.1023
     22 C16         2.6717    3.7952   -5.9865 C.ar      1 <0>         0.0441
     23 C17         1.3288    4.1641   -5.9783 C.ar      1 <0>         0.0302
     24 C18         0.8273    4.9166   -4.9287 C.ar      1 <0>        -0.0799
     25 O4          0.7329    3.6666   -7.1011 O.3       1 <0>        -0.3070
     26 C19         1.8122    3.3394   -7.9963 C.3       1 <0>         0.2126
     27 O5          2.9172    3.0666   -7.1144 O.3       1 <0>        -0.3071
     28 H1         -0.2123   -0.2468    0.1481 H         1 <0>         0.1069
     29 H2          0.8298    1.1889    0.0025 H         1 <0>         0.0584
     30 H3         -0.7778    1.1749   -0.7616 H         1 <0>         0.0575
     31 H4          0.0779    3.0466   -0.4998 H         1 <0>         0.1382
     32 H5         -3.8519    3.0215    3.4258 H         1 <0>         0.0525
     33 H6         -3.3819    1.5282    2.5787 H         1 <0>         0.0489
     34 H7         -3.4804    1.5499    4.3558 H         1 <0>         0.0987
     35 H8         -0.6562    4.6077    5.2288 H         1 <0>         0.0496
     36 H9         -0.3010    6.1966    4.5094 H         1 <0>         0.0494
     37 H10        -1.6394    6.0243    5.6701 H         1 <0>         0.0982
     38 H11        -0.6028    8.6541    0.8121 H         1 <0>         0.1975
     39 H12         0.6798    4.2630   -1.8148 H         1 <0>         0.4111
     40 H13         0.2920    6.7411   -3.1129 H         1 <0>         0.0850
     41 H14         1.8998    6.7534   -2.3493 H         1 <0>         0.0875
     42 H15         3.6406    5.2429   -3.0948 H         1 <0>         0.1422
     43 H16         4.5408    3.8974   -4.9484 H         1 <0>         0.1402
     44 H17        -0.2136    5.2043   -4.9199 H         1 <0>         0.1385
     45 H18         2.0403    4.1842   -8.6461 H         1 <0>         0.0881
     46 H19         1.5661    2.4565   -8.5864 H         1 <0>         0.1351
@<TRIPOS>BOND
     1    1    2 1
     2    1   28 1
     3    1   29 1
     4    1   30 1
     5    2    3 1
     6    3    8 ar
     7    3    4 ar
     8    4    5 ar
     9    4   31 1
    10    5   16 ar
    11    5    6 ar
    12    6    7 ar
    13    6   13 ar
    14    7    8 ar
    15    7   11 1
    16    8    9 1
    17    9   10 1
    18   10   32 1
    19   10   33 1
    20   10   34 1
    21   11   12 1
    22   12   35 1
    23   12   36 1
    24   12   37 1
    25   13   14 ar
    26   14   15 ar
    27   14   38 1
    28   15   16 ar
    29   16   17 1
    30   17   18 1
    31   17   39 1
    32   18   19 1
    33   18   40 1
    34   18   41 1
    35   19   24 ar
    36   19   20 ar
    37   20   21 ar
    38   20   42 1
    39   21   22 ar
    40   21   43 1
    41   22   27 1
    42   22   23 ar
    43   23   24 ar
    44   23   25 1
    45   24   44 1
    46   25   26 1
    47   26   27 1
    48   26   45 1
    49   26   46 1
@<TRIPOS>MOLECULE
ZINC01405687
   34    37     0     0     0
SMALL
USER_CHARGES
N-(benzo[1,3]dioxol-5-ylmethyl)-7-chloro-quinazolin-4-amine
@<TRIPOS>ATOM
      1 C1         -3.5309    8.0733    1.2754 C.ar      1 <0>        -0.0851
      2 C2         -3.3352    9.4421    1.2852 C.ar      1 <0>        -0.1023
      3 C3         -3.2522   10.1389    0.0911 C.ar      1 <0>         0.0449
      4 C4         -3.3600    9.4563   -1.1185 C.ar      1 <0>         0.0304
      5 C5         -3.5498    8.0843   -1.1207 C.ar      1 <0>        -0.0798
      6 C6         -3.6325    7.3953    0.0754 C.ar      1 <0>        -0.1090
      7 C7         -3.8401    5.9026    0.0704 C.3       1 <0>         0.1741
      8 N1         -2.5394    5.2288    0.0537 N.pl3     1 <0>        -0.6917
      9 C8         -2.4765    3.8517    0.0465 C.ar      1 <0>         0.4789
     10 C9         -1.2297    3.1804    0.0304 C.ar      1 <0>        -0.2000
     11 C10        -0.0128    3.8717    0.0220 C.ar      1 <0>        -0.0525
     12 C11         1.1573    3.1718    0.0071 C.ar      1 <0>        -0.1302
     13 C12         1.1571    1.7784    0.0006 C.ar      1 <0>         0.0105
     14 C13        -0.0126    1.0758    0.0080 C.ar      1 <0>        -0.1021
     15 C14        -1.2327    1.7642    0.0174 C.ar      1 <0>         0.2011
     16 N2         -2.4105    1.1220    0.0319 N.ar      1 <0>        -0.5527
     17 C15        -3.5355    1.7965    0.0467 C.ar      1 <0>         0.3572
     18 N3         -3.5823    3.1192    0.0539 N.ar      1 <0>        -0.5948
     19 Cl1         2.6678    0.9234   -0.0178 Cl        1 <0>        -0.0537
     20 O1         -3.2467   10.3560   -2.1387 O.3       1 <0>        -0.3068
     21 C16        -3.4779   11.6456   -1.5414 C.3       1 <0>         0.2126
     22 O2         -3.0714   11.4661   -0.1718 O.3       1 <0>        -0.3069
     23 H1         -3.6001    7.5322    2.2076 H         1 <0>         0.1422
     24 H2         -3.2520    9.9688    2.2244 H         1 <0>         0.1404
     25 H3         -3.6337    7.5525   -2.0569 H         1 <0>         0.1385
     26 H4         -4.4082    5.6178   -0.8152 H         1 <0>         0.0857
     27 H5         -4.3898    5.6092    0.9647 H         1 <0>         0.0882
     28 H6         -1.7223    5.7516    0.0478 H         1 <0>         0.4135
     29 H7         -0.0007    4.9516    0.0270 H         1 <0>         0.1350
     30 H8          2.0967    3.7045    0.0006 H         1 <0>         0.1417
     31 H9          0.0021   -0.0041    0.0020 H         1 <0>         0.1513
     32 H10        -4.4656    1.2476    0.0529 H         1 <0>         0.1981
     33 H11        -4.5341   11.9092   -1.5960 H         1 <0>         0.0882
     34 H12        -2.8665   12.4071   -2.0256 H         1 <0>         0.1352
@<TRIPOS>BOND
     1    1    6 ar
     2    1    2 ar
     3    1   23 1
     4    2    3 ar
     5    2   24 1
     6    3   22 1
     7    3    4 ar
     8    4    5 ar
     9    4   20 1
    10    5    6 ar
    11    5   25 1
    12    6    7 1
    13    7    8 1
    14    7   26 1
    15    7   27 1
    16    8    9 1
    17    8   28 1
    18    9   18 ar
    19    9   10 ar
    20   10   15 ar
    21   10   11 ar
    22   11   12 ar
    23   11   29 1
    24   12   13 ar
    25   12   30 1
    26   13   14 ar
    27   13   19 1
    28   14   15 ar
    29   14   31 1
    30   15   16 ar
    31   16   17 ar
    32   17   18 ar
    33   17   32 1
    34   20   21 1
    35   21   22 1
    36   21   33 1
    37   21   34 1
@<TRIPOS>MOLECULE
ZINC01572003
   46    47     0     0     0
SMALL
USER_CHARGES
5-(6,7,8-trimethoxyquinazolin-4-yl)aminopentan-1-ol
@<TRIPOS>ATOM
      1 C1         -3.3974   -1.8993   -0.1373 C.3       1 <0>         0.0214
      2 O1         -2.2051   -2.6790   -0.0254 O.3       1 <0>        -0.3003
      3 C2         -1.0246   -2.0040   -0.0171 C.ar      1 <0>         0.1159
      4 C3         -1.0256   -0.6404   -0.1141 C.ar      1 <0>        -0.1702
      5 C4          0.1876    0.0578   -0.1054 C.ar      1 <0>        -0.1543
      6 C5          1.4097   -0.6505    0.0033 C.ar      1 <0>         0.1542
      7 C6          1.3886   -2.0508    0.1014 C.ar      1 <0>         0.1234
      8 C7          0.1770   -2.7138    0.0903 C.ar      1 <0>         0.1002
      9 O2          0.1512   -4.0702    0.1851 O.3       1 <0>        -0.3187
     10 C8          0.2022   -4.8071   -1.0382 C.3       1 <0>         0.0388
     11 O3          2.5514   -2.7487    0.2061 O.3       1 <0>        -0.3101
     12 C9          3.0522   -2.9809    1.5242 C.3       1 <0>         0.0420
     13 N1          2.5589    0.0429    0.0088 N.ar      1 <0>        -0.5317
     14 C10         2.5466    1.3509   -0.0849 C.ar      1 <0>         0.3408
     15 N2          1.4297    2.0548   -0.1882 N.ar      1 <0>        -0.5870
     16 C11         0.2402    1.4689   -0.2033 C.ar      1 <0>         0.4695
     17 N3         -0.9153    2.2146   -0.3172 N.pl3     1 <0>        -0.6980
     18 C12        -0.8383    3.6742   -0.4172 C.3       1 <0>         0.1262
     19 C13        -2.2500    4.2526   -0.5326 C.3       1 <0>        -0.1337
     20 C14        -2.1696    5.7770   -0.6371 C.3       1 <0>        -0.1130
     21 C15        -3.5813    6.3554   -0.7525 C.3       1 <0>        -0.1209
     22 C16        -3.5009    7.8797   -0.8570 C.3       1 <0>         0.0734
     23 O4         -4.8194    8.4200   -0.9648 O.3       1 <0>        -0.5770
     24 H1         -3.4605   -1.2092    0.7041 H         1 <0>         0.0582
     25 H2         -3.3762   -1.3348   -1.0695 H         1 <0>         0.0574
     26 H3         -4.2649   -2.5593   -0.1318 H         1 <0>         0.1070
     27 H4         -1.9592   -0.1037   -0.1969 H         1 <0>         0.1381
     28 H5          1.1492   -4.6111   -1.5412 H         1 <0>         0.0530
     29 H6          0.1182   -5.8726   -0.8243 H         1 <0>         0.0988
     30 H7         -0.6217   -4.4997   -1.6821 H         1 <0>         0.0483
     31 H8          3.2945   -2.0277    1.9940 H         1 <0>         0.0502
     32 H9          2.2945   -3.4952    2.1154 H         1 <0>         0.0492
     33 H10         3.9496   -3.5971    1.4686 H         1 <0>         0.0983
     34 H11         3.4894    1.8775   -0.0773 H         1 <0>         0.1971
     35 H12        -1.7785    1.7724   -0.3310 H         1 <0>         0.4095
     36 H13        -0.3533    4.0743    0.4732 H         1 <0>         0.0735
     37 H14        -0.2602    3.9479   -1.2999 H         1 <0>         0.0736
     38 H15        -2.7350    3.8525   -1.4230 H         1 <0>         0.0712
     39 H16        -2.8281    3.9790    0.3500 H         1 <0>         0.0713
     40 H17        -1.6846    6.1771    0.2533 H         1 <0>         0.0698
     41 H18        -1.5915    6.0506   -1.5197 H         1 <0>         0.0698
     42 H19        -4.0663    5.9553   -1.6429 H         1 <0>         0.0702
     43 H20        -4.1594    6.0817    0.1301 H         1 <0>         0.0703
     44 H21        -3.0159    8.2799    0.0334 H         1 <0>         0.0462
     45 H22        -2.9228    8.1534   -1.7396 H         1 <0>         0.0462
     46 H23        -4.8449    9.3841   -1.0349 H         1 <0>         0.3819
@<TRIPOS>BOND
     1    1    2 1
     2    1   24 1
     3    1   25 1
     4    1   26 1
     5    2    3 1
     6    3    8 ar
     7    3    4 ar
     8    4    5 ar
     9    4   27 1
    10    5   16 ar
    11    5    6 ar
    12    6    7 ar
    13    6   13 ar
    14    7    8 ar
    15    7   11 1
    16    8    9 1
    17    9   10 1
    18   10   28 1
    19   10   29 1
    20   10   30 1
    21   11   12 1
    22   12   31 1
    23   12   32 1
    24   12   33 1
    25   13   14 ar
    26   14   15 ar
    27   14   34 1
    28   15   16 ar
    29   16   17 1
    30   17   18 1
    31   17   35 1
    32   18   19 1
    33   18   36 1
    34   18   37 1
    35   19   20 1
    36   19   38 1
    37   19   39 1
    38   20   21 1
    39   20   40 1
    40   20   41 1
    41   21   22 1
    42   21   42 1
    43   21   43 1
    44   22   23 1
    45   22   44 1
    46   22   45 1
    47   23   46 1
@<TRIPOS>MOLECULE
ZINC02557949
   38    41     0     0     0
SMALL
USER_CHARGES

@<TRIPOS>ATOM
      1 C1          0.0248    1.4479    0.1258 C.ar      1 <0>        -0.1081
      2 C2          0.5882    0.9853    1.3016 C.ar      1 <0>        -0.1197
      3 C3          1.7868    0.3024    1.2737 C.ar      1 <0>        -0.1047
      4 C4          2.4306    0.0788    0.0565 C.ar      1 <0>        -0.0355
      5 C5          1.8573    0.5478   -1.1256 C.ar      1 <0>        -0.0815
      6 C6          0.6584    1.2294   -1.0845 C.ar      1 <0>        -0.1188
      7 C7          3.7173   -0.6530    0.0194 C.ar      1 <0>         0.1014
      8 C8          3.8966   -1.8339    0.7825 C.ar      1 <0>        -0.0335
      9 C9          2.8931   -2.3669    1.5965 C.ar      1 <0>        -0.1004
     10 C10         3.1386   -3.5085    2.3023 C.ar      1 <0>        -0.0891
     11 C11         4.3723   -4.1492    2.2236 C.ar      1 <0>        -0.1022
     12 C12         5.3723   -3.6547    1.4385 C.ar      1 <0>        -0.0893
     13 C13         5.1529   -2.4861    0.7021 C.ar      1 <0>        -0.1036
     14 C14         6.1394   -1.9127   -0.1339 C.ar      1 <0>         0.3628
     15 N1          5.8522   -0.8058   -0.7974 N.ar      1 <0>        -0.3143
     16 N2          4.7159   -0.2186   -0.7300 N.ar      1 <0>        -0.2079
     17 N3          7.3874   -2.5016   -0.2551 N.pl3     1 <0>        -0.6409
     18 C15         8.3911   -1.8666   -0.9912 C.ar      1 <0>         0.1686
     19 C16         8.4745   -0.4796   -1.0025 C.ar      1 <0>        -0.1096
     20 C17         9.4676    0.1454   -1.7304 C.ar      1 <0>        -0.0828
     21 C18        10.3789   -0.6072   -2.4484 C.ar      1 <0>        -0.1258
     22 C19        10.2993   -1.9887   -2.4397 C.ar      1 <0>        -0.0138
     23 C20         9.3109   -2.6205   -1.7084 C.ar      1 <0>        -0.1425
     24 Cl1        11.4452   -2.9293   -3.3430 Cl        1 <0>        -0.0654
     25 H1         -0.9158    1.9780    0.1524 H         1 <0>         0.1257
     26 H2          0.0890    1.1593    2.2434 H         1 <0>         0.1279
     27 H3          2.2259   -0.0580    2.1922 H         1 <0>         0.1266
     28 H4          2.3510    0.3778   -2.0711 H         1 <0>         0.1282
     29 H5          0.2136    1.5930   -1.9990 H         1 <0>         0.1279
     30 H6          1.9320   -1.8793    1.6664 H         1 <0>         0.1467
     31 H7          2.3643   -3.9213    2.9319 H         1 <0>         0.1364
     32 H8          4.5402   -5.0513    2.7932 H         1 <0>         0.1358
     33 H9          6.3250   -4.1609    1.3863 H         1 <0>         0.1321
     34 H10         7.5645   -3.3548    0.1710 H         1 <0>         0.4202
     35 H11         7.7628    0.1092   -0.4427 H         1 <0>         0.1410
     36 H12         9.5325    1.2234   -1.7392 H         1 <0>         0.1376
     37 H13        11.1543   -0.1157   -3.0173 H         1 <0>         0.1355
     38 H14         9.2512   -3.6988   -1.6984 H         1 <0>         0.1349
@<TRIPOS>BOND
     1    1    6 ar
     2    1    2 ar
     3    1   25 1
     4    2    3 ar
     5    2   26 1
     6    3    4 ar
     7    3   27 1
     8    4    5 ar
     9    4    7 1
    10    5    6 ar
    11    5   28 1
    12    6   29 1
    13    7   16 ar
    14    7    8 ar
    15    8   13 ar
    16    8    9 ar
    17    9   10 ar
    18    9   30 1
    19   10   11 ar
    20   10   31 1
    21   11   12 ar
    22   11   32 1
    23   12   13 ar
    24   12   33 1
    25   13   14 ar
    26   14   15 ar
    27   14   17 1
    28   15   16 ar
    29   17   18 1
    30   17   34 1
    31   18   23 ar
    32   18   19 ar
    33   19   20 ar
    34   19   35 1
    35   20   21 ar
    36   20   36 1
    37   21   22 ar
    38   21   37 1
    39   22   23 ar
    40   22   24 1
    41   23   38 1
@<TRIPOS>MOLECULE
ZINC03781835
   37    40     0     0     0
SMALL
USER_CHARGES
8-amino-1,3-bis(cyclopropylmethyl)-7H-purine-2,6-dione
@<TRIPOS>ATOM
      1 C1         -4.9666   -1.0719    1.9277 C.3       1 <0>        -0.1940
      2 C2         -6.4774   -1.0630    1.6866 C.3       1 <0>        -0.1192
      3 C3         -5.6613    0.2137    1.4744 C.3       1 <0>        -0.1842
      4 C4         -5.4286    0.6719    0.0333 C.3       1 <0>         0.1228
      5 N1         -4.7368    1.9633    0.0372 N.am      1 <0>        -0.5084
      6 C5         -3.3519    2.0067    0.0296 C.2       1 <0>         0.3578
      7 C6         -2.7204    3.2458    0.0331 C.2       1 <0>        -0.1915
      8 C7         -3.5019    4.4146    0.0437 C.2       1 <0>         0.5924
      9 O1         -2.9699    5.5111    0.0461 O.2       1 <0>        -0.5261
     10 N2         -4.8469    4.3096    0.0506 N.am      1 <0>        -0.5490
     11 C8         -5.4473    3.1069    0.0477 C.2       1 <0>         0.7066
     12 O2         -6.6620    3.0505    0.0542 O.2       1 <0>        -0.5302
     13 C9         -5.6654    5.5245    0.0612 C.3       1 <0>         0.1206
     14 C10        -5.9428    5.9401    1.5073 C.3       1 <0>        -0.2627
     15 C11        -7.3979    5.9251    1.9799 C.3       1 <0>        -0.1221
     16 C12        -6.6873    7.2575    1.7333 C.3       1 <0>        -0.1155
     17 N3         -1.3558    2.9891    0.0302 N.pl3     1 <0>        -0.5735
     18 H1         -0.6392    3.8236    0.0383 H         1 <0>         0.4620
     19 C13        -1.2119    1.6375    0.0167 C.2       1 <0>         0.5802
     20 N4         -2.4014    1.0708    0.0197 N.2       1 <0>        -0.5460
     21 N5         -0.0111    0.9658    0.0074 N.pl3     1 <0>        -0.8466
     22 H2         -4.2092   -1.3611    1.1842 H         1 <0>         0.0978
     23 H3         -4.4803   -0.9028    2.8998 H         1 <0>         0.0886
     24 H4         -6.7277   -1.7914    0.9013 H         1 <0>         0.1051
     25 H5         -6.9988   -1.3331    2.6168 H         1 <0>         0.1023
     26 H6         -5.7158    1.2445    1.8544 H         1 <0>         0.1202
     27 H7         -4.8130   -0.0723   -0.4932 H         1 <0>         0.0935
     28 H8         -6.3963    0.7759   -0.4792 H         1 <0>         0.1040
     29 H9         -5.1281    6.3331   -0.4560 H         1 <0>         0.1004
     30 H10        -6.6179    5.3295   -0.4534 H         1 <0>         0.0951
     31 H11        -5.0010    5.5056    1.8736 H         1 <0>         0.1135
     32 H12        -8.0173    5.3928    1.2430 H         1 <0>         0.1084
     33 H13        -7.4627    5.4132    2.9514 H         1 <0>         0.0997
     34 H14        -6.1646    7.8470    2.5009 H         1 <0>         0.1030
     35 H15        -6.7193    7.8267    0.7926 H         1 <0>         0.1026
     36 H16         0.0038   -0.1340   -0.0034 H         1 <0>         0.4538
     37 H17         0.9340    1.5287    0.0107 H         1 <0>         0.4382
@<TRIPOS>BOND
     1    1    3 1
     2    1    2 1
     3    1   22 1
     4    1   23 1
     5    2    3 1
     6    2   24 1
     7    2   25 1
     8    3    4 1
     9    3   26 1
    10    4    5 1
    11    4   27 1
    12    4   28 1
    13    5   11 am
    14    5    6 1
    15    6   20 1
    16    6    7 2
    17    7    8 1
    18    7   17 1
    19    8    9 2
    20    8   10 am
    21   10   11 am
    22   10   13 1
    23   11   12 2
    24   13   14 1
    25   13   29 1
    26   13   30 1
    27   14   16 1
    28   14   15 1
    29   14   31 1
    30   15   16 1
    31   15   32 1
    32   15   33 1
    33   16   34 1
    34   16   35 1
    35   17   18 1
    36   17   19 1
    37   19   20 2
    38   19   21 1
    39   21   36 1
    40   21   37 1
@<TRIPOS>MOLECULE
ZINC00004982
   41    43     0     0     0
SMALL
USER_CHARGES

@<TRIPOS>ATOM
      1 C1          0.5684    1.3813    0.2968 C.3       1 <0>         0.0255
      2 O1          0.3927   -0.0330    0.1934 O.3       1 <0>        -0.3057
      3 C2          0.7874   -0.6210   -0.9677 C.ar      1 <0>         0.0999
      4 C3          1.3368    0.1460   -1.9826 C.ar      1 <0>        -0.1683
      5 C4          1.7379   -0.4533   -3.1620 C.ar      1 <0>        -0.1118
      6 C5          1.5917   -1.8175   -3.3324 C.ar      1 <0>        -0.0754
      7 C6          1.0438   -2.5883   -2.3241 C.ar      1 <0>        -0.1639
      8 C7          0.6455   -1.9949   -1.1370 C.ar      1 <0>         0.1082
      9 O2          0.1119   -2.7526   -0.1417 O.3       1 <0>        -0.2957
     10 C8          0.1029   -4.1681   -0.3377 C.3       1 <0>         0.0783
     11 C9         -1.1687   -4.5874   -1.1040 C.3       1 <0>        -0.1488
     12 C10        -1.5683   -5.9405   -0.4650 C.3       1 <0>        -0.1241
     13 C11        -1.2445   -5.7198    1.0335 C.3       1 <0>        -0.1241
     14 C12         0.0547   -4.8881    1.0213 C.3       1 <0>        -0.1219
     15 C13         2.0301   -2.4655   -4.6204 C.3       1 <0>        -0.0563
     16 H1          1.8368   -3.5381   -4.6006 H         1 <0>         0.1000
     17 C14         1.3426   -1.8017   -5.8359 C.3       1 <0>        -0.1504
     18 C15         2.4091   -1.7972   -6.9087 C.2       1 <0>         0.5187
     19 O3          2.2042   -1.6224   -8.0913 O.2       1 <0>        -0.5316
     20 N1          3.6171   -2.0147   -6.3606 N.am      1 <0>        -0.7338
     21 C16         3.5210   -2.1776   -4.9046 C.3       1 <0>         0.1066
     22 H2          1.6254    1.6250    0.1896 H         1 <0>         0.0553
     23 H3         -0.0002    1.8766   -0.4903 H         1 <0>         0.0555
     24 H4          0.2140    1.7213    1.2699 H         1 <0>         0.1015
     25 H5          1.4515    1.2119   -1.8523 H         1 <0>         0.1366
     26 H6          2.1660    0.1456   -3.9522 H         1 <0>         0.1272
     27 H7          0.9304   -3.6537   -2.4598 H         1 <0>         0.1375
     28 H8          0.9909   -4.4738   -0.8910 H         1 <0>         0.0759
     29 H9         -1.9594   -3.8506   -0.9629 H         1 <0>         0.0806
     30 H10        -0.9503   -4.7158   -2.1641 H         1 <0>         0.0710
     31 H11        -2.6315   -6.1352   -0.6059 H         1 <0>         0.0722
     32 H12        -0.9681   -6.7532   -0.8743 H         1 <0>         0.0701
     33 H13        -2.0475   -5.1659    1.5198 H         1 <0>         0.0703
     34 H14        -1.0814   -6.6747    1.5332 H         1 <0>         0.0710
     35 H15         0.9189   -5.5439    1.1272 H         1 <0>         0.0774
     36 H16         0.0382   -4.1579    1.8303 H         1 <0>         0.0823
     37 H17         0.4823   -2.3897   -6.1557 H         1 <0>         0.1062
     38 H18         1.0407   -0.7827   -5.5939 H         1 <0>         0.1096
     39 H19         4.4459   -2.0590   -6.8626 H         1 <0>         0.4120
     40 H20         3.8309   -1.2616   -4.4015 H         1 <0>         0.0783
     41 H21         4.1362   -3.0155   -4.5767 H         1 <0>         0.0842
@<TRIPOS>BOND
     1    1    2 1
     2    1   22 1
     3    1   23 1
     4    1   24 1
     5    2    3 1
     6    3    8 ar
     7    3    4 ar
     8    4    5 ar
     9    4   25 1
    10    5    6 ar
    11    5   26 1
    12    6    7 ar
    13    6   15 1
    14    7    8 ar
    15    7   27 1
    16    8    9 1
    17    9   10 1
    18   10   14 1
    19   10   11 1
    20   10   28 1
    21   11   12 1
    22   11   29 1
    23   11   30 1
    24   12   13 1
    25   12   31 1
    26   12   32 1
    27   13   14 1
    28   13   33 1
    29   13   34 1
    30   14   35 1
    31   14   36 1
    32   15   16 1
    33   15   21 1
    34   15   17 1
    35   17   18 1
    36   17   37 1
    37   17   38 1
    38   18   19 2
    39   18   20 am
    40   20   21 1
    41   20   39 1
    42   21   40 1
    43   21   41 1
@<TRIPOS>MOLECULE
ZINC02000919
   41    43     0     0     0
SMALL
USER_CHARGES

@<TRIPOS>ATOM
      1 C1          0.5684    1.3813    0.2968 C.3       1 <0>         0.0255
      2 O1          0.3927   -0.0330    0.1934 O.3       1 <0>        -0.3057
      3 C2          0.7874   -0.6210   -0.9677 C.ar      1 <0>         0.0999
      4 C3          1.3368    0.1460   -1.9826 C.ar      1 <0>        -0.1683
      5 C4          1.7379   -0.4533   -3.1620 C.ar      1 <0>        -0.1118
      6 C5          1.5917   -1.8175   -3.3324 C.ar      1 <0>        -0.0754
      7 C6          1.0438   -2.5883   -2.3241 C.ar      1 <0>        -0.1640
      8 C7          0.6455   -1.9949   -1.1370 C.ar      1 <0>         0.1082
      9 O2          0.1119   -2.7526   -0.1417 O.3       1 <0>        -0.2956
     10 C8          0.1029   -4.1681   -0.3377 C.3       1 <0>         0.0781
     11 C9         -1.1687   -4.5874   -1.1040 C.3       1 <0>        -0.1484
     12 C10        -1.5683   -5.9405   -0.4650 C.3       1 <0>        -0.1242
     13 C11        -1.2445   -5.7198    1.0335 C.3       1 <0>        -0.1240
     14 C12         0.0547   -4.8881    1.0213 C.3       1 <0>        -0.1221
     15 C13         2.0301   -2.4655   -4.6204 C.3       1 <0>        -0.0563
     16 H1          1.8596   -3.5417   -4.5910 H         1 <0>         0.1000
     17 C14         3.5130   -2.1483   -4.9227 C.3       1 <0>        -0.1506
     18 C15         3.5576   -1.9806   -6.4255 C.2       1 <0>         0.5187
     19 O3          4.5674   -2.0006   -7.0970 O.2       1 <0>        -0.5316
     20 N1          2.3152   -1.8068   -6.9084 N.am      1 <0>        -0.7338
     21 C16         1.3168   -1.8256   -5.8320 C.3       1 <0>         0.1067
     22 H2          1.6254    1.6250    0.1896 H         1 <0>         0.0555
     23 H3         -0.0002    1.8766   -0.4903 H         1 <0>         0.0553
     24 H4          0.2140    1.7213    1.2699 H         1 <0>         0.1015
     25 H5          1.4515    1.2119   -1.8523 H         1 <0>         0.1366
     26 H6          2.1660    0.1456   -3.9522 H         1 <0>         0.1272
     27 H7          0.9304   -3.6537   -2.4598 H         1 <0>         0.1374
     28 H8          0.9909   -4.4738   -0.8910 H         1 <0>         0.0760
     29 H9         -1.9594   -3.8506   -0.9629 H         1 <0>         0.0805
     30 H10        -0.9503   -4.7158   -2.1641 H         1 <0>         0.0708
     31 H11        -2.6315   -6.1352   -0.6059 H         1 <0>         0.0721
     32 H12        -0.9681   -6.7532   -0.8743 H         1 <0>         0.0702
     33 H13        -2.0475   -5.1659    1.5198 H         1 <0>         0.0703
     34 H14        -1.0814   -6.6747    1.5332 H         1 <0>         0.0710
     35 H15         0.9189   -5.5439    1.1272 H         1 <0>         0.0776
     36 H16         0.0382   -4.1579    1.8303 H         1 <0>         0.0823
     37 H17         3.8145   -1.2257   -4.4268 H         1 <0>         0.1096
     38 H18         4.1511   -2.9756   -4.6120 H         1 <0>         0.1061
     39 H19         2.1051   -1.6852   -7.8475 H         1 <0>         0.4120
     40 H20         0.4568   -2.4279   -6.1248 H         1 <0>         0.0843
     41 H21         1.0026   -0.8100   -5.5915 H         1 <0>         0.0783
@<TRIPOS>BOND
     1    1    2 1
     2    1   22 1
     3    1   23 1
     4    1   24 1
     5    2    3 1
     6    3    8 ar
     7    3    4 ar
     8    4    5 ar
     9    4   25 1
    10    5    6 ar
    11    5   26 1
    12    6    7 ar
    13    6   15 1
    14    7    8 ar
    15    7   27 1
    16    8    9 1
    17    9   10 1
    18   10   14 1
    19   10   11 1
    20   10   28 1
    21   11   12 1
    22   11   29 1
    23   11   30 1
    24   12   13 1
    25   12   31 1
    26   12   32 1
    27   13   14 1
    28   13   33 1
    29   13   34 1
    30   14   35 1
    31   14   36 1
    32   15   16 1
    33   15   21 1
    34   15   17 1
    35   17   18 1
    36   17   37 1
    37   17   38 1
    38   18   19 2
    39   18   20 am
    40   20   21 1
    41   20   39 1
    42   21   40 1
    43   21   41 1
@<TRIPOS>MOLECULE
ZINC02560259
   38    41     0     0     0
SMALL
USER_CHARGES
N-(benzo[1,3]dioxol-5-ylmethyl)-6-methoxy-quinazolin-4-amine
@<TRIPOS>ATOM
      1 C1          4.0030    1.3437    9.8479 C.3       1 <0>         0.0243
      2 O1          3.8971    1.0324    8.4573 O.3       1 <0>        -0.3151
      3 C2          5.0412    0.6750    7.8161 C.ar      1 <0>         0.1128
      4 C3          6.2446    0.6272    8.5236 C.ar      1 <0>        -0.1500
      5 C4          7.4065    0.2725    7.9075 C.ar      1 <0>        -0.0674
      6 C5          7.4013   -0.0509    6.5437 C.ar      1 <0>         0.1572
      7 C6          6.1850    0.0005    5.8200 C.ar      1 <0>        -0.1581
      8 C7          5.0025    0.3627    6.4743 C.ar      1 <0>        -0.1164
      9 C8          6.2098   -0.3364    4.4446 C.ar      1 <0>         0.4707
     10 N1          7.3724   -0.6734    3.9030 N.ar      1 <0>        -0.5903
     11 C9          8.4855   -0.7029    4.6187 C.ar      1 <0>         0.3401
     12 N2          8.5214   -0.4056    5.8956 N.ar      1 <0>        -0.5466
     13 N3          5.0572   -0.3091    3.6877 N.pl3     1 <0>        -0.6938
     14 C10         5.1067   -0.6553    2.2651 C.3       1 <0>         0.1750
     15 C11         3.7249   -0.5477    1.6735 C.ar      1 <0>        -0.1071
     16 C12         2.8862   -1.6467    1.6755 C.ar      1 <0>        -0.0856
     17 C13         1.6174   -1.5528    1.1347 C.ar      1 <0>        -0.1020
     18 C14         1.1834   -0.3558    0.5885 C.ar      1 <0>         0.0435
     19 C15         2.0283    0.7513    0.5864 C.ar      1 <0>         0.0302
     20 C16         3.2985    0.6499    1.1304 C.ar      1 <0>        -0.0795
     21 O2          1.3764    1.7966   -0.0014 O.3       1 <0>        -0.3069
     22 C17        -0.0175    1.4357    0.0099 C.3       1 <0>         0.2126
     23 O3          0.0021   -0.0041    0.0020 O.3       1 <0>        -0.3071
     24 H1          4.6876    2.1813    9.9817 H         1 <0>         0.0578
     25 H2          3.0204    1.6121   10.2360 H         1 <0>         0.1032
     26 H3          4.3817    0.4753   10.3869 H         1 <0>         0.0579
     27 H4          6.2541    0.8755    9.5746 H         1 <0>         0.1400
     28 H5          8.3290    0.2409    8.4681 H         1 <0>         0.1450
     29 H6          4.0693    0.4017    5.9321 H         1 <0>         0.1333
     30 H7          9.4060   -0.9843    4.1289 H         1 <0>         0.1947
     31 H8          4.2138   -0.0606    4.0973 H         1 <0>         0.4132
     32 H9          5.4718   -1.6761    2.1521 H         1 <0>         0.0871
     33 H10         5.7779    0.0300    1.7475 H         1 <0>         0.0846
     34 H11         3.2227   -2.5806    2.1010 H         1 <0>         0.1421
     35 H12         0.9644   -2.4129    1.1376 H         1 <0>         0.1400
     36 H13         3.9559    1.5068    1.1299 H         1 <0>         0.1385
     37 H14        -0.5191    1.8168   -0.8796 H         1 <0>         0.1348
     38 H15        -0.5020    1.8072    0.9129 H         1 <0>         0.0873
@<TRIPOS>BOND
     1    1    2 1
     2    1   24 1
     3    1   25 1
     4    1   26 1
     5    2    3 1
     6    3    8 ar
     7    3    4 ar
     8    4    5 ar
     9    4   27 1
    10    5    6 ar
    11    5   28 1
    12    6   12 ar
    13    6    7 ar
    14    7    8 ar
    15    7    9 ar
    16    8   29 1
    17    9   10 ar
    18    9   13 1
    19   10   11 ar
    20   11   12 ar
    21   11   30 1
    22   13   14 1
    23   13   31 1
    24   14   15 1
    25   14   32 1
    26   14   33 1
    27   15   20 ar
    28   15   16 ar
    29   16   17 ar
    30   16   34 1
    31   17   18 ar
    32   17   35 1
    33   18   23 1
    34   18   19 ar
    35   19   20 ar
    36   19   21 1
    37   20   36 1
    38   21   22 1
    39   22   23 1
    40   22   37 1
    41   22   38 1
@<TRIPOS>MOLECULE
ZINC02568241
   34    37     0     0     0
SMALL
USER_CHARGES

@<TRIPOS>ATOM
      1 C1         -0.0167    1.3779    0.0096 C.ar      1 <0>        -0.0852
      2 C2          1.1696    2.0885    0.0021 C.ar      1 <0>        -0.1022
      3 C3          2.3803    1.4160   -0.0135 C.ar      1 <0>         0.0448
      4 C4          2.3992    0.0230   -0.0212 C.ar      1 <0>         0.0307
      5 C5          1.2071   -0.6821   -0.0137 C.ar      1 <0>        -0.0796
      6 C6          0.0021   -0.0041    0.0020 C.ar      1 <0>        -0.1091
      7 C7         -1.2936   -0.7736    0.0102 C.3       1 <0>         0.1740
      8 N1         -1.7266   -1.0156   -1.3682 N.pl3     1 <0>        -0.6916
      9 C8         -2.8944   -1.7064   -1.6127 C.ar      1 <0>         0.4798
     10 C9         -3.3282   -1.9563   -2.9379 C.ar      1 <0>        -0.1915
     11 C10        -2.6030   -1.5210   -4.0525 C.ar      1 <0>        -0.0586
     12 C11        -3.0705   -1.7917   -5.3059 C.ar      1 <0>        -0.0505
     13 C12        -4.2591   -2.4949   -5.4891 C.ar      1 <0>        -0.0684
     14 C13        -4.9878   -2.9320   -4.4233 C.ar      1 <0>        -0.0937
     15 C14        -4.5364   -2.6712   -3.1224 C.ar      1 <0>         0.1926
     16 N2         -5.2154   -3.0796   -2.0398 N.ar      1 <0>        -0.5527
     17 C15        -4.7655   -2.8196   -0.8354 C.ar      1 <0>         0.3561
     18 N3         -3.6395   -2.1599   -0.6139 N.ar      1 <0>        -0.5934
     19 Cl1        -2.1725   -1.2520   -6.6901 Cl        1 <0>        -0.0612
     20 O1          3.6984   -0.3954   -0.0364 O.3       1 <0>        -0.3066
     21 C16         4.4664    0.7501   -0.4501 C.3       1 <0>         0.2125
     22 O2          3.6676    1.8697   -0.0238 O.3       1 <0>        -0.3066
     23 H1         -0.9598    1.9039    0.0259 H         1 <0>         0.1422
     24 H2          1.1520    3.1683    0.0081 H         1 <0>         0.1404
     25 H3          1.2188   -1.7620   -0.0196 H         1 <0>         0.1386
     26 H4         -1.1467   -1.7271    0.5176 H         1 <0>         0.0862
     27 H5         -2.0555   -0.1967    0.5345 H         1 <0>         0.0887
     28 H6         -1.1917   -0.6897   -2.1089 H         1 <0>         0.4133
     29 H7         -1.6805   -0.9748   -3.9220 H         1 <0>         0.1351
     30 H8         -4.6087   -2.6965   -6.4908 H         1 <0>         0.1445
     31 H9         -5.9076   -3.4757   -4.5805 H         1 <0>         0.1507
     32 H10        -5.3374   -3.1632    0.0138 H         1 <0>         0.1980
     33 H11         5.4365    0.7605    0.0468 H         1 <0>         0.1353
     34 H12         4.5896    0.7578   -1.5331 H         1 <0>         0.0877
@<TRIPOS>BOND
     1    1    6 ar
     2    1    2 ar
     3    1   23 1
     4    2    3 ar
     5    2   24 1
     6    3   22 1
     7    3    4 ar
     8    4    5 ar
     9    4   20 1
    10    5    6 ar
    11    5   25 1
    12    6    7 1
    13    7    8 1
    14    7   26 1
    15    7   27 1
    16    8    9 1
    17    8   28 1
    18    9   18 ar
    19    9   10 ar
    20   10   15 ar
    21   10   11 ar
    22   11   12 ar
    23   11   29 1
    24   12   13 ar
    25   12   19 1
    26   13   14 ar
    27   13   30 1
    28   14   15 ar
    29   14   31 1
    30   15   16 ar
    31   16   17 ar
    32   17   18 ar
    33   17   32 1
    34   20   21 1
    35   21   22 1
    36   21   33 1
    37   21   34 1
@<TRIPOS>MOLECULE
ZINC12360740
   34    37     0     0     0
SMALL
USER_CHARGES
N-(1,3-benzodioxol-5-ylmethyl)quinazolin-4-amine
@<TRIPOS>ATOM
      1 C1         -2.4037    1.3743    0.0337 C.ar      1 <0>        -0.1340
      2 C2         -2.3871   -0.0177    0.0257 C.ar      1 <0>        -0.0742
      3 C3         -1.2108   -0.7064    0.0103 C.ar      1 <0>        -0.1107
      4 C4          0.0021   -0.0041    0.0020 C.ar      1 <0>         0.1877
      5 C5         -0.0171    1.4121    0.0098 C.ar      1 <0>        -0.1982
      6 C6         -1.2418    2.0886    0.0309 C.ar      1 <0>        -0.0707
      7 C7          1.2219    2.0979    0.0017 C.ar      1 <0>         0.4747
      8 N1          2.3360    1.3782   -0.0132 N.ar      1 <0>        -0.5975
      9 C8          2.3043    0.0552   -0.0196 C.ar      1 <0>         0.3495
     10 N2          1.1869   -0.6323   -0.0127 N.ar      1 <0>        -0.5550
     11 N3          1.2688    3.4755    0.0090 N.pl3     1 <0>        -0.6939
     12 C9          2.5617    4.1644    0.0004 C.3       1 <0>         0.1747
     13 C10         2.3369    5.6546    0.0110 C.ar      1 <0>        -0.1077
     14 C11         2.2281    6.3442   -1.1822 C.ar      1 <0>        -0.0856
     15 C12         2.0162    7.7103   -1.1776 C.ar      1 <0>        -0.1021
     16 C13         1.9246    8.3936    0.0241 C.ar      1 <0>         0.0439
     17 C14         2.0395    7.6997    1.2261 C.ar      1 <0>         0.0302
     18 C15         2.2457    6.3297    1.2138 C.ar      1 <0>        -0.0798
     19 O1          1.9153    8.5871    2.2558 O.3       1 <0>        -0.3070
     20 C16         2.1317    9.8856    1.6724 C.3       1 <0>         0.2126
     21 O2          1.7282    9.7158    0.3007 O.3       1 <0>        -0.3071
     22 H1         -3.3495    1.8956    0.0467 H         1 <0>         0.1301
     23 H2         -3.3208   -0.5605    0.0320 H         1 <0>         0.1332
     24 H3         -1.2134   -1.7864    0.0048 H         1 <0>         0.1398
     25 H4         -1.2670    3.1683    0.0373 H         1 <0>         0.1245
     26 H5          3.2406   -0.4829   -0.0314 H         1 <0>         0.1947
     27 H6          0.4458    3.9888    0.0199 H         1 <0>         0.4128
     28 H7          3.1326    3.8768    0.8832 H         1 <0>         0.0844
     29 H8          3.1153    3.8869   -0.8966 H         1 <0>         0.0869
     30 H9          2.3044    5.8139   -2.1200 H         1 <0>         0.1420
     31 H10         1.9275    8.2459   -2.1112 H         1 <0>         0.1402
     32 H11         2.3355    5.7891    2.1445 H         1 <0>         0.1384
     33 H12         3.1848   10.1609    1.7306 H         1 <0>         0.0880
     34 H13         1.5112   10.6347    2.1643 H         1 <0>         0.1350
@<TRIPOS>BOND
     1    1    6 ar
     2    1    2 ar
     3    1   22 1
     4    2    3 ar
     5    2   23 1
     6    3    4 ar
     7    3   24 1
     8    4   10 ar
     9    4    5 ar
    10    5    6 ar
    11    5    7 ar
    12    6   25 1
    13    7    8 ar
    14    7   11 1
    15    8    9 ar
    16    9   10 ar
    17    9   26 1
    18   11   12 1
    19   11   27 1
    20   12   13 1
    21   12   28 1
    22   12   29 1
    23   13   18 ar
    24   13   14 ar
    25   14   15 ar
    26   14   30 1
    27   15   16 ar
    28   15   31 1
    29   16   21 1
    30   16   17 ar
    31   17   18 ar
    32   17   19 1
    33   18   32 1
    34   19   20 1
    35   20   21 1
    36   20   33 1
    37   20   34 1
@<TRIPOS>MOLECULE
ZINC01405377
   42    45     0     0     0
SMALL
USER_CHARGES

@<TRIPOS>ATOM
      1 C1         -0.0173    1.4248    0.0099 C.3       1 <0>         0.0226
      2 O1          0.0021   -0.0041    0.0020 O.3       1 <0>        -0.3018
      3 C2          0.6062   -0.6075   -1.0564 C.ar      1 <0>         0.1033
      4 C3          1.1618    0.1569   -2.0428 C.ar      1 <0>        -0.1425
      5 C4          1.7844   -0.4633   -3.1326 C.ar      1 <0>        -0.1907
      6 C5          1.8348   -1.8774   -3.2066 C.ar      1 <0>         0.2015
      7 C6          1.2583   -2.6412   -2.1846 C.ar      1 <0>        -0.1859
      8 C7          0.6568   -2.0069   -1.1201 C.ar      1 <0>         0.1620
      9 O2          0.1015   -2.7454   -0.1243 O.3       1 <0>        -0.2985
     10 C8          0.1855   -4.1667   -0.2465 C.3       1 <0>         0.0208
     11 N1          2.4385   -2.4468   -4.2617 N.ar      1 <0>        -0.5528
     12 C9          2.9702   -1.7050   -5.2038 C.ar      1 <0>         0.3477
     13 N2          2.9472   -0.3818   -5.1770 N.ar      1 <0>        -0.5958
     14 C10         2.3762    0.2816   -4.1804 C.ar      1 <0>         0.4747
     15 N3          2.3593    1.6610   -4.1657 N.pl3     1 <0>        -0.6962
     16 C11         2.9778    2.4128   -5.2605 C.3       1 <0>         0.1753
     17 C12         2.8234    3.8900   -5.0055 C.ar      1 <0>        -0.1072
     18 C13         1.7088    4.5585   -5.4766 C.ar      1 <0>        -0.0860
     19 C14         1.5624    5.9134   -5.2448 C.ar      1 <0>        -0.1021
     20 C15         2.5338    6.6051   -4.5395 C.ar      1 <0>         0.0436
     21 C16         3.6567    5.9317   -4.0650 C.ar      1 <0>         0.0303
     22 C17         3.7939    4.5725   -4.2961 C.ar      1 <0>        -0.0801
     23 O3          4.4560    6.8237   -3.4101 O.3       1 <0>        -0.3070
     24 C18         4.0130    8.1245   -3.8400 C.3       1 <0>         0.2126
     25 O4          2.6295    7.9189   -4.1819 O.3       1 <0>        -0.3071
     26 H1          1.0053    1.8021    0.0021 H         1 <0>         0.0563
     27 H2         -0.5445    1.7859   -0.8732 H         1 <0>         0.0566
     28 H3         -0.5275    1.7763    0.9067 H         1 <0>         0.1057
     29 H4          1.1207    1.2344   -1.9824 H         1 <0>         0.1379
     30 H5          1.2890   -3.7199   -2.2282 H         1 <0>         0.1541
     31 H6         -0.3168   -4.4830   -1.1607 H         1 <0>         0.0616
     32 H7          1.2326   -4.4669   -0.2848 H         1 <0>         0.0615
     33 H8         -0.2954   -4.6343    0.6127 H         1 <0>         0.1063
     34 H9          3.4484   -2.1958   -6.0385 H         1 <0>         0.1948
     35 H10         1.9379    2.1331   -3.4306 H         1 <0>         0.4105
     36 H11         4.0372    2.1630   -5.3197 H         1 <0>         0.0843
     37 H12         2.4903    2.1534   -6.2003 H         1 <0>         0.0868
     38 H13         0.9509    4.0211   -6.0272 H         1 <0>         0.1420
     39 H14         0.6906    6.4331   -5.6139 H         1 <0>         0.1400
     40 H15         4.6615    4.0469   -3.9254 H         1 <0>         0.1384
     41 H16         4.1039    8.8474   -3.0292 H         1 <0>         0.1349
     42 H17         4.5784    8.4527   -4.7122 H         1 <0>         0.0879
@<TRIPOS>BOND
     1    1    2 1
     2    1   26 1
     3    1   27 1
     4    1   28 1
     5    2    3 1
     6    3    8 ar
     7    3    4 ar
     8    4    5 ar
     9    4   29 1
    10    5   14 ar
    11    5    6 ar
    12    6    7 ar
    13    6   11 ar
    14    7    8 ar
    15    7   30 1
    16    8    9 1
    17    9   10 1
    18   10   31 1
    19   10   32 1
    20   10   33 1
    21   11   12 ar
    22   12   13 ar
    23   12   34 1
    24   13   14 ar
    25   14   15 1
    26   15   16 1
    27   15   35 1
    28   16   17 1
    29   16   36 1
    30   16   37 1
    31   17   22 ar
    32   17   18 ar
    33   18   19 ar
    34   18   38 1
    35   19   20 ar
    36   19   39 1
    37   20   25 1
    38   20   21 ar
    39   21   22 ar
    40   21   23 1
    41   22   40 1
    42   23   24 1
    43   24   25 1
    44   24   41 1
    45   24   42 1
@<TRIPOS>MOLECULE
ZINC13737665
   37    40     0     0     0
SMALL
USER_CHARGES
N-(1,3-benzodioxol-5-ylmethyl)-6-methyl-quinazolin-4-amine
@<TRIPOS>ATOM
      1 C1          3.7692    1.0666    8.5108 C.3       1 <0>        -0.1159
      2 C2          5.0400    0.6709    7.8040 C.ar      1 <0>        -0.0994
      3 C3          6.2357    0.6250    8.5157 C.ar      1 <0>        -0.0731
      4 C4          7.4028    0.2715    7.9065 C.ar      1 <0>        -0.1061
      5 C5          7.4012   -0.0516    6.5427 C.ar      1 <0>         0.1837
      6 C6          6.1846    0.0004    5.8195 C.ar      1 <0>        -0.1925
      7 C7          5.0030    0.3621    6.4761 C.ar      1 <0>        -0.0743
      8 C8          6.2092   -0.3364    4.4442 C.ar      1 <0>         0.4734
      9 N1          7.3722   -0.6734    3.9027 N.ar      1 <0>        -0.5964
     10 C9          8.4852   -0.7030    4.6180 C.ar      1 <0>         0.3473
     11 N2          8.5210   -0.4061    5.8954 N.ar      1 <0>        -0.5536
     12 N3          5.0572   -0.3091    3.6877 N.pl3     1 <0>        -0.6943
     13 C10         5.1067   -0.6553    2.2651 C.3       1 <0>         0.1747
     14 C11         3.7249   -0.5477    1.6735 C.ar      1 <0>        -0.1072
     15 C12         2.8862   -1.6467    1.6755 C.ar      1 <0>        -0.0858
     16 C13         1.6174   -1.5528    1.1347 C.ar      1 <0>        -0.1020
     17 C14         1.1834   -0.3558    0.5885 C.ar      1 <0>         0.0437
     18 C15         2.0283    0.7513    0.5864 C.ar      1 <0>         0.0303
     19 C16         3.2985    0.6499    1.1304 C.ar      1 <0>        -0.0798
     20 O1          1.3764    1.7966   -0.0014 O.3       1 <0>        -0.3068
     21 C17        -0.0175    1.4357    0.0099 C.3       1 <0>         0.2126
     22 O2          0.0021   -0.0041    0.0020 O.3       1 <0>        -0.3069
     23 H1          3.6397    2.1471    8.4476 H         1 <0>         0.0729
     24 H2          2.9212    0.5708    8.0384 H         1 <0>         0.0671
     25 H3          3.8276    0.7683    9.5575 H         1 <0>         0.0701
     26 H4          6.2386    0.8736    9.5666 H         1 <0>         0.1330
     27 H5          8.3229    0.2409    8.4712 H         1 <0>         0.1405
     28 H6          4.0696    0.4012    5.9342 H         1 <0>         0.1238
     29 H7          9.4057   -0.9840    4.1280 H         1 <0>         0.1945
     30 H8          4.2138   -0.0606    4.0973 H         1 <0>         0.4122
     31 H9          5.4718   -1.6761    2.1521 H         1 <0>         0.0870
     32 H10         5.7779    0.0300    1.7475 H         1 <0>         0.0844
     33 H11         3.2227   -2.5806    2.1010 H         1 <0>         0.1419
     34 H12         0.9644   -2.4129    1.1376 H         1 <0>         0.1401
     35 H13         3.9559    1.5068    1.1299 H         1 <0>         0.1384
     36 H14        -0.5191    1.8168   -0.8796 H         1 <0>         0.1350
     37 H15        -0.5020    1.8072    0.9129 H         1 <0>         0.0873
@<TRIPOS>BOND
     1    1    2 1
     2    1   23 1
     3    1   24 1
     4    1   25 1
     5    2    7 ar
     6    2    3 ar
     7    3    4 ar
     8    3   26 1
     9    4    5 ar
    10    4   27 1
    11    5   11 ar
    12    5    6 ar
    13    6    7 ar
    14    6    8 ar
    15    7   28 1
    16    8    9 ar
    17    8   12 1
    18    9   10 ar
    19   10   11 ar
    20   10   29 1
    21   12   13 1
    22   12   30 1
    23   13   14 1
    24   13   31 1
    25   13   32 1
    26   14   19 ar
    27   14   15 ar
    28   15   16 ar
    29   15   33 1
    30   16   17 ar
    31   16   34 1
    32   17   22 1
    33   17   18 ar
    34   18   19 ar
    35   18   20 1
    36   19   35 1
    37   20   21 1
    38   21   22 1
    39   21   36 1
    40   21   37 1
@<TRIPOS>MOLECULE
ZINC00643046
   76    79     0     0     0
SMALL
USER_CHARGES

@<TRIPOS>ATOM
      1 C1          0.4883    2.4897    1.2990 C.3       1 <0>        -0.1142
      2 C2          1.1580    2.1388    2.6297 C.3       1 <0>        -0.1362
      3 C3          1.3103    0.6181    2.7347 C.3       1 <0>         0.1570
      4 N1          2.0305    0.1319    1.5500 N.pl3     1 <0>        -0.6468
      5 C4          1.5224    0.4890    0.2185 C.3       1 <0>         0.1574
      6 C5          1.3678    2.0112    0.1416 C.3       1 <0>        -0.1364
      7 C6          3.1637   -0.6453    1.6854 C.ar      1 <0>         0.5085
      8 C7          3.0733   -2.0580    1.7467 C.ar      1 <0>         0.0614
      9 C8          4.2673   -2.7976    1.8855 C.ar      1 <0>         0.0615
     10 C9          4.1770   -4.2103    1.9469 C.ar      1 <0>         0.5084
     11 N2          2.9771   -4.7656    1.8709 N.ar      1 <0>        -0.5394
     12 C10         1.8782   -4.0279    1.7403 C.ar      1 <0>         0.5543
     13 N3          1.9084   -2.7098    1.6788 N.ar      1 <0>        -0.5235
     14 N4          0.6525   -4.6689    1.6658 N.pl3     1 <0>        -0.5657
     15 C11        -0.5766   -3.8848    1.5217 C.3       1 <0>         0.1412
     16 C12        -0.8807   -3.6815    0.0361 C.3       1 <0>         0.0611
     17 O1         -1.1650   -4.9445   -0.5691 O.3       1 <0>        -0.5712
     18 C13         0.5852   -6.1309    1.7310 C.3       1 <0>         0.1388
     19 C14         0.4380   -6.5701    3.1892 C.3       1 <0>         0.0609
     20 O2         -0.8147   -6.1108    3.7009 O.3       1 <0>        -0.5703
     21 N5          5.3102   -4.9876    2.0819 N.pl3     1 <0>        -0.6466
     22 C15         5.8166   -5.3477    3.4132 C.3       1 <0>         0.1569
     23 C16         5.9722   -6.8700    3.4864 C.3       1 <0>        -0.1363
     24 C17         6.8536   -7.3449    2.3290 C.3       1 <0>        -0.1141
     25 C18         6.1855   -6.9910    0.9983 C.3       1 <0>        -0.1368
     26 C19         6.0290   -5.4752    0.8969 C.3       1 <0>         0.1575
     27 N6          5.4322   -2.1458    1.9543 N.ar      1 <0>        -0.5233
     28 C20         5.4623   -0.8277    1.8928 C.ar      1 <0>         0.5543
     29 N7          4.3640   -0.0904    1.7559 N.ar      1 <0>        -0.5392
     30 N8          6.6881   -0.1867    1.9678 N.pl3     1 <0>        -0.5657
     31 C21         7.9171   -0.9709    2.1123 C.3       1 <0>         0.1413
     32 C22         8.4692   -1.3136    0.7271 C.3       1 <0>         0.0611
     33 O3          8.8633   -0.1124    0.0609 O.3       1 <0>        -0.5711
     34 C23         6.7554    1.2753    1.9026 C.3       1 <0>         0.1387
     35 C24         6.6545    1.8540    3.3153 C.3       1 <0>         0.0609
     36 O4          7.7974    1.4565    4.0756 O.3       1 <0>        -0.5703
     37 H1         -0.4844    2.0011    1.2421 H         1 <0>         0.0624
     38 H2          0.3565    3.5696    1.2325 H         1 <0>         0.0610
     39 H3          2.1412    2.6070    2.6767 H         1 <0>         0.0658
     40 H4          0.5425    2.5006    3.4533 H         1 <0>         0.0687
     41 H5          1.8745    0.3686    3.6333 H         1 <0>         0.0616
     42 H6          0.3248    0.1544    2.7790 H         1 <0>         0.0608
     43 H7          2.2266    0.1543   -0.5432 H         1 <0>         0.0616
     44 H8          0.5542    0.0148    0.0576 H         1 <0>         0.0598
     45 H9          0.9016    2.2821   -0.8057 H         1 <0>         0.0686
     46 H10         2.3490    2.4805    0.2121 H         1 <0>         0.0663
     47 H11        -1.4038   -4.4160    1.9926 H         1 <0>         0.0919
     48 H12        -0.4472   -2.9149    2.0021 H         1 <0>         0.0972
     49 H13        -1.7438   -3.0246   -0.0716 H         1 <0>         0.0528
     50 H14        -0.0175   -3.2303   -0.4531 H         1 <0>         0.0456
     51 H15        -1.3673   -4.8916   -1.5132 H         1 <0>         0.3764
     52 H16        -0.2732   -6.4810    1.1577 H         1 <0>         0.0932
     53 H17         1.4983   -6.5556    1.3140 H         1 <0>         0.0953
     54 H18         0.4771   -7.6579    3.2467 H         1 <0>         0.0527
     55 H19         1.2495   -6.1456    3.7802 H         1 <0>         0.0445
     56 H20        -0.9758   -6.3537    4.6229 H         1 <0>         0.3766
     57 H21         6.7842   -4.8733    3.5767 H         1 <0>         0.0609
     58 H22         5.1111   -5.0155    4.1748 H         1 <0>         0.0615
     59 H23         6.4372   -7.1430    4.4336 H         1 <0>         0.0688
     60 H24         4.9913   -7.3398    3.4133 H         1 <0>         0.0658
     61 H25         7.8259   -6.8558    2.3885 H         1 <0>         0.0624
     62 H26         6.9861   -8.4249    2.3929 H         1 <0>         0.0611
     63 H27         6.8025   -7.3503    0.1746 H         1 <0>         0.0691
     64 H28         5.2027   -7.4597    0.9486 H         1 <0>         0.0661
     65 H29         5.4635   -5.2271   -0.0013 H         1 <0>         0.0615
     66 H30         7.0143   -5.0114    0.8506 H         1 <0>         0.0595
     67 H31         8.6559   -0.3900    2.6644 H         1 <0>         0.0919
     68 H32         7.6994   -1.8910    2.6545 H         1 <0>         0.0972
     69 H33         9.3325   -1.9706    0.8325 H         1 <0>         0.0527
     70 H34         7.6986   -1.8169    0.1432 H         1 <0>         0.0456
     71 H35         9.2237   -0.2542   -0.8252 H         1 <0>         0.3764
     72 H36         7.7021    1.5757    1.4536 H         1 <0>         0.0932
     73 H37         5.9306    1.6503    1.2966 H         1 <0>         0.0954
     74 H38         6.6152    2.9419    3.2604 H         1 <0>         0.0528
     75 H39         5.7504    1.4816    3.7968 H         1 <0>         0.0444
     76 H40         7.8004    1.7883    4.9839 H         1 <0>         0.3766
@<TRIPOS>BOND
     1    1    6 1
     2    1    2 1
     3    1   37 1
     4    1   38 1
     5    2    3 1
     6    2   39 1
     7    2   40 1
     8    3    4 1
     9    3   41 1
    10    3   42 1
    11    4    5 1
    12    4    7 1
    13    5    6 1
    14    5   43 1
    15    5   44 1
    16    6   45 1
    17    6   46 1
    18    7   29 ar
    19    7    8 ar
    20    8   13 ar
    21    8    9 ar
    22    9   10 ar
    23    9   27 ar
    24   10   11 ar
    25   10   21 1
    26   11   12 ar
    27   12   13 ar
    28   12   14 1
    29   14   15 1
    30   14   18 1
    31   15   16 1
    32   15   47 1
    33   15   48 1
    34   16   17 1
    35   16   49 1
    36   16   50 1
    37   17   51 1
    38   18   19 1
    39   18   52 1
    40   18   53 1
    41   19   20 1
    42   19   54 1
    43   19   55 1
    44   20   56 1
    45   21   26 1
    46   21   22 1
    47   22   23 1
    48   22   57 1
    49   22   58 1
    50   23   24 1
    51   23   59 1
    52   23   60 1
    53   24   25 1
    54   24   61 1
    55   24   62 1
    56   25   26 1
    57   25   63 1
    58   25   64 1
    59   26   65 1
    60   26   66 1
    61   27   28 ar
    62   28   29 ar
    63   28   30 1
    64   30   31 1
    65   30   34 1
    66   31   32 1
    67   31   67 1
    68   31   68 1
    69   32   33 1
    70   32   69 1
    71   32   70 1
    72   33   71 1
    73   34   35 1
    74   34   72 1
    75   34   73 1
    76   35   36 1
    77   35   74 1
    78   35   75 1
    79   36   76 1
