@<TRIPOS>MOLECULE
ZINC02570895
   40    42     0     0     0
SMALL
USER_CHARGES

@<TRIPOS>ATOM
      1 C1          0.0405    1.5033    0.0105 C.3       1 <0>        -0.1224
      2 C2          0.0481   -0.0036    0.0022 C.ar      1 <0>        -0.0617
      3 C3         -0.4654   -0.6891   -1.0843 C.ar      1 <0>        -0.1180
      4 C4         -0.4609   -2.0687   -1.0981 C.ar      1 <0>        -0.0762
      5 C5          0.0630   -2.7726   -0.0133 C.ar      1 <0>        -0.0606
      6 C6          0.5793   -2.0754    1.0794 C.ar      1 <0>        -0.0985
      7 C7          0.5738   -0.6957    1.0787 C.ar      1 <0>        -0.1165
      8 C8          0.0704   -4.2518   -0.0214 C.2       1 <0>         0.1497
      9 C9          0.0778   -5.0559   -1.1264 C.2       1 <0>        -0.2047
     10 C10         0.0841   -6.3814   -0.6911 C.2       1 <0>        -0.0034
     11 N1          0.0806   -6.3920    0.6183 N.2       1 <0>        -0.2184
     12 N2          0.0772   -5.0674    1.0740 N.pl3     1 <0>        -0.3181
     13 C11         0.0780   -4.6538    2.4124 C.ar      1 <0>         0.1993
     14 C12        -0.7877   -3.6523    2.8316 C.ar      1 <0>        -0.1310
     15 C13        -0.7845   -3.2467    4.1518 C.ar      1 <0>        -0.0008
     16 C14         0.0799   -3.8365    5.0557 C.ar      1 <0>        -0.6729
     17 C15         0.9432   -4.8341    4.6414 C.ar      1 <0>         0.0013
     18 C16         0.9405   -5.2485    3.3238 C.ar      1 <0>        -0.1237
     19 S1          0.0817   -3.3155    6.7389 S.o2      1 <0>         2.7035
     20 O1          1.3615   -3.6412    7.2635 O.2       1 <0>        -0.9570
     21 O2         -0.4336   -1.9913    6.7547 O.2       1 <0>        -0.9571
     22 N3         -1.0144   -4.2595    7.5449 N.pl3     1 <0>        -1.2487
     23 C17         0.0927   -7.5984   -1.5799 C.3       1 <0>         0.5581
     24 F1          1.4144   -7.9678   -1.8518 F         1 <0>        -0.1637
     25 F2         -0.5625   -8.6523   -0.9339 F         1 <0>        -0.1639
     26 F3         -0.5656   -7.3049   -2.7789 F         1 <0>        -0.1610
     27 H1          0.9639    1.8738   -0.4347 H         1 <0>         0.0767
     28 H2         -0.8113    1.8655   -0.5652 H         1 <0>         0.0714
     29 H3         -0.0366    1.8607    1.0374 H         1 <0>         0.0715
     30 H4         -0.8709   -0.1431   -1.9232 H         1 <0>         0.1331
     31 H5         -0.8624   -2.6027   -1.9467 H         1 <0>         0.1336
     32 H6          0.9862   -2.6145    1.9221 H         1 <0>         0.1246
     33 H7          0.9772   -0.1548    1.9220 H         1 <0>         0.1315
     34 H8          0.0784   -4.7241   -2.1542 H         1 <0>         0.1732
     35 H9         -1.4626   -3.1908    2.1259 H         1 <0>         0.1459
     36 H10        -1.4576   -2.4679    4.4785 H         1 <0>         0.1580
     37 H11         1.6174   -5.2926    5.3496 H         1 <0>         0.1579
     38 H12         1.6117   -6.0309    3.0018 H         1 <0>         0.1479
     39 H13        -1.5085   -4.9443    7.0675 H         1 <0>         0.4179
     40 H14        -1.1624   -4.1277    8.4945 H         1 <0>         0.4235
@<TRIPOS>BOND
     1    1    2 1
     2    1   27 1
     3    1   28 1
     4    1   29 1
     5    2    7 ar
     6    2    3 ar
     7    3    4 ar
     8    3   30 1
     9    4    5 ar
    10    4   31 1
    11    5    6 ar
    12    5    8 1
    13    6    7 ar
    14    6   32 1
    15    7   33 1
    16    8   12 1
    17    8    9 2
    18    9   10 1
    19    9   34 1
    20   10   11 2
    21   10   23 1
    22   11   12 1
    23   12   13 1
    24   13   18 ar
    25   13   14 ar
    26   14   15 ar
    27   14   35 1
    28   15   16 ar
    29   15   36 1
    30   16   17 ar
    31   16   19 1
    32   17   18 ar
    33   17   37 1
    34   18   38 1
    35   19   20 2
    36   19   21 2
    37   19   22 1
    38   22   39 1
    39   22   40 1
    40   23   24 1
    41   23   25 1
    42   23   26 1
