@<TRIPOS>MOLECULE
ZINC05618792
   61    65     0     0     0
SMALL
USER_CHARGES
1-[4-hydroxy-5-(trityloxymethyl)tetrahydrofuran-2-yl]pyrimidine-2,4-dione
@<TRIPOS>ATOM
      1 C1          0.9385    2.0705   -0.2286 C.ar      1 <0>        -0.1131
      2 C2         -0.1600    1.2897   -0.5363 C.ar      1 <0>        -0.1208
      3 C3         -0.0703   -0.0879   -0.4657 C.ar      1 <0>        -0.1003
      4 C4          1.1180   -0.6847   -0.0881 C.ar      1 <0>        -0.1098
      5 C5          2.2165    0.0961    0.2195 C.ar      1 <0>        -0.1038
      6 C6          2.1268    1.4737    0.1490 C.ar      1 <0>        -0.1218
      7 C7          1.2158   -2.1866   -0.0112 C.3       1 <0>         0.2518
      8 C8          2.5399   -2.6333   -0.5754 C.ar      1 <0>        -0.1143
      9 C9          3.1264   -1.9240   -1.6068 C.ar      1 <0>        -0.1034
     10 C10         4.3431   -2.3312   -2.1213 C.ar      1 <0>        -0.1227
     11 C11         4.9686   -3.4533   -1.6110 C.ar      1 <0>        -0.1091
     12 C12         4.3798   -4.1654   -0.5829 C.ar      1 <0>        -0.1210
     13 C13         3.1652   -3.7557   -0.0654 C.ar      1 <0>        -0.0895
     14 C14         1.1093   -2.6240    1.4270 C.ar      1 <0>        -0.0707
     15 C15         1.7289   -1.8892    2.4205 C.ar      1 <0>        -0.1064
     16 C16         1.6275   -2.2880    3.7402 C.ar      1 <0>        -0.1202
     17 C17         0.9146   -3.4268    4.0653 C.ar      1 <0>        -0.1148
     18 C18         0.2991   -4.1643    3.0713 C.ar      1 <0>        -0.1222
     19 C19         0.3968   -3.7631    1.7520 C.ar      1 <0>        -0.0935
     20 O1          0.1539   -2.7724   -0.7671 O.3       1 <0>        -0.3497
     21 C20         0.2257   -2.5101   -2.1700 C.3       1 <0>         0.0633
     22 C21        -1.0224   -3.0672   -2.8575 C.3       1 <0>         0.0929
     23 H1         -1.1631   -4.1158   -2.5952 H         1 <0>         0.1011
     24 C22        -0.9092   -2.9068   -4.3898 C.3       1 <0>         0.0827
     25 H2         -0.2253   -2.0956   -4.6394 H         1 <0>         0.0832
     26 C23        -2.3474   -2.5638   -4.8386 C.3       1 <0>        -0.1967
     27 C24        -3.1593   -2.5576   -3.5244 C.3       1 <0>         0.2981
     28 H3         -3.6297   -3.5278   -3.3644 H         1 <0>         0.1306
     29 O2         -2.1859   -2.2943   -2.4905 O.3       1 <0>        -0.3583
     30 N1         -4.1723   -1.4997   -3.5557 N.am      1 <0>        -0.5266
     31 C25        -3.7821   -0.1887   -3.5913 C.2       1 <0>         0.1795
     32 C26        -4.7158    0.7862   -3.6246 C.2       1 <0>        -0.2907
     33 C27        -6.0856    0.4287   -3.6108 C.2       1 <0>         0.5497
     34 O3         -6.9458    1.2904   -3.6355 O.2       1 <0>        -0.5107
     35 N2         -6.4289   -0.8746   -3.5707 N.am      1 <0>        -0.6613
     36 H4         -7.3943   -1.1352   -3.5611 H         1 <0>         0.4397
     37 C28        -5.4774   -1.8262   -3.5435 C.2       1 <0>         0.7047
     38 O4         -5.8019   -2.9974   -3.5070 O.2       1 <0>        -0.5352
     39 O5         -0.4752   -4.1286   -4.9905 O.3       1 <0>        -0.5509
     40 H5          0.8684    3.1468   -0.2837 H         1 <0>         0.1224
     41 H6         -1.0870    1.7559   -0.8360 H         1 <0>         0.1232
     42 H7         -0.9285   -0.6979   -0.7061 H         1 <0>         0.1344
     43 H8          3.1447   -0.3702    0.5152 H         1 <0>         0.1235
     44 H9          2.9848    2.0837    0.3900 H         1 <0>         0.1234
     45 H10         2.6357   -1.0496   -2.0082 H         1 <0>         0.1219
     46 H11         4.8033   -1.7746   -2.9244 H         1 <0>         0.1237
     47 H12         5.9175   -3.7734   -2.0153 H         1 <0>         0.1234
     48 H13         4.8685   -5.0421   -0.1842 H         1 <0>         0.1243
     49 H14         2.7050   -4.3123    0.7376 H         1 <0>         0.1257
     50 H15         2.2893   -1.0017    2.1661 H         1 <0>         0.1254
     51 H16         2.1082   -1.7117    4.5169 H         1 <0>         0.1233
     52 H17         0.8383   -3.7403    5.0960 H         1 <0>         0.1223
     53 H18        -0.2579   -5.0540    3.3253 H         1 <0>         0.1239
     54 H19        -0.0838   -4.3394    0.9753 H         1 <0>         0.1307
     55 H20         0.2824   -1.4344   -2.3361 H         1 <0>         0.0682
     56 H21         1.1130   -2.9890   -2.5842 H         1 <0>         0.0788
     57 H22        -2.3763   -1.5814   -5.3100 H         1 <0>         0.0939
     58 H23        -2.7264   -3.3249   -5.5206 H         1 <0>         0.1066
     59 H24        -2.7323    0.0651   -3.5968 H         1 <0>         0.1775
     60 H25        -4.4216    1.8248   -3.6566 H         1 <0>         0.1741
     61 H26        -0.3870   -4.0843   -5.9525 H         1 <0>         0.3893
@<TRIPOS>BOND
     1    1    6 ar
     2    1    2 ar
     3    1   40 1
     4    2    3 ar
     5    2   41 1
     6    3    4 ar
     7    3   42 1
     8    4    5 ar
     9    4    7 1
    10    5    6 ar
    11    5   43 1
    12    6   44 1
    13    7    8 1
    14    7   14 1
    15    7   20 1
    16    8   13 ar
    17    8    9 ar
    18    9   10 ar
    19    9   45 1
    20   10   11 ar
    21   10   46 1
    22   11   12 ar
    23   11   47 1
    24   12   13 ar
    25   12   48 1
    26   13   49 1
    27   14   19 ar
    28   14   15 ar
    29   15   16 ar
    30   15   50 1
    31   16   17 ar
    32   16   51 1
    33   17   18 ar
    34   17   52 1
    35   18   19 ar
    36   18   53 1
    37   19   54 1
    38   20   21 1
    39   21   22 1
    40   21   55 1
    41   21   56 1
    42   22   23 1
    43   22   29 1
    44   22   24 1
    45   24   25 1
    46   24   26 1
    47   24   39 1
    48   26   27 1
    49   26   57 1
    50   26   58 1
    51   27   28 1
    52   27   29 1
    53   27   30 1
    54   30   37 am
    55   30   31 1
    56   31   32 2
    57   31   59 1
    58   32   33 1
    59   32   60 1
    60   33   34 2
    61   33   35 am
    62   35   36 1
    63   35   37 am
    64   37   38 2
    65   39   61 1
@<TRIPOS>MOLECULE
ZINC05618789
   61    65     0     0     0
SMALL
USER_CHARGES
1-[4-hydroxy-5-(trityloxymethyl)tetrahydrofuran-2-yl]pyrimidine-2,4-dione
@<TRIPOS>ATOM
      1 C1         -9.6401    1.6481    0.7885 C.ar      1 <0>        -0.1104
      2 C2         -9.7721    2.4800    1.8845 C.ar      1 <0>        -0.1254
      3 C3         -8.7573    2.5571    2.8200 C.ar      1 <0>        -0.0885
      4 C4         -7.6104    1.8023    2.6594 C.ar      1 <0>        -0.1150
      5 C5         -7.4762    0.9743    1.5606 C.ar      1 <0>        -0.1028
      6 C6         -8.4932    0.8932    0.6279 C.ar      1 <0>        -0.1240
      7 C7         -6.5039    1.8867    3.6790 C.3       1 <0>         0.2539
      8 C8         -5.6055    0.6841    3.5460 C.ar      1 <0>        -0.1124
      9 C9         -6.1546   -0.5758    3.3977 C.ar      1 <0>        -0.1010
     10 C10        -5.3305   -1.6784    3.2709 C.ar      1 <0>        -0.1254
     11 C11        -3.9574   -1.5223    3.3029 C.ar      1 <0>        -0.1137
     12 C12        -3.4083   -0.2630    3.4564 C.ar      1 <0>        -0.1161
     13 C13        -4.2324    0.8402    3.5780 C.ar      1 <0>        -0.0932
     14 C14        -7.0980    1.9192    5.0635 C.ar      1 <0>        -0.0697
     15 C15        -8.3019    1.2876    5.3141 C.ar      1 <0>        -0.1024
     16 C16        -8.8445    1.3134    6.5853 C.ar      1 <0>        -0.1225
     17 C17        -8.1884    1.9796    7.6034 C.ar      1 <0>        -0.1151
     18 C18        -6.9872    2.6157    7.3516 C.ar      1 <0>        -0.1234
     19 C19        -6.4420    2.5855    6.0817 C.ar      1 <0>        -0.0881
     20 O1         -5.7432    3.0762    3.4590 O.3       1 <0>        -0.3584
     21 C20        -5.1336    3.1459    2.1684 C.3       1 <0>         0.0625
     22 C21        -4.3495    4.4539    2.0447 C.3       1 <0>         0.0998
     23 H1         -4.9796    5.3040    2.3060 H         1 <0>         0.0951
     24 C22        -3.7807    4.6159    0.6120 C.3       1 <0>         0.0858
     25 H2         -4.5137    5.0809   -0.0472 H         1 <0>         0.0787
     26 C23        -2.5736    5.5564    0.8467 C.3       1 <0>        -0.1949
     27 C24        -2.2554    5.3955    2.3459 C.3       1 <0>         0.3067
     28 H3         -2.3912    6.3481    2.8579 H         1 <0>         0.1160
     29 O2         -3.1681    4.4188    2.8741 O.3       1 <0>        -0.3475
     30 N1         -0.8762    4.9314    2.5153 N.am      1 <0>        -0.5340
     31 C25         0.0404    5.7403    3.1300 C.2       1 <0>         0.1749
     32 C26         1.3114    5.3123    3.2866 C.2       1 <0>        -0.2937
     33 C27         1.6698    4.0288    2.8086 C.2       1 <0>         0.5487
     34 O3          2.8098    3.6208    2.9386 O.2       1 <0>        -0.5177
     35 N2          0.7370    3.2621    2.2084 N.am      1 <0>        -0.6665
     36 H4          0.9813    2.3528    1.8715 H         1 <0>         0.4354
     37 C28        -0.5216    3.7157    2.0609 C.2       1 <0>         0.6847
     38 O4         -1.3508    3.0153    1.5132 O.2       1 <0>        -0.4896
     39 O5         -3.3523    3.3576    0.0874 O.3       1 <0>        -0.5245
     40 H5        -10.4328    1.5881    0.0574 H         1 <0>         0.1223
     41 H6        -10.6680    3.0701    2.0098 H         1 <0>         0.1235
     42 H7         -8.8603    3.2074    3.6761 H         1 <0>         0.1245
     43 H8         -6.5783    0.3879    1.4329 H         1 <0>         0.1285
     44 H9         -8.3899    0.2435   -0.2286 H         1 <0>         0.1230
     45 H10        -7.2275   -0.6983    3.3772 H         1 <0>         0.1208
     46 H11        -5.7595   -2.6623    3.1513 H         1 <0>         0.1221
     47 H12        -3.3135   -2.3842    3.2082 H         1 <0>         0.1208
     48 H13        -2.3355   -0.1410    3.4817 H         1 <0>         0.1202
     49 H14        -3.8034    1.8240    3.6983 H         1 <0>         0.1342
     50 H15        -8.8166    0.7709    4.5176 H         1 <0>         0.1225
     51 H16        -9.7831    0.8168    6.7819 H         1 <0>         0.1230
     52 H17        -8.6145    2.0035    8.5955 H         1 <0>         0.1216
     53 H18        -6.4748    3.1365    8.1470 H         1 <0>         0.1226
     54 H19        -5.5037    3.0827    5.8849 H         1 <0>         0.1282
     55 H20        -5.9055    3.1110    1.3996 H         1 <0>         0.0668
     56 H21        -4.4554    2.3022    2.0409 H         1 <0>         0.0909
     57 H22        -2.8447    6.5881    0.6228 H         1 <0>         0.0985
     58 H23        -1.7224    5.2464    0.2406 H         1 <0>         0.0935
     59 H24        -0.2513    6.7166    3.4880 H         1 <0>         0.1778
     60 H25         2.0449    5.9408    3.7696 H         1 <0>         0.1720
     61 H26        -2.9081    3.4194   -0.7694 H         1 <0>         0.3763
@<TRIPOS>BOND
     1    1    6 ar
     2    1    2 ar
     3    1   40 1
     4    2    3 ar
     5    2   41 1
     6    3    4 ar
     7    3   42 1
     8    4    5 ar
     9    4    7 1
    10    5    6 ar
    11    5   43 1
    12    6   44 1
    13    7    8 1
    14    7   14 1
    15    7   20 1
    16    8   13 ar
    17    8    9 ar
    18    9   10 ar
    19    9   45 1
    20   10   11 ar
    21   10   46 1
    22   11   12 ar
    23   11   47 1
    24   12   13 ar
    25   12   48 1
    26   13   49 1
    27   14   19 ar
    28   14   15 ar
    29   15   16 ar
    30   15   50 1
    31   16   17 ar
    32   16   51 1
    33   17   18 ar
    34   17   52 1
    35   18   19 ar
    36   18   53 1
    37   19   54 1
    38   20   21 1
    39   21   22 1
    40   21   55 1
    41   21   56 1
    42   22   23 1
    43   22   29 1
    44   22   24 1
    45   24   25 1
    46   24   26 1
    47   24   39 1
    48   26   27 1
    49   26   57 1
    50   26   58 1
    51   27   28 1
    52   27   29 1
    53   27   30 1
    54   30   37 am
    55   30   31 1
    56   31   32 2
    57   31   59 1
    58   32   33 1
    59   32   60 1
    60   33   34 2
    61   33   35 am
    62   35   36 1
    63   35   37 am
    64   37   38 2
    65   39   61 1
@<TRIPOS>MOLECULE
ZINC05618790
   61    65     0     0     0
SMALL
USER_CHARGES
1-[4-hydroxy-5-(trityloxymethyl)tetrahydrofuran-2-yl]pyrimidine-2,4-dione
@<TRIPOS>ATOM
      1 C1         -0.5201   -1.6240    5.1004 C.ar      1 <0>        -0.1088
      2 C2         -1.8384   -1.2101    5.1418 C.ar      1 <0>        -0.1232
      3 C3         -2.1382    0.1384    5.1910 C.ar      1 <0>        -0.0837
      4 C4         -1.1198    1.0731    5.1985 C.ar      1 <0>        -0.1155
      5 C5          0.1984    0.6594    5.1513 C.ar      1 <0>        -0.1072
      6 C6          0.4983   -0.6894    5.1078 C.ar      1 <0>        -0.1247
      7 C7         -1.4467    2.5432    5.2517 C.3       1 <0>         0.2527
      8 C8         -0.2313    3.3120    5.7022 C.ar      1 <0>        -0.1102
      9 C9          0.5215    2.8530    6.7668 C.ar      1 <0>        -0.0987
     10 C10         1.6393    3.5554    7.1767 C.ar      1 <0>        -0.1213
     11 C11         1.9981    4.7227    6.5289 C.ar      1 <0>        -0.1136
     12 C12         1.2420    5.1848    5.4680 C.ar      1 <0>        -0.1186
     13 C13         0.1274    4.4793    5.0545 C.ar      1 <0>        -0.1061
     14 C14        -2.5748    2.7721    6.2243 C.ar      1 <0>        -0.0711
     15 C15        -2.7352    1.9286    7.3077 C.ar      1 <0>        -0.1019
     16 C16        -3.7669    2.1417    8.2028 C.ar      1 <0>        -0.1219
     17 C17        -4.6448    3.1917    8.0084 C.ar      1 <0>        -0.1138
     18 C18        -4.4878    4.0317    6.9218 C.ar      1 <0>        -0.1227
     19 C19        -3.4527    3.8221    6.0299 C.ar      1 <0>        -0.0879
     20 O1         -1.8393    2.9913    3.9528 O.3       1 <0>        -0.3505
     21 C20        -0.8356    2.8185    2.9504 C.3       1 <0>         0.0535
     22 C21        -1.3623    3.3296    1.6079 C.3       1 <0>         0.0888
     23 H1         -1.7335    4.3494    1.7097 H         1 <0>         0.0952
     24 C22        -0.2471    3.2679    0.5340 C.3       1 <0>         0.0819
     25 H2          0.3714    2.3793    0.6605 H         1 <0>         0.0892
     26 C23        -1.0934    3.1804   -0.7652 C.3       1 <0>        -0.1984
     27 C24        -2.3140    2.3542   -0.3060 C.3       1 <0>         0.2948
     28 H3         -2.1801    1.3095   -0.5867 H         1 <0>         0.1430
     29 O2         -2.4018    2.4671    1.1192 O.3       1 <0>        -0.3477
     30 N1         -3.5327    2.8823   -0.9242 N.am      1 <0>        -0.5352
     31 C25        -3.9618    4.1426   -0.6077 C.2       1 <0>         0.1773
     32 C26        -5.0824    4.6310   -1.1811 C.2       1 <0>        -0.2900
     33 C27        -5.7984    3.8203   -2.0945 C.2       1 <0>         0.5502
     34 O3         -6.8140    4.2376   -2.6213 O.2       1 <0>        -0.5117
     35 N2         -5.3453    2.5819   -2.3759 N.am      1 <0>        -0.6620
     36 H4         -5.8455    2.0030   -3.0199 H         1 <0>         0.4388
     37 C28        -4.2225    2.1217   -1.7935 C.2       1 <0>         0.7047
     38 O4         -3.8259    1.0029   -2.0569 O.2       1 <0>        -0.5386
     39 O5          0.5500    4.4538    0.5505 O.3       1 <0>        -0.5465
     40 H5         -0.2859   -2.6776    5.0626 H         1 <0>         0.1229
     41 H6         -2.6341   -1.9404    5.1360 H         1 <0>         0.1240
     42 H7         -3.1682    0.4618    5.2234 H         1 <0>         0.1247
     43 H8          0.9939    1.3897    5.1526 H         1 <0>         0.1271
     44 H9          1.5283   -1.0127    5.0758 H         1 <0>         0.1232
     45 H10         0.2387    1.9433    7.2758 H         1 <0>         0.1229
     46 H11         2.2303    3.1941    8.0054 H         1 <0>         0.1239
     47 H12         2.8693    5.2734    6.8515 H         1 <0>         0.1230
     48 H13         1.5222    6.0968    4.9619 H         1 <0>         0.1245
     49 H14        -0.4633    4.8404    4.2256 H         1 <0>         0.1295
     50 H15        -2.0520    1.1056    7.4571 H         1 <0>         0.1226
     51 H16        -3.8893    1.4856    9.0518 H         1 <0>         0.1235
     52 H17        -5.4530    3.3559    8.7056 H         1 <0>         0.1223
     53 H18        -5.1736    4.8521    6.7700 H         1 <0>         0.1234
     54 H19        -3.3300    4.4784    5.1810 H         1 <0>         0.1273
     55 H20        -0.5865    1.7609    2.8642 H         1 <0>         0.0651
     56 H21         0.0561    3.3803    3.2285 H         1 <0>         0.0858
     57 H22        -0.5457    2.6596   -1.5506 H         1 <0>         0.1067
     58 H23        -1.3996    4.1715   -1.0999 H         1 <0>         0.1007
     59 H24        -3.4045    4.7452    0.0942 H         1 <0>         0.1734
     60 H25        -5.4299    5.6255   -0.9433 H         1 <0>         0.1735
     61 H26         1.1908    4.5072   -0.1718 H         1 <0>         0.3913
@<TRIPOS>BOND
     1    1    6 ar
     2    1    2 ar
     3    1   40 1
     4    2    3 ar
     5    2   41 1
     6    3    4 ar
     7    3   42 1
     8    4    5 ar
     9    4    7 1
    10    5    6 ar
    11    5   43 1
    12    6   44 1
    13    7    8 1
    14    7   14 1
    15    7   20 1
    16    8   13 ar
    17    8    9 ar
    18    9   10 ar
    19    9   45 1
    20   10   11 ar
    21   10   46 1
    22   11   12 ar
    23   11   47 1
    24   12   13 ar
    25   12   48 1
    26   13   49 1
    27   14   19 ar
    28   14   15 ar
    29   15   16 ar
    30   15   50 1
    31   16   17 ar
    32   16   51 1
    33   17   18 ar
    34   17   52 1
    35   18   19 ar
    36   18   53 1
    37   19   54 1
    38   20   21 1
    39   21   22 1
    40   21   55 1
    41   21   56 1
    42   22   23 1
    43   22   29 1
    44   22   24 1
    45   24   25 1
    46   24   26 1
    47   24   39 1
    48   26   27 1
    49   26   57 1
    50   26   58 1
    51   27   28 1
    52   27   29 1
    53   27   30 1
    54   30   37 am
    55   30   31 1
    56   31   32 2
    57   31   59 1
    58   32   33 1
    59   32   60 1
    60   33   34 2
    61   33   35 am
    62   35   36 1
    63   35   37 am
    64   37   38 2
    65   39   61 1
@<TRIPOS>MOLECULE
ZINC05618793
   61    65     0     0     0
SMALL
USER_CHARGES
1-[4-hydroxy-5-(trityloxymethyl)tetrahydrofuran-2-yl]pyrimidine-2,4-dione
@<TRIPOS>ATOM
      1 C1          5.0512   -8.2664    1.5639 C.ar      1 <0>        -0.1110
      2 C2          3.7022   -8.3020    1.2643 C.ar      1 <0>        -0.1241
      3 C3          2.8169   -7.5062    1.9670 C.ar      1 <0>        -0.1005
      4 C4          3.2805   -6.6751    2.9695 C.ar      1 <0>        -0.1124
      5 C5          4.6302   -6.6355    3.2656 C.ar      1 <0>        -0.0908
      6 C6          5.5151   -7.4342    2.5655 C.ar      1 <0>        -0.1231
      7 C7          2.3154   -5.8075    3.7356 C.3       1 <0>         0.2512
      8 C8          2.9356   -5.4042    5.0485 C.ar      1 <0>        -0.0705
      9 C9          3.2132   -6.3627    6.0051 C.ar      1 <0>        -0.1020
     10 C10         3.7857   -5.9932    7.2079 C.ar      1 <0>        -0.1216
     11 C11         4.0731   -4.6643    7.4573 C.ar      1 <0>        -0.1161
     12 C12         3.7907   -3.7052    6.5027 C.ar      1 <0>        -0.1226
     13 C13         3.2217   -4.0751    5.2984 C.ar      1 <0>        -0.0920
     14 C14         1.0457   -6.5766    3.9951 C.ar      1 <0>        -0.1072
     15 C15         1.0856   -7.9520    4.1281 C.ar      1 <0>        -0.1033
     16 C16        -0.0785   -8.6571    4.3700 C.ar      1 <0>        -0.1229
     17 C17        -1.2838   -7.9877    4.4708 C.ar      1 <0>        -0.1136
     18 C18        -1.3245   -6.6129    4.3326 C.ar      1 <0>        -0.1226
     19 C19        -0.1598   -5.9074    4.0945 C.ar      1 <0>        -0.0927
     20 O1          2.0160   -4.6380    2.9710 O.3       1 <0>        -0.3537
     21 C20         1.4278   -4.9109    1.6976 C.3       1 <0>         0.0549
     22 C21         1.0259   -3.5947    1.0289 C.3       1 <0>         0.1061
     23 H1          1.8853   -2.9260    0.9799 H         1 <0>         0.1058
     24 C22         0.4956   -3.8710   -0.3944 C.3       1 <0>         0.0830
     25 H2          1.2586   -3.6534   -1.1418 H         1 <0>         0.0908
     26 C23        -0.6876   -2.8711   -0.5051 C.3       1 <0>        -0.1967
     27 C24        -1.2070   -2.8672    0.9547 C.3       1 <0>         0.3088
     28 H3         -1.8656   -3.7187    1.1258 H         1 <0>         0.1215
     29 O2         -0.0304   -2.9750    1.7717 O.3       1 <0>        -0.3517
     30 N1         -1.9115   -1.6149    1.2405 N.am      1 <0>        -0.5320
     31 C25        -3.2391   -1.6443    1.5704 C.2       1 <0>         0.1748
     32 C26        -3.8884   -0.4900    1.8337 C.2       1 <0>        -0.2900
     33 C27        -3.1772    0.7320    1.7623 C.2       1 <0>         0.5490
     34 O3         -3.7414    1.7859    1.9951 O.2       1 <0>        -0.5139
     35 N2         -1.8696    0.7184    1.4336 N.am      1 <0>        -0.6644
     36 H4         -1.3604    1.5774    1.3807 H         1 <0>         0.4372
     37 C28        -1.2469   -0.4469    1.1764 C.2       1 <0>         0.6990
     38 O4         -0.0673   -0.4438    0.8817 O.2       1 <0>        -0.5234
     39 O5          0.0353   -5.2187   -0.5129 O.3       1 <0>        -0.5529
     40 H5          5.7429   -8.8884    1.0151 H         1 <0>         0.1224
     41 H6          3.3399   -8.9519    0.4815 H         1 <0>         0.1231
     42 H7          1.7629   -7.5341    1.7329 H         1 <0>         0.1241
     43 H8          4.9930   -5.9829    4.0458 H         1 <0>         0.1249
     44 H9          6.5691   -7.4061    2.7993 H         1 <0>         0.1233
     45 H10         2.9855   -7.4005    5.8117 H         1 <0>         0.1200
     46 H11         4.0061   -6.7426    7.9538 H         1 <0>         0.1229
     47 H12         4.5180   -4.3753    8.3980 H         1 <0>         0.1217
     48 H13         4.0149   -2.6668    6.6976 H         1 <0>         0.1229
     49 H14         3.0011   -3.3257    4.5526 H         1 <0>         0.1328
     50 H15         2.0268   -8.4753    4.0460 H         1 <0>         0.1233
     51 H16        -0.0468   -9.7313    4.4776 H         1 <0>         0.1222
     52 H17        -2.1936   -8.5389    4.6572 H         1 <0>         0.1212
     53 H18        -2.2661   -6.0899    4.4110 H         1 <0>         0.1211
     54 H19        -0.1916   -4.8333    3.9866 H         1 <0>         0.1298
     55 H20         0.5442   -5.5349    1.8317 H         1 <0>         0.0732
     56 H21         2.1490   -5.4326    1.0686 H         1 <0>         0.0703
     57 H22        -1.4497   -3.2388   -1.1922 H         1 <0>         0.0985
     58 H23        -0.3393   -1.8815   -0.8008 H         1 <0>         0.1077
     59 H24        -3.7651   -2.5862    1.6203 H         1 <0>         0.1797
     60 H25        -4.9372   -0.4986    2.0910 H         1 <0>         0.1743
     61 H26        -0.3078   -5.4415   -1.3891 H         1 <0>         0.3864
@<TRIPOS>BOND
     1    1    6 ar
     2    1    2 ar
     3    1   40 1
     4    2    3 ar
     5    2   41 1
     6    3    4 ar
     7    3   42 1
     8    4    5 ar
     9    4    7 1
    10    5    6 ar
    11    5   43 1
    12    6   44 1
    13    7    8 1
    14    7   14 1
    15    7   20 1
    16    8   13 ar
    17    8    9 ar
    18    9   10 ar
    19    9   45 1
    20   10   11 ar
    21   10   46 1
    22   11   12 ar
    23   11   47 1
    24   12   13 ar
    25   12   48 1
    26   13   49 1
    27   14   19 ar
    28   14   15 ar
    29   15   16 ar
    30   15   50 1
    31   16   17 ar
    32   16   51 1
    33   17   18 ar
    34   17   52 1
    35   18   19 ar
    36   18   53 1
    37   19   54 1
    38   20   21 1
    39   21   22 1
    40   21   55 1
    41   21   56 1
    42   22   23 1
    43   22   29 1
    44   22   24 1
    45   24   25 1
    46   24   26 1
    47   24   39 1
    48   26   27 1
    49   26   57 1
    50   26   58 1
    51   27   28 1
    52   27   29 1
    53   27   30 1
    54   30   37 am
    55   30   31 1
    56   31   32 2
    57   31   59 1
    58   32   33 1
    59   32   60 1
    60   33   34 2
    61   33   35 am
    62   35   36 1
    63   35   37 am
    64   37   38 2
    65   39   61 1
