@<TRIPOS>MOLECULE
ZINC28711981
   59    62     0     0     0
SMALL
USER_CHARGES
6-(4-fluorophenoxy)-3-[[(3S)-1-isopropyl-3-piperidyl]methyl]-2-methyl-quinazolin-4-one
@<TRIPOS>ATOM
      1 C1         -4.6626   -0.5015    2.7763 C.3       1 <0>        -0.1152
      2 C2         -5.3076    0.8413    2.5484 C.2       1 <0>         0.3750
      3 N1         -6.0218    1.3515    3.5048 N.2       1 <0>        -0.4973
      4 C3         -6.6372    2.5534    3.3700 C.ar      1 <0>         0.1171
      5 C4         -7.4110    3.0986    4.3968 C.ar      1 <0>        -0.0623
      6 C5         -8.0153    4.3111    4.2232 C.ar      1 <0>        -0.1413
      7 C6         -7.8720    5.0182    3.0311 C.ar      1 <0>         0.1151
      8 C7         -7.1118    4.5018    1.9974 C.ar      1 <0>        -0.0735
      9 C8         -6.4892    3.2662    2.1594 C.ar      1 <0>        -0.1607
     10 C9         -5.6685    2.6633    1.0986 C.2       1 <0>         0.5539
     11 O1         -5.5007    3.2258    0.0322 O.2       1 <0>        -0.5015
     12 N2         -5.1065    1.4589    1.3544 N.am      1 <0>        -0.5421
     13 C10        -4.2790    0.8123    0.3329 C.3       1 <0>         0.0969
     14 C11        -5.1348   -0.1690   -0.4706 C.3       1 <0>        -0.1273
     15 H1         -5.6195   -0.8771    0.2176 H         1 <0>         0.1017
     16 C12        -6.2031    0.6027   -1.2502 C.3       1 <0>        -0.1325
     17 C13        -7.0157   -0.3806   -2.0967 C.3       1 <0>        -0.1436
     18 C14        -6.0733   -1.1406   -3.0328 C.3       1 <0>        -0.0072
     19 N3         -5.0708   -1.8627   -2.2392 N.4       1 <0>        -0.3955
     20 C15        -4.2467   -0.9351   -1.4537 C.3       1 <0>        -0.0092
     21 C16        -4.2343   -2.7137   -3.0960 C.3       1 <0>         0.0322
     22 C17        -3.5881   -1.8591   -4.1883 C.3       1 <0>        -0.1870
     23 C18        -3.1422   -3.3719   -2.2505 C.3       1 <0>        -0.1873
     24 O2         -8.4835    6.2229    2.8829 O.3       1 <0>        -0.2466
     25 C19        -9.1259    6.7490    3.9590 C.ar      1 <0>         0.0617
     26 C20       -10.5117    6.7243    4.0208 C.ar      1 <0>        -0.0884
     27 C21       -11.1630    7.2543    5.1177 C.ar      1 <0>        -0.1380
     28 C22       -10.4339    7.8202    6.1499 C.ar      1 <0>         0.1098
     29 C23        -9.0511    7.8507    6.0870 C.ar      1 <0>        -0.1378
     30 C24        -8.3968    7.3164    4.9940 C.ar      1 <0>        -0.1018
     31 F1        -11.0725    8.3435    7.2193 F         1 <0>        -0.1298
     32 H2         -4.9192   -0.8655    3.7821 H         1 <0>         0.1097
     33 H3         -3.5705   -0.4031    2.6895 H         1 <0>         0.0945
     34 H4         -5.0274   -1.2159    2.0236 H         1 <0>         0.0848
     35 H5         -7.5317    2.5622    5.3264 H         1 <0>         0.1485
     36 H6         -8.6122    4.7278    5.0210 H         1 <0>         0.1437
     37 H7         -7.0023    5.0509    1.0738 H         1 <0>         0.1505
     38 H8         -3.8659    1.5764   -0.3420 H         1 <0>         0.1138
     39 H9         -3.4555    0.2682    0.8185 H         1 <0>         0.1078
     40 H10        -6.8691    1.1210   -0.5446 H         1 <0>         0.0861
     41 H11        -5.7174    1.3407   -1.9055 H         1 <0>         0.0912
     42 H12        -7.5324   -1.0928   -1.4365 H         1 <0>         0.0870
     43 H13        -7.7575    0.1731   -2.6909 H         1 <0>         0.1139
     44 H14        -6.6523   -1.8585   -3.6323 H         1 <0>         0.1320
     45 H15        -5.5676   -0.4284   -3.7014 H         1 <0>         0.1292
     46 H16        -3.7500   -0.2238   -2.1300 H         1 <0>         0.1322
     47 H17        -3.4870   -1.5024   -0.8961 H         1 <0>         0.1393
     48 H18        -4.8909   -3.4763   -3.5401 H         1 <0>         0.1362
     49 H19        -2.9617   -2.4963   -4.8299 H         1 <0>         0.1048
     50 H20        -2.9647   -1.0807   -3.7241 H         1 <0>         0.0803
     51 H21        -4.3733   -1.3859   -4.7962 H         1 <0>         0.0813
     52 H22        -2.5159   -4.0091   -2.8921 H         1 <0>         0.1066
     53 H23        -3.6068   -3.9863   -1.4652 H         1 <0>         0.0825
     54 H24        -2.5188   -2.5935   -1.7863 H         1 <0>         0.0834
     55 H25       -11.0808    6.2870    3.2138 H         1 <0>         0.1448
     56 H26       -12.2415    7.2309    5.1683 H         1 <0>         0.1485
     57 H27        -8.4837    8.2927    6.8927 H         1 <0>         0.1475
     58 H28        -7.3181    7.3406    4.9450 H         1 <0>         0.1426
     59 H29        -5.6075   -2.5141   -1.5338 H         1 <0>         0.4398
@<TRIPOS>BOND
     1    1    2 1
     2    1   32 1
     3    1   33 1
     4    1   34 1
     5    2   12 1
     6    2    3 2
     7    3    4 1
     8    4    9 ar
     9    4    5 ar
    10    5    6 ar
    11    5   35 1
    12    6    7 ar
    13    6   36 1
    14    7    8 ar
    15    7   24 1
    16    8    9 ar
    17    8   37 1
    18    9   10 1
    19   10   11 2
    20   10   12 am
    21   12   13 1
    22   13   14 1
    23   13   38 1
    24   13   39 1
    25   14   15 1
    26   14   20 1
    27   14   16 1
    28   16   17 1
    29   16   40 1
    30   16   41 1
    31   17   18 1
    32   17   42 1
    33   17   43 1
    34   18   19 1
    35   18   44 1
    36   18   45 1
    37   19   20 1
    38   19   21 1
    39   19   59 1
    40   20   46 1
    41   20   47 1
    42   21   22 1
    43   21   23 1
    44   21   48 1
    45   22   49 1
    46   22   50 1
    47   22   51 1
    48   23   52 1
    49   23   53 1
    50   23   54 1
    51   24   25 1
    52   25   30 ar
    53   25   26 ar
    54   26   27 ar
    55   26   55 1
    56   27   28 ar
    57   27   56 1
    58   28   29 ar
    59   28   31 1
    60   29   30 ar
    61   29   57 1
    62   30   58 1
