@<TRIPOS>MOLECULE
ZINC28475732
   25    25     0     0     0
SMALL
USER_CHARGES

@<TRIPOS>ATOM
      1 C1         -0.0167    1.3823    0.0096 C.ar      1 <0>        -0.1630
      2 C2          1.1808    2.0721    0.0019 C.ar      1 <0>         0.0435
      3 N1          2.3308    1.4269   -0.0130 N.ar      1 <0>        -0.5074
      4 C3          2.3867    0.1094   -0.0206 C.ar      1 <0>         0.0719
      5 C4          1.2303   -0.6473   -0.0132 C.ar      1 <0>        -0.0526
      6 C5          0.0021   -0.0041    0.0020 C.ar      1 <0>        -0.0149
      7 C6         -1.2819   -0.7930    0.0105 C.3       1 <0>        -0.0639
      8 C7         -1.7307   -1.0523   -1.4290 C.3       1 <0>        -1.0220
      9 O1         -1.9423    0.1948   -2.0939 O.3       1 <0>        -0.5122
     10 P1         -0.4423   -1.9977   -2.3063 P.3       1 <0>         2.2115
     11 O2          0.8540   -1.1262   -2.4269 O.2       1 <0>        -1.1579
     12 O3         -0.1195   -3.3061   -1.5074 O.3       1 <0>        -1.1611
     13 O4         -0.9543   -2.3733   -3.7385 O.3       1 <0>        -1.1748
     14 P2         -3.2839   -2.0067   -1.4187 P.3       1 <0>         2.2736
     15 O5         -3.0551   -3.3550   -0.6998 O.2       1 <0>        -1.0953
     16 O6         -4.3758   -1.2054   -0.6752 O.3       1 <0>        -1.1337
     17 O7         -3.7562   -2.2795   -2.9335 O.3       1 <0>        -0.8691
     18 H1         -0.9553    1.9163    0.0259 H         1 <0>         0.1048
     19 H2          1.1748    3.1521    0.0078 H         1 <0>         0.1262
     20 H3          3.3473   -0.3840   -0.0331 H         1 <0>         0.1355
     21 H4          1.2825   -1.7260   -0.0195 H         1 <0>         0.1390
     22 H5         -1.1205   -1.7443    0.5177 H         1 <0>         0.0838
     23 H6         -2.0522   -0.2277    0.5351 H         1 <0>         0.0448
     24 H7         -2.6165    0.7514   -1.6807 H         1 <0>         0.3122
     25 H8         -4.5783   -2.7837   -3.0044 H         1 <0>         0.3812
@<TRIPOS>BOND
     1    1    6 ar
     2    1    2 ar
     3    1   18 1
     4    2    3 ar
     5    2   19 1
     6    3    4 ar
     7    4    5 ar
     8    4   20 1
     9    5    6 ar
    10    5   21 1
    11    6    7 1
    12    7    8 1
    13    7   22 1
    14    7   23 1
    15    8    9 1
    16    8   10 1
    17    8   14 1
    18    9   24 1
    19   10   11 2
    20   10   12 1
    21   10   13 1
    22   14   15 2
    23   14   16 1
    24   14   17 1
    25   17   25 1
@<TRIPOS>MOLECULE
ZINC28475732
   26    26     0     0     0
SMALL
USER_CHARGES
[1-hydroxy-1-phosphono-2-(4-pyridyl)ethyl]phosphonic acid
@<TRIPOS>ATOM
      1 C1         -0.8379    5.4552    0.5691 C.ar      1 <0>        -0.0517
      2 C2         -0.4961    6.5072    1.3978 C.ar      1 <0>         0.0762
      3 N1         -1.2887    6.8720    2.3866 N.ar      1 <0>        -0.4871
      4 C3         -2.4270    6.2515    2.6279 C.ar      1 <0>         0.0713
      5 C4         -2.8320    5.1875    1.8444 C.ar      1 <0>        -0.0855
      6 C5         -2.0248    4.7752    0.7952 C.ar      1 <0>        -0.0791
      7 C6         -2.4310    3.6195   -0.0826 C.3       1 <0>        -0.0368
      8 C7         -3.1015    4.1530   -1.3502 C.3       1 <0>        -1.0245
      9 O1         -3.6162    3.0597   -2.1130 O.3       1 <0>        -0.5798
     10 P1         -4.4671    5.2700   -0.8912 P.3       1 <0>         2.2389
     11 O2         -5.1156    5.7861   -2.1174 O.2       1 <0>        -1.0749
     12 O3         -5.5476    4.4634   -0.0115 O.3       1 <0>        -0.9359
     13 O4         -3.8872    6.5017   -0.0318 O.3       1 <0>        -1.0523
     14 P2         -1.8780    5.0664   -2.3464 P.3       1 <0>         2.2421
     15 O5         -2.4739    5.4240   -3.6531 O.2       1 <0>        -1.0736
     16 O6         -1.4463    6.4080   -1.5681 O.3       1 <0>        -1.0516
     17 O7         -0.5811    4.1422   -2.5829 O.3       1 <0>        -0.9362
     18 H1         -0.1869    5.1643   -0.2420 H         1 <0>         0.1168
     19 H2          0.4287    7.0395    1.2308 H         1 <0>         0.1348
     20 H3         -3.0501    6.5788    3.4470 H         1 <0>         0.1305
     21 H4         -3.7658    4.6838    2.0465 H         1 <0>         0.1058
     22 H5         -1.5395    3.0364   -0.3569 H         1 <0>         0.0543
     23 H6         -3.1369    2.9755    0.4624 H         1 <0>         0.0529
     24 H7         -4.1358    3.2489   -3.0639 H         1 <0>         0.3947
     25 H8          0.2688    4.5260   -3.1663 H         1 <0>         0.4265
     26 H9         -6.4476    4.9757    0.3594 H         1 <0>         0.4243
@<TRIPOS>BOND
     1    1    6 ar
     2    1    2 ar
     3    1   18 1
     4    2    3 ar
     5    2   19 1
     6    3    4 ar
     7    4    5 ar
     8    4   20 1
     9    5    6 ar
    10    5   21 1
    11    6    7 1
    12    7    8 1
    13    7   22 1
    14    7   23 1
    15    8    9 1
    16    8   10 1
    17    8   14 1
    18    9   24 1
    19   10   11 2
    20   10   12 1
    21   10   13 1
    22   12   26 1
    23   14   15 2
    24   14   16 1
    25   14   17 1
    26   17   25 1
