@<TRIPOS>MOLECULE
ZINC12503861
   31    32     0     0     0
SMALL
USER_CHARGES
[(2R,3S,4R,5R)-5-(3,5-dioxo-1,2,4-triazin-2-yl)-3,4-dihydroxy-tetrahydrofuran-2-yl]methyl dihydrogen phosphate
@<TRIPOS>ATOM
      1 C1          1.2914   -0.7010   -0.0140 C.2       1 <0>         0.0382
      2 C2          0.0021   -0.0041    0.0020 C.2       1 <0>         0.5248
      3 O1         -1.0390   -0.6345    0.0082 O.2       1 <0>        -0.4920
      4 N1         -0.0162    1.3449    0.0094 N.am      1 <0>        -0.6550
      5 H1         -0.8629    1.8182    0.0160 H         1 <0>         0.4332
      6 C3          1.1400    2.0344    0.0021 C.2       1 <0>         0.6888
      7 O2          1.1123    3.2500    0.0085 O.2       1 <0>        -0.5213
      8 N2          2.3252    1.3990   -0.0126 N.am      1 <0>        -0.4285
      9 N3          2.3906    0.0007   -0.0207 N.2       1 <0>        -0.1537
     10 C4          3.5643    2.1806   -0.0197 C.3       1 <0>         0.3248
     11 H2          3.3626    3.2130    0.2660 H         1 <0>         0.1364
     12 C5          4.6036    1.5497    0.9333 C.3       1 <0>         0.0396
     13 H3          4.3987    0.4883    1.0732 H         1 <0>         0.0961
     14 C6          5.9513    1.7495    0.2046 C.3       1 <0>         0.0466
     15 H4          6.4126    0.7869   -0.0159 H         1 <0>         0.0917
     16 C7          5.5668    2.4775   -1.1026 C.3       1 <0>         0.0885
     17 H5          5.6740    3.5555   -0.9822 H         1 <0>         0.0957
     18 O3          4.1823    2.1315   -1.3242 O.3       1 <0>        -0.3354
     19 C8          6.4321    1.9813   -2.2628 C.3       1 <0>         0.1410
     20 O4          6.0903    2.6966   -3.4517 O.3       1 <0>        -0.7515
     21 P1          6.8046    2.4322   -4.8701 P.3       1 <0>         2.1323
     22 O5          6.6951    0.9978   -5.2178 O.2       1 <0>        -1.1641
     23 O6          6.8295    2.5592    0.9890 O.3       1 <0>        -0.5337
     24 O7          4.6083    2.2299    2.1901 O.3       1 <0>        -0.5427
     25 H6          1.3306   -1.7802   -0.0205 H         1 <0>         0.2250
     26 H7          7.4836    2.1472   -2.0287 H         1 <0>         0.0583
     27 H8          6.2576    0.9164   -2.4166 H         1 <0>         0.0450
     28 H9          7.1028    2.1503    1.8215 H         1 <0>         0.3707
     29 H10         5.2430    1.8746    2.8272 H         1 <0>         0.3790
     30 O8          6.0846    3.3164   -6.0067 O.3       1 <0>        -1.1783
     31 O9          8.3581    2.8440   -4.7737 O.3       1 <0>        -1.1994
@<TRIPOS>BOND
     1    1    9 2
     2    1    2 1
     3    1   25 1
     4    2    3 2
     5    2    4 am
     6    4    5 1
     7    4    6 am
     8    6    7 2
     9    6    8 am
    10    8    9 1
    11    8   10 1
    12   10   11 1
    13   10   18 1
    14   10   12 1
    15   12   13 1
    16   12   14 1
    17   12   24 1
    18   14   15 1
    19   14   16 1
    20   14   23 1
    21   16   17 1
    22   16   18 1
    23   16   19 1
    24   19   20 1
    25   19   26 1
    26   19   27 1
    27   20   21 1
    28   21   22 2
    29   21   30 1
    30   21   31 1
    31   23   28 1
    32   24   29 1
