@<TRIPOS>MOLECULE
ZINC13493184
   37    38     0     0     0
SMALL
USER_CHARGES
(E)-3-[1-methyl-4-(2-phenylacetyl)pyrrol-2-yl]prop-2-enehydroxamic acid
@<TRIPOS>ATOM
      1 C1          7.9370   -3.0869   -3.9119 C.3       1 <0>         0.0578
      2 N1          7.0712   -2.5884   -2.8405 N.pl3     1 <0>        -0.4211
      3 C2          5.9111   -1.9364   -3.0191 C.2       1 <0>         0.0969
      4 C3          5.3857   -1.6289   -1.7734 C.2       1 <0>        -0.2631
      5 C4          6.2939   -2.1245   -0.8073 C.2       1 <0>        -0.0995
      6 C5          7.3191   -2.7156   -1.4903 C.2       1 <0>        -0.0044
      7 C6          8.4831   -3.3655   -0.8918 C.2       1 <0>         0.0324
      8 C7          8.5599   -3.5128    0.4529 C.2       1 <0>        -0.2192
      9 C8          9.7344   -4.0422    1.0413 C.2       1 <0>         0.5673
     10 O1         10.6751   -4.3649    0.3387 O.2       1 <0>        -0.5316
     11 N2          9.8108   -4.1888    2.3789 N.am      1 <0>        -0.5942
     12 O2         10.9851   -4.7181    2.9672 O.3       1 <0>        -0.3162
     13 C9          4.1307   -0.9193   -1.5072 C.2       1 <0>         0.4262
     14 O3          3.4411   -0.5393   -2.4303 O.2       1 <0>        -0.4571
     15 C10         3.6971   -0.6619   -0.0871 C.3       1 <0>        -0.1125
     16 C11         2.3842    0.0779   -0.0889 C.ar      1 <0>        -0.0769
     17 C12         1.1943   -0.6258   -0.0801 C.ar      1 <0>        -0.1080
     18 C13        -0.0100    0.0527   -0.0823 C.ar      1 <0>        -0.1188
     19 C14        -0.0245    1.4350   -0.0932 C.ar      1 <0>        -0.1204
     20 C15         1.1653    2.1387   -0.1015 C.ar      1 <0>        -0.1185
     21 C16         2.3696    1.4601   -0.0998 C.ar      1 <0>        -0.1086
     22 H1          8.5999   -2.2883   -4.2446 H         1 <0>         0.0861
     23 H2          8.5316   -3.9214   -3.5400 H         1 <0>         0.0939
     24 H3          7.3237   -3.4222   -4.7483 H         1 <0>         0.0938
     25 H4          5.4633   -1.6928   -3.9712 H         1 <0>         0.1822
     26 H5          6.1939   -2.0519    0.2656 H         1 <0>         0.1541
     27 H6          9.2821   -3.7283   -1.5213 H         1 <0>         0.1378
     28 H7          7.7255   -3.2266    1.0761 H         1 <0>         0.1358
     29 H8          9.0614   -3.9317    2.9386 H         1 <0>         0.4099
     30 H9         10.9461   -4.7854    3.9311 H         1 <0>         0.3888
     31 H10         4.3897   -0.1106    0.3781 H         1 <0>         0.0962
     32 H11         3.5783   -1.6117    0.4343 H         1 <0>         0.1066
     33 H12         1.2057   -1.7057   -0.0720 H         1 <0>         0.1198
     34 H13        -0.9396   -0.4970   -0.0758 H         1 <0>         0.1219
     35 H14        -0.9655    1.9651   -0.0998 H         1 <0>         0.1212
     36 H15         1.1539    3.2186   -0.1103 H         1 <0>         0.1219
     37 H16         3.2992    2.0099   -0.1070 H         1 <0>         0.1194
@<TRIPOS>BOND
     1    1    2 1
     2    1   22 1
     3    1   23 1
     4    1   24 1
     5    2    6 1
     6    2    3 1
     7    3    4 2
     8    3   25 1
     9    4    5 1
    10    4   13 1
    11    5    6 2
    12    5   26 1
    13    6    7 1
    14    7    8 2
    15    7   27 1
    16    8    9 1
    17    8   28 1
    18    9   10 2
    19    9   11 am
    20   11   12 1
    21   11   29 1
    22   12   30 1
    23   13   14 2
    24   13   15 1
    25   15   16 1
    26   15   31 1
    27   15   32 1
    28   16   21 ar
    29   16   17 ar
    30   17   18 ar
    31   17   33 1
    32   18   19 ar
    33   18   34 1
    34   19   20 ar
    35   19   35 1
    36   20   21 ar
    37   20   36 1
    38   21   37 1
@<TRIPOS>MOLECULE
ZINC12502280
   47    47     0     0     0
SMALL
USER_CHARGES

@<TRIPOS>ATOM
      1 C1         -0.0178    1.4608    0.0101 C.3       1 <0>         0.0875
      2 N1          0.0021   -0.0041    0.0020 N.pl3     1 <0>        -0.6298
      3 C2          0.0241   -0.7433    1.2666 C.3       1 <0>         0.0868
      4 C3          0.0000   -0.6928   -1.2059 C.ar      1 <0>         0.2420
      5 C4          0.0132   -2.0849   -1.2118 C.ar      1 <0>        -0.2094
      6 C5          0.0112   -2.7693   -2.4056 C.ar      1 <0>        -0.0062
      7 C6         -0.0041   -2.0653   -3.6133 C.ar      1 <0>        -0.2028
      8 C7         -0.0173   -0.6674   -3.6040 C.ar      1 <0>        -0.0337
      9 C8         -0.0210    0.0112   -2.4068 C.ar      1 <0>        -0.2095
     10 C9         -0.0058   -2.7960   -4.8948 C.2       1 <0>         0.5639
     11 O1          0.0061   -4.0119   -4.9015 O.2       1 <0>        -0.5440
     12 N2         -0.0205   -2.1158   -6.0583 N.am      1 <0>        -0.7322
     13 C10        -0.0222   -2.8414   -7.3310 C.3       1 <0>         0.1179
     14 C11        -0.0401   -1.8410   -8.4884 C.3       1 <0>        -0.1311
     15 C12        -0.0418   -2.5988   -9.8176 C.3       1 <0>        -0.1181
     16 C13        -0.0597   -1.5983  -10.9750 C.3       1 <0>        -0.1181
     17 C14        -0.0614   -2.3561  -12.3041 C.3       1 <0>        -0.1075
     18 C15        -0.0793   -1.3557  -13.4616 C.3       1 <0>        -0.1263
     19 C16        -0.0810   -2.1021  -14.7708 C.2       1 <0>         0.5205
     20 O2         -0.0692   -3.3148  -14.7774 O.2       1 <0>        -0.5182
     21 N3         -0.0957   -1.4220  -15.9342 N.am      1 <0>        -0.6003
     22 O3         -0.0974   -2.1233  -17.1643 O.3       1 <0>        -0.3205
     23 H1          1.0048    1.8381    0.0023 H         1 <0>         0.0528
     24 H2         -0.5450    1.8219   -0.8730 H         1 <0>         0.0718
     25 H3         -0.5280    1.8123    0.9069 H         1 <0>         0.0701
     26 H4         -0.9979   -0.9406    1.5900 H         1 <0>         0.0533
     27 H5          0.5496   -1.6879    1.1262 H         1 <0>         0.0727
     28 H6          0.5371   -0.1514    2.0246 H         1 <0>         0.0702
     29 H7          0.0253   -2.6282   -0.2785 H         1 <0>         0.1298
     30 H8          0.0217   -3.8493   -2.4096 H         1 <0>         0.1352
     31 H9         -0.0287   -0.1208   -4.5353 H         1 <0>         0.1233
     32 H10        -0.0359    1.0910   -2.3989 H         1 <0>         0.1287
     33 H11        -0.0300   -1.1459   -6.0530 H         1 <0>         0.3981
     34 H12         0.8734   -3.4590   -7.3983 H         1 <0>         0.0684
     35 H13        -0.9064   -3.4765   -7.3860 H         1 <0>         0.0684
     36 H14        -0.9357   -1.2234   -8.4211 H         1 <0>         0.0693
     37 H15         0.8441   -1.2060   -8.4334 H         1 <0>         0.0693
     38 H16         0.8538   -3.2164   -9.8849 H         1 <0>         0.0684
     39 H17        -0.9260   -3.2338   -9.8726 H         1 <0>         0.0683
     40 H18        -0.9553   -0.9808  -10.9077 H         1 <0>         0.0648
     41 H19         0.8245   -0.9633  -10.9200 H         1 <0>         0.0648
     42 H20         0.8342   -2.9737  -12.3715 H         1 <0>         0.0738
     43 H21        -0.9456   -2.9912  -12.3591 H         1 <0>         0.0738
     44 H22        -0.9749   -0.7381  -13.3943 H         1 <0>         0.0991
     45 H23         0.8049   -0.7207  -13.4066 H         1 <0>         0.0991
     46 H24        -0.1052   -0.4520  -15.9289 H         1 <0>         0.4079
     47 H25        -0.1084   -1.5507  -17.9435 H         1 <0>         0.3876
@<TRIPOS>BOND
     1    1    2 1
     2    1   23 1
     3    1   24 1
     4    1   25 1
     5    2    3 1
     6    2    4 1
     7    3   26 1
     8    3   27 1
     9    3   28 1
    10    4    9 ar
    11    4    5 ar
    12    5    6 ar
    13    5   29 1
    14    6    7 ar
    15    6   30 1
    16    7    8 ar
    17    7   10 1
    18    8    9 ar
    19    8   31 1
    20    9   32 1
    21   10   11 2
    22   10   12 am
    23   12   13 1
    24   12   33 1
    25   13   14 1
    26   13   34 1
    27   13   35 1
    28   14   15 1
    29   14   36 1
    30   14   37 1
    31   15   16 1
    32   15   38 1
    33   15   39 1
    34   16   17 1
    35   16   40 1
    36   16   41 1
    37   17   18 1
    38   17   42 1
    39   17   43 1
    40   18   19 1
    41   18   44 1
    42   18   45 1
    43   19   20 2
    44   19   21 am
    45   21   22 1
    46   21   46 1
    47   22   47 1
@<TRIPOS>MOLECULE
ZINC03873635
   30    29     0     0     0
SMALL
USER_CHARGES
octanedihydroxamic acid
@<TRIPOS>ATOM
      1 C1         -4.9634    0.6713    0.0292 C.3       1 <0>        -0.1203
      2 C2         -3.8141    1.6813    0.0293 C.3       1 <0>        -0.1203
      3 C3         -2.4789    0.9344    0.0189 C.3       1 <0>        -0.1061
      4 C4         -1.3296    1.9443    0.0189 C.3       1 <0>        -0.1272
      5 C5         -0.0144    1.2086    0.0087 C.2       1 <0>         0.5212
      6 O1          0.0021   -0.0041    0.0020 O.2       1 <0>        -0.5197
      7 N1          1.1435    1.8983    0.0013 N.am      1 <0>        -0.6002
      8 O2          2.3793    1.2071   -0.0142 O.3       1 <0>        -0.3209
      9 C6         -6.2987    1.4182    0.0396 C.3       1 <0>        -0.1061
     10 C7         -7.4480    0.4083    0.0396 C.3       1 <0>        -0.1273
     11 C8         -8.7632    1.1440    0.0498 C.2       1 <0>         0.5212
     12 O3         -8.7797    2.3567    0.0565 O.2       1 <0>        -0.5197
     13 N2         -9.9211    0.4543    0.0516 N.am      1 <0>        -0.6002
     14 O4        -11.1569    1.1456    0.0612 O.3       1 <0>        -0.3209
     15 H1         -4.9014    0.0504   -0.8644 H         1 <0>         0.0660
     16 H2         -4.8930    0.0407    0.9155 H         1 <0>         0.0660
     17 H3         -3.8761    2.3022    0.9230 H         1 <0>         0.0660
     18 H4         -3.8846    2.3119   -0.8570 H         1 <0>         0.0660
     19 H5         -2.4169    0.3134   -0.8748 H         1 <0>         0.0730
     20 H6         -2.4084    0.3037    0.9051 H         1 <0>         0.0730
     21 H7         -1.3916    2.5653    0.9126 H         1 <0>         0.0996
     22 H8         -1.4000    2.5749   -0.8673 H         1 <0>         0.0997
     23 H9          1.1304    2.8682    0.0067 H         1 <0>         0.4083
     24 H10         3.1538    1.7861   -0.0185 H         1 <0>         0.3877
     25 H11        -6.3607    2.0392    0.9333 H         1 <0>         0.0730
     26 H12        -6.3692    2.0489   -0.8466 H         1 <0>         0.0730
     27 H13        -7.3860   -0.2127   -0.8541 H         1 <0>         0.0996
     28 H14        -7.3776   -0.2223    0.9258 H         1 <0>         0.0996
     29 H15        -9.9080   -0.5156    0.0462 H         1 <0>         0.4083
     30 H16       -11.9314    0.5666    0.0617 H         1 <0>         0.3877
@<TRIPOS>BOND
     1    1    2 1
     2    1    9 1
     3    1   15 1
     4    1   16 1
     5    2    3 1
     6    2   17 1
     7    2   18 1
     8    3    4 1
     9    3   19 1
    10    3   20 1
    11    4    5 1
    12    4   21 1
    13    4   22 1
    14    5    6 2
    15    5    7 am
    16    7    8 1
    17    7   23 1
    18    8   24 1
    19    9   10 1
    20    9   25 1
    21    9   26 1
    22   10   11 1
    23   10   27 1
    24   10   28 1
    25   11   12 2
    26   11   13 am
    27   13   14 1
    28   13   29 1
    29   14   30 1
@<TRIPOS>MOLECULE
ZINC27551136
   95   100     0     0     0
SMALL
USER_CHARGES

@<TRIPOS>ATOM
      1 C1          0.0105    1.0980   -0.4858 C.ar      1 <0>        -0.1101
      2 C2          0.4298    0.4576    0.6667 C.ar      1 <0>        -0.1180
      3 C3          1.6460   -0.1936    0.6939 C.ar      1 <0>        -0.0950
      4 C4          2.4529   -0.2058   -0.4437 C.ar      1 <0>        -0.0156
      5 C5          2.0244    0.4412   -1.6027 C.ar      1 <0>        -0.0882
      6 C6          0.8064    1.0894   -1.6174 C.ar      1 <0>        -0.1209
      7 C7          3.7598   -0.9026   -0.4210 C.2       1 <0>         0.0604
      8 C8          4.0508   -2.0751    0.2430 C.2       1 <0>         0.0086
      9 O1          5.3531   -2.3498   -0.0062 O.3       1 <0>        -0.1678
     10 C9          5.8381   -1.3775   -0.7949 C.2       1 <0>         0.1699
     11 N1          4.8884   -0.5114   -1.0517 N.2       1 <0>        -0.4717
     12 S1          7.4914   -1.2843   -1.3969 S.3       1 <0>         0.0654
     13 C10         7.5126    0.2349   -2.3880 C.3       1 <0>        -0.1028
     14 C11         8.9093    0.4395   -2.9780 C.3       1 <0>         0.1041
     15 H1          9.1661   -0.4099   -3.6109 H         1 <0>         0.0784
     16 C12         8.9309    1.7255   -3.8115 C.3       1 <0>        -0.1681
     17 C13        10.3670    1.9896   -4.2770 C.3       1 <0>         0.1345
     18 H2         10.6809    1.1992   -4.9587 H         1 <0>         0.0755
     19 O2         11.2294    2.0080   -3.1353 O.3       1 <0>        -0.3758
     20 C14        11.1987    0.8006   -2.3704 C.3       1 <0>         0.3001
     21 H3         11.5301   -0.0315   -2.9916 H         1 <0>         0.0703
     22 O3          9.8647    0.5538   -1.9189 O.3       1 <0>        -0.3733
     23 C15        12.1146    0.9358   -1.1814 C.ar      1 <0>        -0.1030
     24 C16        12.8143    2.1113   -0.9796 C.ar      1 <0>        -0.0620
     25 C17        13.6545    2.2383    0.1092 C.ar      1 <0>        -0.1259
     26 C18        13.7959    1.1841    1.0020 C.ar      1 <0>         0.1548
     27 C19        13.0913    0.0051    0.7969 C.ar      1 <0>        -0.1493
     28 C20        12.2490   -0.1139   -0.2912 C.ar      1 <0>        -0.0683
     29 N2         14.6466    1.3094    2.1058 N.am      1 <0>        -0.6777
     30 C21        14.7693    2.4973    2.7307 C.2       1 <0>         0.5118
     31 O4         14.1994    3.4744    2.2930 O.2       1 <0>        -0.5161
     32 C22        15.6145    2.6114    3.9731 C.3       1 <0>        -0.1401
     33 C23        15.5850    4.0550    4.4792 C.3       1 <0>        -0.1053
     34 C24        16.4431    4.1708    5.7406 C.3       1 <0>        -0.1205
     35 C25        16.4136    5.6144    6.2466 C.3       1 <0>        -0.1198
     36 C26        17.2717    5.7303    7.5081 C.3       1 <0>        -0.1061
     37 C27        17.2422    7.1739    8.0141 C.3       1 <0>        -0.1272
     38 C28        18.0874    7.2880    9.2566 C.2       1 <0>         0.5212
     39 O5         18.6572    6.3109    9.6942 O.2       1 <0>        -0.5195
     40 N3         18.2101    8.4758    9.8814 N.am      1 <0>        -0.6002
     41 O6         19.0042    8.5830   11.0488 O.3       1 <0>        -0.3208
     42 C29        10.4320    3.3197   -4.9826 C.ar      1 <0>        -0.0789
     43 C30        10.6024    4.4815   -4.2532 C.ar      1 <0>        -0.0914
     44 C31        10.6621    5.7015   -4.9004 C.ar      1 <0>        -0.1001
     45 C32        10.5517    5.7596   -6.2771 C.ar      1 <0>        -0.0884
     46 C33        10.3822    4.5977   -7.0067 C.ar      1 <0>        -0.0993
     47 C34        10.3268    3.3773   -6.3598 C.ar      1 <0>        -0.1100
     48 C35        10.6157    7.0897   -6.9827 C.3       1 <0>         0.1148
     49 O7         11.9728    7.3862   -7.3181 O.3       1 <0>        -0.5672
     50 C36         3.1242   -2.8745    1.0655 C.ar      1 <0>        -0.0215
     51 C37         1.8668   -3.2256    0.5665 C.ar      1 <0>        -0.0810
     52 C38         1.0056   -3.9738    1.3413 C.ar      1 <0>        -0.1167
     53 C39         1.3838   -4.3768    2.6101 C.ar      1 <0>        -0.1027
     54 C40         2.6271   -4.0325    3.1111 C.ar      1 <0>        -0.1183
     55 C41         3.5011   -3.2896    2.3456 C.ar      1 <0>        -0.0925
     56 H4         -0.9441    1.6028   -0.5035 H         1 <0>         0.1250
     57 H5         -0.1959    0.4678    1.5469 H         1 <0>         0.1267
     58 H6          1.9726   -0.6925    1.5943 H         1 <0>         0.1234
     59 H7          2.6450    0.4355   -2.4866 H         1 <0>         0.1255
     60 H8          0.4737    1.5911   -2.5140 H         1 <0>         0.1264
     61 H9          6.7855    0.1518   -3.1958 H         1 <0>         0.1148
     62 H10         7.2573    1.0850   -1.7554 H         1 <0>         0.1088
     63 H11         8.2813    1.6093   -4.6790 H         1 <0>         0.0939
     64 H12         8.5847    2.5609   -3.2030 H         1 <0>         0.0922
     65 H13        12.7040    2.9307   -1.6744 H         1 <0>         0.1363
     66 H14        14.2014    3.1564    0.2658 H         1 <0>         0.1404
     67 H15        13.1994   -0.8167    1.4892 H         1 <0>         0.1291
     68 H16        11.6977   -1.0291   -0.4491 H         1 <0>         0.1307
     69 H17        15.1481    0.5414    2.4213 H         1 <0>         0.4121
     70 H18        15.2200    1.9483    4.7431 H         1 <0>         0.0978
     71 H19        16.6413    2.3285    3.7413 H         1 <0>         0.0978
     72 H20        15.9795    4.7180    3.7092 H         1 <0>         0.0713
     73 H21        14.5582    4.3378    4.7110 H         1 <0>         0.0712
     74 H22        16.0486    3.5078    6.5105 H         1 <0>         0.0650
     75 H23        17.4699    3.8880    5.5088 H         1 <0>         0.0651
     76 H24        16.8081    6.2775    5.4767 H         1 <0>         0.0654
     77 H25        15.3868    5.8973    6.4785 H         1 <0>         0.0653
     78 H26        16.8772    5.0672    8.2780 H         1 <0>         0.0728
     79 H27        18.2985    5.4474    7.2762 H         1 <0>         0.0729
     80 H28        17.6367    7.8369    7.2442 H         1 <0>         0.0995
     81 H29        16.2154    7.4567    8.2459 H         1 <0>         0.0995
     82 H30        17.7543    9.2573    9.5314 H         1 <0>         0.4082
     83 H31        19.0316    9.4732   11.4255 H         1 <0>         0.3877
     84 H32        10.6886    4.4360   -3.1776 H         1 <0>         0.1307
     85 H33        10.7945    6.6092   -4.3305 H         1 <0>         0.1246
     86 H34        10.2956    4.6432   -8.0822 H         1 <0>         0.1253
     87 H35        10.1981    2.4692   -6.9300 H         1 <0>         0.1254
     88 H36        10.0174    7.0474   -7.8928 H         1 <0>         0.0555
     89 H37        10.2252    7.8680   -6.3270 H         1 <0>         0.0557
     90 H38        12.0895    8.2300   -7.7757 H         1 <0>         0.3819
     91 H39         1.5702   -2.9115   -0.4234 H         1 <0>         0.1269
     92 H40         0.0335   -4.2457    0.9572 H         1 <0>         0.1311
     93 H41         0.7052   -4.9626    3.2124 H         1 <0>         0.1285
     94 H42         2.9152   -4.3503    4.1023 H         1 <0>         0.1303
     95 H43         4.4728   -3.0254    2.7362 H         1 <0>         0.1270
@<TRIPOS>BOND
     1    1    6 ar
     2    1    2 ar
     3    1   56 1
     4    2    3 ar
     5    2   57 1
     6    3    4 ar
     7    3   58 1
     8    4    5 ar
     9    4    7 1
    10    5    6 ar
    11    5   59 1
    12    6   60 1
    13    7   11 1
    14    7    8 2
    15    8    9 1
    16    8   50 1
    17    9   10 1
    18   10   11 2
    19   10   12 1
    20   12   13 1
    21   13   14 1
    22   13   61 1
    23   13   62 1
    24   14   15 1
    25   14   22 1
    26   14   16 1
    27   16   17 1
    28   16   63 1
    29   16   64 1
    30   17   18 1
    31   17   19 1
    32   17   42 1
    33   19   20 1
    34   20   21 1
    35   20   22 1
    36   20   23 1
    37   23   28 ar
    38   23   24 ar
    39   24   25 ar
    40   24   65 1
    41   25   26 ar
    42   25   66 1
    43   26   27 ar
    44   26   29 1
    45   27   28 ar
    46   27   67 1
    47   28   68 1
    48   29   30 am
    49   29   69 1
    50   30   31 2
    51   30   32 1
    52   32   33 1
    53   32   70 1
    54   32   71 1
    55   33   34 1
    56   33   72 1
    57   33   73 1
    58   34   35 1
    59   34   74 1
    60   34   75 1
    61   35   36 1
    62   35   76 1
    63   35   77 1
    64   36   37 1
    65   36   78 1
    66   36   79 1
    67   37   38 1
    68   37   80 1
    69   37   81 1
    70   38   39 2
    71   38   40 am
    72   40   41 1
    73   40   82 1
    74   41   83 1
    75   42   47 ar
    76   42   43 ar
    77   43   44 ar
    78   43   84 1
    79   44   45 ar
    80   44   85 1
    81   45   46 ar
    82   45   48 1
    83   46   47 ar
    84   46   86 1
    85   47   87 1
    86   48   49 1
    87   48   88 1
    88   48   89 1
    89   49   90 1
    90   50   55 ar
    91   50   51 ar
    92   51   52 ar
    93   51   91 1
    94   52   53 ar
    95   52   92 1
    96   53   54 ar
    97   53   93 1
    98   54   55 ar
    99   54   94 1
   100   55   95 1
@<TRIPOS>MOLECULE
ZINC03872981
   44    44     0     0     0
SMALL
USER_CHARGES
4-dimethylamino-N-[5-(hydroxycarbamoyl)pentyl]benzamide
@<TRIPOS>ATOM
      1 C1         -0.1238    4.1881    0.0257 C.3       1 <0>         0.0899
      2 N1          1.1564    3.4760    0.0097 N.pl3     1 <0>        -0.6298
      3 C2          2.4132    4.2287    0.0017 C.3       1 <0>         0.0871
      4 C3          1.1786    2.0858    0.0020 C.ar      1 <0>         0.2414
      5 C4         -0.0166    1.3719    0.0096 C.ar      1 <0>        -0.2068
      6 C5          0.0021   -0.0041    0.0020 C.ar      1 <0>        -0.0067
      7 C6          1.2229   -0.6850   -0.0133 C.ar      1 <0>        -0.2027
      8 C7          2.4213    0.0347   -0.0208 C.ar      1 <0>        -0.0342
      9 C8          2.3960    1.4105   -0.0132 C.ar      1 <0>        -0.2085
     10 C9          1.2464   -2.1600   -0.0209 C.2       1 <0>         0.5647
     11 O1          0.2033   -2.7848   -0.0139 O.2       1 <0>        -0.5452
     12 N2          2.4242   -2.8151   -0.0357 N.am      1 <0>        -0.7322
     13 C10         2.4476   -4.2799   -0.0433 C.3       1 <0>         0.1192
     14 C11         3.8980   -4.7667   -0.0598 C.3       1 <0>        -0.1326
     15 C12         3.9224   -6.2965   -0.0678 C.3       1 <0>        -0.1164
     16 C13         5.3728   -6.7833   -0.0843 C.3       1 <0>        -0.1054
     17 C14         5.3973   -8.3131   -0.0922 C.3       1 <0>        -0.1272
     18 C15         6.8259   -8.7926   -0.1085 C.2       1 <0>         0.5213
     19 O2          7.7349   -7.9898   -0.1133 O.2       1 <0>        -0.5195
     20 N3          7.0933  -10.1135   -0.1178 N.am      1 <0>        -0.6000
     21 O3          8.4356  -10.5641   -0.1331 O.3       1 <0>        -0.3207
     22 H1         -0.6826    3.9109    0.9196 H         1 <0>         0.0584
     23 H2          0.0582    5.2628    0.0297 H         1 <0>         0.0762
     24 H3         -0.6996    3.9204   -0.8603 H         1 <0>         0.0585
     25 H4          2.7151    4.4209   -1.0279 H         1 <0>         0.0527
     26 H5          2.2726    5.1762    0.5220 H         1 <0>         0.0702
     27 H6          3.1870    3.6492    0.5051 H         1 <0>         0.0717
     28 H7         -0.9594    1.8985    0.0169 H         1 <0>         0.1282
     29 H8         -0.9254   -0.5573    0.0082 H         1 <0>         0.1349
     30 H9          3.3660   -0.4885   -0.0323 H         1 <0>         0.1236
     31 H10         3.3215    1.9671   -0.0194 H         1 <0>         0.1288
     32 H11         3.2564   -2.3167   -0.0412 H         1 <0>         0.3990
     33 H12         1.9483   -4.6559    0.8497 H         1 <0>         0.0682
     34 H13         1.9310   -4.6469   -0.9301 H         1 <0>         0.0682
     35 H14         4.3973   -4.3907   -0.9528 H         1 <0>         0.0715
     36 H15         4.4146   -4.3997    0.8270 H         1 <0>         0.0715
     37 H16         3.4231   -6.6725    0.8252 H         1 <0>         0.0689
     38 H17         3.4059   -6.6635   -0.9546 H         1 <0>         0.0689
     39 H18         5.8721   -6.4073   -0.9773 H         1 <0>         0.0740
     40 H19         5.8894   -6.4163    0.8026 H         1 <0>         0.0740
     41 H20         4.8980   -8.6891    0.8007 H         1 <0>         0.1002
     42 H21         4.8807   -8.6801   -0.9791 H         1 <0>         0.1002
     43 H22         6.3662  -10.7556   -0.1140 H         1 <0>         0.4084
     44 H23         8.5273  -11.5267   -0.1388 H         1 <0>         0.3879
@<TRIPOS>BOND
     1    1    2 1
     2    1   22 1
     3    1   23 1
     4    1   24 1
     5    2    3 1
     6    2    4 1
     7    3   25 1
     8    3   26 1
     9    3   27 1
    10    4    9 ar
    11    4    5 ar
    12    5    6 ar
    13    5   28 1
    14    6    7 ar
    15    6   29 1
    16    7    8 ar
    17    7   10 1
    18    8    9 ar
    19    8   30 1
    20    9   31 1
    21   10   11 2
    22   10   12 am
    23   12   13 1
    24   12   32 1
    25   13   14 1
    26   13   33 1
    27   13   34 1
    28   14   15 1
    29   14   35 1
    30   14   36 1
    31   15   16 1
    32   15   37 1
    33   15   38 1
    34   16   17 1
    35   16   39 1
    36   16   40 1
    37   17   18 1
    38   17   41 1
    39   17   42 1
    40   18   19 2
    41   18   20 am
    42   20   21 1
    43   20   43 1
    44   21   44 1
@<TRIPOS>MOLECULE
ZINC13473173
   37    38     0     0     0
SMALL
USER_CHARGES
(E)-3-[1-methyl-4-(4-methylbenzoyl)pyrrol-2-yl]prop-2-enehydroxamic acid
@<TRIPOS>ATOM
      1 C1          0.2963   -8.4287    0.4164 C.3       1 <0>        -0.1214
      2 C2          1.1274   -7.1724    0.3696 C.ar      1 <0>        -0.0593
      3 C3          2.3326   -7.1183    1.0474 C.ar      1 <0>        -0.1307
      4 C4          3.0980   -5.9714    1.0091 C.ar      1 <0>        -0.0621
      5 C5          2.6542   -4.8636    0.2843 C.ar      1 <0>        -0.1561
      6 C6          1.4344   -4.9231   -0.3926 C.ar      1 <0>        -0.0790
      7 C7          0.6816   -6.0782   -0.3507 C.ar      1 <0>        -0.1332
      8 C8          3.4693   -3.6312    0.2387 C.2       1 <0>         0.4684
      9 O1          4.6775   -3.6964    0.3602 O.2       1 <0>        -0.4639
     10 C9          2.8180   -2.3243    0.0462 C.2       1 <0>        -0.2541
     11 C10         1.4271   -2.0727    0.0324 C.2       1 <0>        -0.1053
     12 C11         1.2657   -0.7317   -0.1776 C.2       1 <0>        -0.0034
     13 N1          2.5142   -0.1572   -0.2841 N.pl3     1 <0>        -0.4207
     14 C12         3.4526   -1.1098   -0.1504 C.2       1 <0>         0.0969
     15 C13         2.7766    1.2668   -0.5072 C.3       1 <0>         0.0583
     16 C14        -0.0111   -0.0270   -0.2674 C.2       1 <0>         0.0331
     17 C15        -1.1692   -0.6910   -0.0346 C.2       1 <0>        -0.2197
     18 C16        -2.3969    0.0146   -0.0080 C.2       1 <0>         0.5678
     19 O2         -2.4117    1.2178   -0.1942 O.2       1 <0>        -0.5314
     20 N2         -3.5488   -0.6458    0.2235 N.am      1 <0>        -0.5942
     21 O3         -4.7762    0.0596    0.2502 O.3       1 <0>        -0.3160
     22 H1         -0.3893   -8.3794    1.2623 H         1 <0>         0.0751
     23 H2         -0.2735   -8.5220   -0.5082 H         1 <0>         0.0696
     24 H3          0.9506   -9.2932    0.5288 H         1 <0>         0.0696
     25 H4          2.6748   -7.9760    1.6074 H         1 <0>         0.1285
     26 H5          4.0386   -5.9306    1.5383 H         1 <0>         0.1313
     27 H6          1.0832   -4.0682   -0.9515 H         1 <0>         0.1368
     28 H7         -0.2599   -6.1271   -0.8775 H         1 <0>         0.1282
     29 H8          0.6410   -2.8020    0.1616 H         1 <0>         0.1573
     30 H9          4.5207   -0.9542   -0.1893 H         1 <0>         0.1834
     31 H10         2.9376    1.7610    0.4509 H         1 <0>         0.0862
     32 H11         3.6654    1.3795   -1.1281 H         1 <0>         0.0941
     33 H12         1.9221    1.7192   -1.0104 H         1 <0>         0.0939
     34 H13        -0.0319    1.0230   -0.5192 H         1 <0>         0.1385
     35 H14        -1.1556   -1.7575    0.1349 H         1 <0>         0.1349
     36 H15        -3.5369   -1.6043    0.3718 H         1 <0>         0.4098
     37 H16        -5.5469   -0.4983    0.4232 H         1 <0>         0.3887
@<TRIPOS>BOND
     1    1    2 1
     2    1   22 1
     3    1   23 1
     4    1   24 1
     5    2    7 ar
     6    2    3 ar
     7    3    4 ar
     8    3   25 1
     9    4    5 ar
    10    4   26 1
    11    5    6 ar
    12    5    8 1
    13    6    7 ar
    14    6   27 1
    15    7   28 1
    16    8    9 2
    17    8   10 1
    18   10   14 2
    19   10   11 1
    20   11   12 2
    21   11   29 1
    22   12   13 1
    23   12   16 1
    24   13   14 1
    25   13   15 1
    26   14   30 1
    27   15   31 1
    28   15   32 1
    29   15   33 1
    30   16   17 2
    31   16   34 1
    32   17   18 1
    33   17   35 1
    34   18   19 2
    35   18   20 am
    36   20   21 1
    37   20   36 1
    38   21   37 1
@<TRIPOS>MOLECULE
ZINC01543873
   39    39     0     0     0
SMALL
USER_CHARGES

@<TRIPOS>ATOM
      1 C1         -0.0153    1.3806    0.0293 C.ar      1 <0>        -0.1357
      2 C2          0.1395    0.2185    0.7628 C.ar      1 <0>        -0.1006
      3 C3          1.3439   -0.4572    0.7427 C.ar      1 <0>        -0.1222
      4 C4          2.3999    0.0313   -0.0154 C.ar      1 <0>         0.1441
      5 C5          2.2411    1.1983   -0.7512 C.ar      1 <0>        -0.1477
      6 C6          1.0343    1.8696   -0.7267 C.ar      1 <0>        -0.1005
      7 N1          3.6215   -0.6506   -0.0375 N.am      1 <0>        -0.6779
      8 C7          3.6447   -1.9949    0.0568 C.2       1 <0>         0.5113
      9 O1          2.6055   -2.6203    0.0643 O.2       1 <0>        -0.5177
     10 C8          4.9618   -2.7209    0.1528 C.3       1 <0>        -0.1403
     11 C9          4.7083   -4.2267    0.2488 C.3       1 <0>        -0.1053
     12 C10         6.0454   -4.9638    0.3463 C.3       1 <0>        -0.1207
     13 C11         5.7919   -6.4696    0.4422 C.3       1 <0>        -0.1198
     14 C12         7.1291   -7.2067    0.5397 C.3       1 <0>        -0.1062
     15 C13         6.8756   -8.7125    0.6357 C.3       1 <0>        -0.1272
     16 C14         8.1927   -9.4386    0.7317 C.2       1 <0>         0.5212
     17 O2          9.2318   -8.8132    0.7242 O.2       1 <0>        -0.5195
     18 N2          8.2158  -10.7828    0.8260 N.am      1 <0>        -0.6001
     19 O3          9.4534  -11.4650    0.9162 O.3       1 <0>        -0.3208
     20 H1         -0.9594    1.9049    0.0433 H         1 <0>         0.1238
     21 H2         -0.6821   -0.1608    1.3522 H         1 <0>         0.1259
     22 H3          1.4644   -1.3643    1.3164 H         1 <0>         0.1332
     23 H4          3.0605    1.5809   -1.3416 H         1 <0>         0.1249
     24 H5          0.9101    2.7772   -1.2987 H         1 <0>         0.1265
     25 H6          4.4517   -0.1559   -0.1206 H         1 <0>         0.4115
     26 H7          5.5591   -2.5088   -0.7339 H         1 <0>         0.0972
     27 H8          5.4977   -2.3854    1.0407 H         1 <0>         0.0984
     28 H9          4.1109   -4.4388    1.1355 H         1 <0>         0.0710
     29 H10         4.1723   -4.5622   -0.6391 H         1 <0>         0.0711
     30 H11         6.6428   -4.7517   -0.5405 H         1 <0>         0.0651
     31 H12         6.5814   -4.6283    1.2342 H         1 <0>         0.0652
     32 H13         5.1946   -6.6817    1.3290 H         1 <0>         0.0654
     33 H14         5.2560   -6.8051   -0.4457 H         1 <0>         0.0654
     34 H15         7.7264   -6.9946   -0.3470 H         1 <0>         0.0729
     35 H16         7.6650   -6.8712    1.4276 H         1 <0>         0.0729
     36 H17         6.2783   -8.9246    1.5224 H         1 <0>         0.0995
     37 H18         6.3396   -9.0480   -0.2522 H         1 <0>         0.0995
     38 H19         7.3847  -11.2830    0.8320 H         1 <0>         0.4083
     39 H20         9.3689  -12.4262    0.9801 H         1 <0>         0.3877
@<TRIPOS>BOND
     1    1    6 ar
     2    1    2 ar
     3    1   20 1
     4    2    3 ar
     5    2   21 1
     6    3    4 ar
     7    3   22 1
     8    4    5 ar
     9    4    7 1
    10    5    6 ar
    11    5   23 1
    12    6   24 1
    13    7    8 am
    14    7   25 1
    15    8    9 2
    16    8   10 1
    17   10   11 1
    18   10   26 1
    19   10   27 1
    20   11   12 1
    21   11   28 1
    22   11   29 1
    23   12   13 1
    24   12   30 1
    25   12   31 1
    26   13   14 1
    27   13   32 1
    28   13   33 1
    29   14   15 1
    30   14   34 1
    31   14   35 1
    32   15   16 1
    33   15   36 1
    34   15   37 1
    35   16   17 2
    36   16   18 am
    37   18   19 1
    38   18   38 1
    39   19   39 1
@<TRIPOS>MOLECULE
ZINC05579377
   44    44     0     0     0
SMALL
USER_CHARGES

@<TRIPOS>ATOM
      1 C1          0.0163    0.8704   -0.6224 C.3       1 <0>        -0.1382
      2 C2          0.1984   -0.5975   -0.2312 C.3       1 <0>        -0.1146
      3 H1         -0.7690   -1.0995   -0.2438 H         1 <0>         0.1076
      4 C3          0.7887   -0.6789    1.1530 C.2       1 <0>        -0.0924
      5 C4          0.0754   -1.2000    2.1527 C.2       1 <0>        -0.1248
      6 C5         -1.3645   -1.5849    1.9302 C.3       1 <0>        -0.1253
      7 C6          0.6913   -1.3981    3.4654 C.2       1 <0>        -0.0018
      8 C7         -0.0314   -1.9261    4.4783 C.2       1 <0>        -0.2188
      9 C8          0.5841   -2.1240    5.7903 C.2       1 <0>         0.5599
     10 O1          1.7472   -1.8132    5.9699 O.2       1 <0>        -0.5263
     11 N1         -0.1365   -2.6506    6.8002 N.am      1 <0>        -0.5945
     12 O2          0.4595   -2.8422    8.0703 O.3       1 <0>        -0.3168
     13 C9          1.1251   -1.2677   -1.2126 C.2       1 <0>         0.4107
     14 O3          2.3095   -1.3556   -0.9656 O.2       1 <0>        -0.4581
     15 C10         0.5946   -1.8139   -2.4671 C.ar      1 <0>        -0.2376
     16 C11        -0.7721   -1.7083   -2.7570 C.ar      1 <0>        -0.0197
     17 C12        -1.2614   -2.2176   -3.9257 C.ar      1 <0>        -0.2150
     18 C13        -0.4039   -2.8414   -4.8291 C.ar      1 <0>         0.2501
     19 C14         0.9557   -2.9486   -4.5449 C.ar      1 <0>        -0.2148
     20 C15         1.4543   -2.4374   -3.3810 C.ar      1 <0>        -0.0053
     21 N2         -0.9059   -3.3584   -6.0164 N.pl3     1 <0>        -0.6264
     22 C16        -2.3354   -3.2472   -6.3172 C.3       1 <0>         0.0859
     23 C17        -0.0060   -4.0149   -6.9680 C.3       1 <0>         0.0853
     24 H2          0.9837    1.3725   -0.6098 H         1 <0>         0.0651
     25 H3         -0.4106    0.9293   -1.6236 H         1 <0>         0.0678
     26 H4         -0.6539    1.3552    0.0874 H         1 <0>         0.0712
     27 H5          1.7891   -0.3153    1.3357 H         1 <0>         0.1273
     28 H6         -1.4116   -2.5915    1.5147 H         1 <0>         0.0719
     29 H7         -1.8986   -1.5586    2.8801 H         1 <0>         0.0699
     30 H8         -1.8250   -0.8829    1.2350 H         1 <0>         0.0721
     31 H9          1.7232   -1.1223    3.6248 H         1 <0>         0.1353
     32 H10        -1.0634   -2.2019    4.3189 H         1 <0>         0.1355
     33 H11        -1.0633   -2.8983    6.6570 H         1 <0>         0.4090
     34 H12        -0.1350   -3.2249    8.7300 H         1 <0>         0.3880
     35 H13        -1.4377   -1.2251   -2.0571 H         1 <0>         0.1299
     36 H14        -2.3148   -2.1369   -4.1498 H         1 <0>         0.1291
     37 H15         1.6170   -3.4333   -5.2479 H         1 <0>         0.1289
     38 H16         2.5092   -2.5170   -3.1635 H         1 <0>         0.1322
     39 H17        -2.5223   -2.3180   -6.8554 H         1 <0>         0.0543
     40 H18        -2.6439   -4.0921   -6.9331 H         1 <0>         0.0711
     41 H19        -2.9036   -3.2490   -5.3871 H         1 <0>         0.0730
     42 H20         0.0495   -5.0794   -6.7405 H         1 <0>         0.0545
     43 H21        -0.3861   -3.8791   -7.9805 H         1 <0>         0.0713
     44 H22         0.9881   -3.5745   -6.8910 H         1 <0>         0.0733
@<TRIPOS>BOND
     1    1    2 1
     2    1   24 1
     3    1   25 1
     4    1   26 1
     5    2    3 1
     6    2    4 1
     7    2   13 1
     8    4    5 2
     9    4   27 1
    10    5    6 1
    11    5    7 1
    12    6   28 1
    13    6   29 1
    14    6   30 1
    15    7    8 2
    16    7   31 1
    17    8    9 1
    18    8   32 1
    19    9   10 2
    20    9   11 am
    21   11   12 1
    22   11   33 1
    23   12   34 1
    24   13   14 2
    25   13   15 1
    26   15   20 ar
    27   15   16 ar
    28   16   17 ar
    29   16   35 1
    30   17   18 ar
    31   17   36 1
    32   18   19 ar
    33   18   21 1
    34   19   20 ar
    35   19   37 1
    36   20   38 1
    37   21   22 1
    38   21   23 1
    39   22   39 1
    40   22   40 1
    41   22   41 1
    42   23   42 1
    43   23   43 1
    44   23   44 1
@<TRIPOS>MOLECULE
ZINC05579377
   44    44     0     0     0
SMALL
USER_CHARGES

@<TRIPOS>ATOM
      1 C1         -0.0492    1.9543   -0.7649 C.3       1 <0>        -0.1371
      2 C2         -0.1970    0.4706   -0.4219 C.3       1 <0>        -0.1146
      3 H1         -1.2419    0.1768   -0.5224 H         1 <0>         0.1068
      4 C3          0.6480   -0.3491   -1.3627 C.2       1 <0>        -0.0922
      5 C4          0.0955   -1.3410   -2.0632 C.2       1 <0>        -0.1239
      6 C5         -1.3398   -1.7287   -1.8172 C.3       1 <0>        -0.1255
      7 C6          0.8833   -2.0526   -3.0704 C.2       1 <0>        -0.0021
      8 C7          0.3236   -3.0577   -3.7802 C.2       1 <0>        -0.2183
      9 C8          1.1110   -3.7689   -4.7869 C.2       1 <0>         0.5601
     10 O1          2.2703   -3.4558   -4.9856 O.2       1 <0>        -0.5264
     11 N1          0.5528   -4.7710   -5.4945 N.am      1 <0>        -0.5945
     12 O2          1.3151   -5.4596   -6.4691 O.3       1 <0>        -0.3168
     13 C9          0.2569    0.2350    0.9957 C.2       1 <0>         0.4096
     14 O3          1.4170   -0.0363    1.2239 O.2       1 <0>        -0.4577
     15 C10        -0.7046    0.3339    2.1000 C.ar      1 <0>        -0.2382
     16 C11        -2.0461    0.6415    1.8381 C.ar      1 <0>        -0.0203
     17 C12        -2.9375    0.7320    2.8685 C.ar      1 <0>        -0.2146
     18 C13        -2.5146    0.5191    4.1787 C.ar      1 <0>         0.2502
     19 C14        -1.1816    0.2130    4.4437 C.ar      1 <0>        -0.2147
     20 C15        -0.2847    0.1153    3.4187 C.ar      1 <0>        -0.0054
     21 N2         -3.4245    0.6126    5.2239 N.pl3     1 <0>        -0.6263
     22 C16        -4.8267    0.9348    4.9477 C.3       1 <0>         0.0858
     23 C17        -2.9821    0.3891    6.6025 C.3       1 <0>         0.0852
     24 H2          0.9957    2.2481   -0.6644 H         1 <0>         0.0652
     25 H3         -0.3775    2.1247   -1.7902 H         1 <0>         0.0716
     26 H4         -0.6604    2.5472   -0.0844 H         1 <0>         0.0675
     27 H5          1.7008   -0.1336   -1.4699 H         1 <0>         0.1268
     28 H6         -1.9953   -1.0898   -2.4090 H         1 <0>         0.0735
     29 H7         -1.4896   -2.7692   -2.1053 H         1 <0>         0.0699
     30 H8         -1.5727   -1.6076   -0.7593 H         1 <0>         0.0703
     31 H9          1.9120   -1.7748   -3.2467 H         1 <0>         0.1354
     32 H10        -0.7051   -3.3356   -3.6039 H         1 <0>         0.1356
     33 H11        -0.3711   -5.0206   -5.3362 H         1 <0>         0.4091
     34 H12         0.8299   -6.1613   -6.9244 H         1 <0>         0.3881
     35 H13        -2.3747    0.8070    0.8227 H         1 <0>         0.1300
     36 H14        -3.9717    0.9694    2.6675 H         1 <0>         0.1292
     37 H15        -0.8579    0.0491    5.4609 H         1 <0>         0.1289
     38 H16         0.7476   -0.1264    3.6246 H         1 <0>         0.1321
     39 H17        -5.3859    0.0135    4.7847 H         1 <0>         0.0542
     40 H18        -5.2502    1.4716    5.7966 H         1 <0>         0.0711
     41 H19        -4.8873    1.5591    4.0562 H         1 <0>         0.0731
     42 H20        -2.6609    1.3349    7.0388 H         1 <0>         0.0546
     43 H21        -3.8065   -0.0193    7.1869 H         1 <0>         0.0713
     44 H22        -2.1497   -0.3145    6.6073 H         1 <0>         0.0732
@<TRIPOS>BOND
     1    1    2 1
     2    1   24 1
     3    1   25 1
     4    1   26 1
     5    2    3 1
     6    2    4 1
     7    2   13 1
     8    4    5 2
     9    4   27 1
    10    5    6 1
    11    5    7 1
    12    6   28 1
    13    6   29 1
    14    6   30 1
    15    7    8 2
    16    7   31 1
    17    8    9 1
    18    8   32 1
    19    9   10 2
    20    9   11 am
    21   11   12 1
    22   11   33 1
    23   12   34 1
    24   13   14 2
    25   13   15 1
    26   15   20 ar
    27   15   16 ar
    28   16   17 ar
    29   16   35 1
    30   17   18 ar
    31   17   36 1
    32   18   19 ar
    33   18   21 1
    34   19   20 ar
    35   19   37 1
    36   20   38 1
    37   21   22 1
    38   21   23 1
    39   22   39 1
    40   22   40 1
    41   22   41 1
    42   23   42 1
    43   23   43 1
    44   23   44 1
