@<TRIPOS>MOLECULE
ZINC13580132
   35    36     0     0     0
SMALL
USER_CHARGES

@<TRIPOS>ATOM
      1 C1         -0.0371    1.4249    0.0775 C.3       1 <0>        -0.1617
      2 C2          0.0441   -0.0795    0.0440 C.2       1 <0>         0.1483
      3 N1          0.1256   -0.7498    1.1524 N.2       1 <0>        -0.1994
      4 N2          0.1382   -0.0747    2.3800 N.pl3     1 <0>        -0.5560
      5 C3          0.2242   -0.7809    3.5477 C.cat     1 <0>         0.5580
      6 N3          0.2364   -0.1220    4.7460 N.pl3     1 <0>        -0.8128
      7 S1          0.3136   -2.4381    3.5109 S.3       1 <0>        -0.5224
      8 C4          0.0308   -0.7899   -1.2478 C.ar      1 <0>        -0.0546
      9 C5         -0.0511   -0.0699   -2.4426 C.ar      1 <0>        -0.0728
     10 C6         -0.0627   -0.7380   -3.6478 C.ar      1 <0>        -0.1268
     11 C7          0.0069   -2.1251   -3.6760 C.ar      1 <0>         0.1083
     12 C8          0.0885   -2.8449   -2.4907 C.ar      1 <0>        -0.1429
     13 C9          0.1060   -2.1849   -1.2812 C.ar      1 <0>        -0.0545
     14 O1         -0.0053   -2.7796   -4.8662 O.3       1 <0>        -0.2581
     15 C10        -1.0874   -3.5466   -5.1614 C.ar      1 <0>         0.1186
     16 C11        -2.1931   -3.5406   -4.3231 C.ar      1 <0>        -0.1935
     17 C12        -3.2920   -4.3209   -4.6258 C.ar      1 <0>        -0.0819
     18 C13        -3.2907   -5.1079   -5.7626 C.ar      1 <0>        -0.1505
     19 C14        -2.1899   -5.1162   -6.5994 C.ar      1 <0>        -0.0829
     20 C15        -1.0909   -4.3330   -6.3047 C.ar      1 <0>        -0.1439
     21 H1          0.9686    1.8439    0.0441 H         1 <0>         0.0928
     22 H2         -0.6062    1.7773   -0.7828 H         1 <0>         0.0955
     23 H3         -0.5324    1.7418    0.9953 H         1 <0>         0.0685
     24 H4          0.1842    0.8464    4.7676 H         1 <0>         0.3934
     25 H5          0.2974   -0.6229    5.5744 H         1 <0>         0.4358
     26 H6         -0.1056    1.0085   -2.4216 H         1 <0>         0.1395
     27 H7         -0.1264   -0.1824   -4.5717 H         1 <0>         0.1396
     28 H8          0.1424   -3.9232   -2.5173 H         1 <0>         0.1372
     29 H9          0.1739   -2.7450   -0.3603 H         1 <0>         0.1499
     30 H10        -2.1944   -2.9266   -3.4346 H         1 <0>         0.1296
     31 H11        -4.1529   -4.3165   -3.9736 H         1 <0>         0.1269
     32 H12        -4.1507   -5.7175   -5.9973 H         1 <0>         0.1260
     33 H13        -2.1911   -5.7323   -7.4864 H         1 <0>         0.1321
     34 H14        -0.2333   -4.3361   -6.9611 H         1 <0>         0.1331
     35 H15         0.0860    0.8936    2.4015 H         1 <0>         0.3816
@<TRIPOS>BOND
     1    1    2 1
     2    1   21 1
     3    1   22 1
     4    1   23 1
     5    2    3 2
     6    2    8 1
     7    3    4 1
     8    4    5 2
     9    4   35 1
    10    5    6 1
    11    5    7 1
    12    6   24 1
    13    6   25 1
    14    8   13 ar
    15    8    9 ar
    16    9   10 ar
    17    9   26 1
    18   10   11 ar
    19   10   27 1
    20   11   12 ar
    21   11   14 1
    22   12   13 ar
    23   12   28 1
    24   13   29 1
    25   14   15 1
    26   15   20 ar
    27   15   16 ar
    28   16   17 ar
    29   16   30 1
    30   17   18 ar
    31   17   31 1
    32   18   19 ar
    33   18   32 1
    34   19   20 ar
    35   19   33 1
    36   20   34 1
@<TRIPOS>MOLECULE
ZINC01551040
   23    22     0     0     0
SMALL
USER_CHARGES
1-propylsulfanylsulfinylpropane
@<TRIPOS>ATOM
      1 C1         -3.8238   -0.7941    1.9120 C.3       1 <0>        -0.1489
      2 C2         -2.3884   -0.2646    1.9012 C.3       1 <0>        -0.1422
      3 C3         -2.4092    1.2653    1.8933 C.3       1 <0>         0.0113
      4 S1         -0.7074    1.8931    1.8804 S.3       1 <0>        -0.6690
      5 S2         -0.0172    1.4168    0.0098 S.o       1 <0>         1.2845
      6 O1          0.0021   -0.0041    0.0020 O.2       1 <0>        -0.7587
      7 C4          1.6846    2.0446   -0.0030 C.3       1 <0>        -0.4222
      8 C5          2.3262    1.7512   -1.3607 C.3       1 <0>        -0.1054
      9 C6          3.7616    2.2808   -1.3715 C.3       1 <0>        -0.1477
     10 H1         -3.8089   -1.8840    1.9176 H         1 <0>         0.0617
     11 H2         -4.3375   -0.4332    2.8031 H         1 <0>         0.0588
     12 H3         -4.3475   -0.4424    1.0232 H         1 <0>         0.0573
     13 H4         -1.8747   -0.6255    1.0102 H         1 <0>         0.0795
     14 H5         -1.8646   -0.6162    2.7901 H         1 <0>         0.0751
     15 H6         -2.9229    1.6262    2.7844 H         1 <0>         0.1128
     16 H7         -2.9330    1.6170    1.0044 H         1 <0>         0.0902
     17 H8          1.6762    3.1208    0.1699 H         1 <0>         0.1316
     18 H9          2.2586    1.5548    0.7835 H         1 <0>         0.1035
     19 H10         2.3347    0.6751   -1.5336 H         1 <0>         0.0692
     20 H11         1.7523    2.2411   -2.1473 H         1 <0>         0.0777
     21 H12         4.2187    2.0717   -2.3388 H         1 <0>         0.0630
     22 H13         3.7532    3.3569   -1.1986 H         1 <0>         0.0615
     23 H14         4.3356    1.7909   -0.5850 H         1 <0>         0.0565
@<TRIPOS>BOND
     1    1    2 1
     2    1   10 1
     3    1   11 1
     4    1   12 1
     5    2    3 1
     6    2   13 1
     7    2   14 1
     8    3    4 1
     9    3   15 1
    10    3   16 1
    11    4    5 1
    12    5    6 2
    13    5    7 1
    14    7    8 1
    15    7   17 1
    16    7   18 1
    17    8    9 1
    18    8   19 1
    19    8   20 1
    20    9   21 1
    21    9   22 1
    22    9   23 1
@<TRIPOS>MOLECULE
ZINC04429715
   23    22     0     0     0
SMALL
USER_CHARGES
1-propylsulfanylsulfinylpropane
@<TRIPOS>ATOM
      1 C1          0.4206   -0.4745    4.0687 C.3       1 <0>        -0.1530
      2 C2         -0.2151   -0.1055    2.7268 C.3       1 <0>        -0.1286
      3 C3          0.7558   -0.4415    1.5930 C.3       1 <0>         0.0066
      4 S1          0.0021   -0.0041    0.0020 S.3       1 <0>        -0.6666
      5 S2         -0.0257    2.0457    0.0133 S.o       1 <0>         1.2836
      6 O1          1.3482    2.4082    0.0021 O.2       1 <0>        -0.7627
      7 C4         -0.7794    2.4831   -1.5777 C.3       1 <0>        -0.4227
      8 C5         -0.8620    4.0059   -1.7014 C.3       1 <0>        -0.1057
      9 C6         -1.4977    4.3748   -3.0433 C.3       1 <0>        -0.1475
     10 H1         -0.2711   -0.2351    4.8764 H         1 <0>         0.0653
     11 H2          0.6424   -1.5415    4.0845 H         1 <0>         0.0605
     12 H3          1.3433    0.0904    4.2011 H         1 <0>         0.0570
     13 H4         -0.4369    0.9616    2.7110 H         1 <0>         0.0643
     14 H5         -1.1378   -0.6704    2.5943 H         1 <0>         0.0855
     15 H6          0.9776   -1.5086    1.6088 H         1 <0>         0.1130
     16 H7          1.6785    0.1234    1.7254 H         1 <0>         0.0866
     17 H8         -0.1708    2.0851   -2.3897 H         1 <0>         0.1036
     18 H9         -1.7820    2.0591   -1.6336 H         1 <0>         0.1323
     19 H10        -1.4706    4.4039   -0.8894 H         1 <0>         0.0780
     20 H11         0.1406    4.4299   -1.6455 H         1 <0>         0.0691
     21 H12        -0.8891    3.9768   -3.8553 H         1 <0>         0.0566
     22 H13        -2.5003    3.9508   -3.0992 H         1 <0>         0.0617
     23 H14        -1.5566    5.4597   -3.1314 H         1 <0>         0.0633
@<TRIPOS>BOND
     1    1    2 1
     2    1   10 1
     3    1   11 1
     4    1   12 1
     5    2    3 1
     6    2   13 1
     7    2   14 1
     8    3    4 1
     9    3   15 1
    10    3   16 1
    11    4    5 1
    12    5    6 2
    13    5    7 1
    14    7    8 1
    15    7   17 1
    16    7   18 1
    17    8    9 1
    18    8   19 1
    19    8   20 1
    20    9   21 1
    21    9   22 1
    22    9   23 1
@<TRIPOS>MOLECULE
ZINC13449627
   31    32     0     0     0
SMALL
USER_CHARGES
[(R)-benzylsulfinyl]sulfanylmethylbenzene
@<TRIPOS>ATOM
      1 C1          3.9849    3.2886   -0.0183 C.ar      1 <0>        -0.1111
      2 C2          3.3250    3.0559   -1.2105 C.ar      1 <0>        -0.1143
      3 C3          2.0283    2.5770   -1.2007 C.ar      1 <0>        -0.0887
      4 C4          1.3913    2.3314    0.0013 C.ar      1 <0>        -0.0968
      5 C5          2.0492    2.5695    1.1935 C.ar      1 <0>        -0.1238
      6 C6          3.3479    3.0430    1.1837 C.ar      1 <0>        -0.1127
      7 C7         -0.0225    1.8097    0.0120 C.3       1 <0>         0.0462
      8 S1          0.0021   -0.0041    0.0020 S.3       1 <0>        -0.6547
      9 S2          0.7069   -0.5007    1.8619 S.o       1 <0>         1.2892
     10 O1         -0.3076   -0.0457    2.7468 O.2       1 <0>        -0.7538
     11 C8          0.7315   -2.3145    1.8519 C.3       1 <0>        -0.3803
     12 C9          1.2369   -2.8174    3.1796 C.ar      1 <0>        -0.0809
     13 C10         2.5890   -3.0359    3.3666 C.ar      1 <0>        -0.1109
     14 C11         3.0532   -3.4921    4.5862 C.ar      1 <0>        -0.1154
     15 C12         2.1641   -3.7402    5.6152 C.ar      1 <0>        -0.1120
     16 C13         0.8114   -3.5271    5.4263 C.ar      1 <0>        -0.1142
     17 C14         0.3478   -3.0655    4.2086 C.ar      1 <0>        -0.1082
     18 H1          4.9982    3.6621   -0.0260 H         1 <0>         0.1262
     19 H2          3.8227    3.2478   -2.1496 H         1 <0>         0.1273
     20 H3          1.5127    2.3952   -2.1321 H         1 <0>         0.1279
     21 H4          1.5499    2.3818    2.1326 H         1 <0>         0.1171
     22 H5          3.8635    3.2245    2.1151 H         1 <0>         0.1277
     23 H6         -0.5497    2.1708   -0.8711 H         1 <0>         0.1233
     24 H7         -0.5327    2.1613    0.9088 H         1 <0>         0.0967
     25 H8         -0.2772   -2.6906    1.6811 H         1 <0>         0.1139
     26 H9          1.3894   -2.6646    1.0565 H         1 <0>         0.1416
     27 H10         3.2831   -2.8462    2.5613 H         1 <0>         0.1327
     28 H11         4.1101   -3.6582    4.7338 H         1 <0>         0.1303
     29 H12         2.5264   -4.1002    6.5668 H         1 <0>         0.1275
     30 H13         0.1168   -3.7210    6.2303 H         1 <0>         0.1275
     31 H14        -0.7090   -2.8990    4.0610 H         1 <0>         0.1228
@<TRIPOS>BOND
     1    1    6 ar
     2    1    2 ar
     3    1   18 1
     4    2    3 ar
     5    2   19 1
     6    3    4 ar
     7    3   20 1
     8    4    5 ar
     9    4    7 1
    10    5    6 ar
    11    5   21 1
    12    6   22 1
    13    7    8 1
    14    7   23 1
    15    7   24 1
    16    8    9 1
    17    9   10 2
    18    9   11 1
    19   11   12 1
    20   11   25 1
    21   11   26 1
    22   12   17 ar
    23   12   13 ar
    24   13   14 ar
    25   13   27 1
    26   14   15 ar
    27   14   28 1
    28   15   16 ar
    29   15   29 1
    30   16   17 ar
    31   16   30 1
    32   17   31 1
@<TRIPOS>MOLECULE
ZINC13449631
   31    32     0     0     0
SMALL
USER_CHARGES
[(S)-benzylsulfinyl]sulfanylmethylbenzene
@<TRIPOS>ATOM
      1 C1          7.6248    1.4400   -5.0941 C.ar      1 <0>        -0.1105
      2 C2          8.5744    0.6763   -4.4416 C.ar      1 <0>        -0.1243
      3 C3          8.2151   -0.5259   -3.8614 C.ar      1 <0>        -0.0913
      4 C4          6.9062   -0.9645   -3.9341 C.ar      1 <0>        -0.1117
      5 C5          5.9577   -0.2035   -4.5915 C.ar      1 <0>        -0.0806
      6 C6          6.3159    1.0014   -5.1668 C.ar      1 <0>        -0.1139
      7 C7          6.5146   -2.2752   -3.3019 C.3       1 <0>         0.0514
      8 S1          6.0043   -1.9898   -1.5848 S.3       1 <0>        -0.6635
      9 S2          4.2215   -0.9925   -1.7564 S.o       1 <0>         1.2841
     10 O1          4.5765    0.2454   -2.3570 O.2       1 <0>        -0.7350
     11 C8          3.7112   -0.7071   -0.0392 C.3       1 <0>        -0.3792
     12 C9          2.3960    0.0285   -0.0217 C.ar      1 <0>        -0.0797
     13 C10         1.2084   -0.6789   -0.0136 C.ar      1 <0>        -0.1121
     14 C11         0.0021   -0.0041    0.0020 C.ar      1 <0>        -0.1157
     15 C12        -0.0167    1.3781    0.0096 C.ar      1 <0>        -0.1127
     16 C13         1.1709    2.0855    0.0021 C.ar      1 <0>        -0.1144
     17 C14         2.3773    1.4107   -0.0141 C.ar      1 <0>        -0.1071
     18 H1          7.9054    2.3795   -5.5468 H         1 <0>         0.1223
     19 H2          9.5971    1.0189   -4.3848 H         1 <0>         0.1236
     20 H3          8.9571   -1.1226   -3.3516 H         1 <0>         0.1237
     21 H4          4.9361   -0.5483   -4.6521 H         1 <0>         0.1131
     22 H5          5.5738    1.5982   -5.6763 H         1 <0>         0.1219
     23 H6          7.3658   -2.9559   -3.3197 H         1 <0>         0.1224
     24 H7          5.6867   -2.7142   -3.8588 H         1 <0>         0.0986
     25 H8          4.4679   -0.1107    0.4703 H         1 <0>         0.1127
     26 H9          3.5990   -1.6641    0.4703 H         1 <0>         0.1396
     27 H10         1.2231   -1.7587   -0.0199 H         1 <0>         0.1323
     28 H11        -0.9258   -0.5567    0.0079 H         1 <0>         0.1297
     29 H12        -0.9592    1.9054    0.0170 H         1 <0>         0.1269
     30 H13         1.1563    3.1654    0.0077 H         1 <0>         0.1266
     31 H14         3.3051    1.9634   -0.0207 H         1 <0>         0.1224
@<TRIPOS>BOND
     1    1    6 ar
     2    1    2 ar
     3    1   18 1
     4    2    3 ar
     5    2   19 1
     6    3    4 ar
     7    3   20 1
     8    4    5 ar
     9    4    7 1
    10    5    6 ar
    11    5   21 1
    12    6   22 1
    13    7    8 1
    14    7   23 1
    15    7   24 1
    16    8    9 1
    17    9   10 2
    18    9   11 1
    19   11   12 1
    20   11   25 1
    21   11   26 1
    22   12   17 ar
    23   12   13 ar
    24   13   14 ar
    25   13   27 1
    26   14   15 ar
    27   14   28 1
    28   15   16 ar
    29   15   29 1
    30   16   17 ar
    31   16   30 1
    32   17   31 1
@<TRIPOS>MOLECULE
ZINC12403599
   34    35     0     0     0
SMALL
USER_CHARGES

@<TRIPOS>ATOM
      1 C1         -0.0184    1.5028    0.0103 C.3       1 <0>        -0.1613
      2 C2          0.0021   -0.0041    0.0020 C.2       1 <0>         0.1495
      3 N1          0.0216   -0.6591    1.1227 N.2       1 <0>        -0.2022
      4 N2          0.0237    0.0348    2.3397 N.pl3     1 <0>        -0.5565
      5 C3          0.0443   -0.6555    3.5205 C.cat     1 <0>         0.5583
      6 N3          0.0463    0.0219    4.7085 N.pl3     1 <0>        -0.8134
      7 S1          0.0668   -2.3153    3.5114 S.3       1 <0>        -0.5239
      8 C4         -0.0001   -0.7339   -1.2781 C.ar      1 <0>        -0.0544
      9 C5         -0.0153   -0.0291   -2.4855 C.ar      1 <0>        -0.0858
     10 C6         -0.0169   -0.7123   -3.6804 C.ar      1 <0>        -0.1175
     11 C7         -0.0037   -2.1074   -3.6871 C.ar      1 <0>        -0.0223
     12 C8          0.0110   -2.8122   -2.4832 C.ar      1 <0>        -0.1157
     13 C9          0.0188   -2.1319   -1.2867 C.ar      1 <0>        -0.0665
     14 C10        -0.0059   -2.8418   -4.9752 C.ar      1 <0>        -0.0536
     15 C11        -0.0153   -2.1409   -6.1802 C.ar      1 <0>        -0.1079
     16 C12        -0.0173   -2.8297   -7.3760 C.ar      1 <0>        -0.1191
     17 C13        -0.0106   -4.2130   -7.3804 C.ar      1 <0>        -0.1153
     18 C14        -0.0012   -4.9139   -6.1878 C.ar      1 <0>        -0.1180
     19 C15         0.0072   -4.2357   -4.9859 C.ar      1 <0>        -0.1066
     20 H1          1.0042    1.8801    0.0026 H         1 <0>         0.0917
     21 H2         -0.5455    1.8639   -0.8728 H         1 <0>         0.0950
     22 H3         -0.5286    1.8543    0.9071 H         1 <0>         0.0675
     23 H4          0.0332    0.9918    4.7138 H         1 <0>         0.3932
     24 H5          0.0609   -0.4676    5.5458 H         1 <0>         0.4356
     25 H6         -0.0262    1.0508   -2.4806 H         1 <0>         0.1319
     26 H7         -0.0286   -0.1682   -4.6132 H         1 <0>         0.1315
     27 H8          0.0204   -3.8921   -2.4901 H         1 <0>         0.1322
     28 H9          0.0347   -2.6777   -0.3549 H         1 <0>         0.1445
     29 H10        -0.0213   -1.0609   -6.1779 H         1 <0>         0.1261
     30 H11        -0.0246   -2.2878   -8.3101 H         1 <0>         0.1250
     31 H12        -0.0129   -4.7479   -8.3186 H         1 <0>         0.1237
     32 H13         0.0040   -5.9938   -6.1973 H         1 <0>         0.1258
     33 H14         0.0190   -4.7838   -4.0554 H         1 <0>         0.1277
     34 H15         0.0105    1.0047    2.3451 H         1 <0>         0.3808
@<TRIPOS>BOND
     1    1    2 1
     2    1   20 1
     3    1   21 1
     4    1   22 1
     5    2    3 2
     6    2    8 1
     7    3    4 1
     8    4    5 2
     9    4   34 1
    10    5    6 1
    11    5    7 1
    12    6   23 1
    13    6   24 1
    14    8   13 ar
    15    8    9 ar
    16    9   10 ar
    17    9   25 1
    18   10   11 ar
    19   10   26 1
    20   11   12 ar
    21   11   14 1
    22   12   13 ar
    23   12   27 1
    24   13   28 1
    25   14   19 ar
    26   14   15 ar
    27   15   16 ar
    28   15   29 1
    29   16   17 ar
    30   16   30 1
    31   17   18 ar
    32   17   31 1
    33   18   19 ar
    34   18   32 1
    35   19   33 1
@<TRIPOS>MOLECULE
ZINC01530846
   19    18     0     0     0
SMALL
USER_CHARGES
3-allylsulfanylsulfinylprop-1-ene
@<TRIPOS>ATOM
      1 C1         -2.8534   -0.8977    2.9353 C.2       1 <0>        -0.1548
      2 C2         -2.3887   -0.2416    1.9011 C.2       1 <0>        -0.1796
      3 C3         -2.4092    1.2653    1.8933 C.3       1 <0>         0.0382
      4 S1         -0.7074    1.8931    1.8804 S.3       1 <0>        -0.6646
      5 S2         -0.0172    1.4168    0.0098 S.o       1 <0>         1.2949
      6 O1          0.0021   -0.0041    0.0020 O.2       1 <0>        -0.7560
      7 C4          1.6846    2.0446   -0.0030 C.3       1 <0>        -0.3922
      8 C5          2.3166    1.7556   -1.3403 C.2       1 <0>        -0.1576
      9 C6          2.6608    2.7432   -2.1292 C.2       1 <0>        -0.1560
     10 H1         -2.8387   -1.9775    2.9409 H         1 <0>         0.1047
     11 H2         -3.2512   -0.3587    3.7825 H         1 <0>         0.1017
     12 H3         -1.9909   -0.7805    1.0539 H         1 <0>         0.1229
     13 H4         -2.9229    1.6262    2.7844 H         1 <0>         0.1169
     14 H5         -2.9330    1.6170    1.0044 H         1 <0>         0.0990
     15 H6          1.6762    3.1208    0.1699 H         1 <0>         0.1345
     16 H7          2.2586    1.5548    0.7835 H         1 <0>         0.1126
     17 H8          2.4856    0.7344   -1.6482 H         1 <0>         0.1185
     18 H9          2.4918    3.7644   -1.8212 H         1 <0>         0.1069
     19 H10         3.1137    2.5361   -3.0875 H         1 <0>         0.1101
@<TRIPOS>BOND
     1    1    2 2
     2    1   10 1
     3    1   11 1
     4    2    3 1
     5    2   12 1
     6    3    4 1
     7    3   13 1
     8    3   14 1
     9    4    5 1
    10    5    6 2
    11    5    7 1
    12    7    8 1
    13    7   15 1
    14    7   16 1
    15    8    9 2
    16    8   17 1
    17    9   18 1
    18    9   19 1
@<TRIPOS>MOLECULE
ZINC04097409
   19    18     0     0     0
SMALL
USER_CHARGES
3-allylsulfanylsulfinylprop-1-ene
@<TRIPOS>ATOM
      1 C1         -0.7022   -1.0693    3.4481 C.2       1 <0>        -0.1479
      2 C2         -0.2005   -0.1106    2.7097 C.2       1 <0>        -0.1759
      3 C3          0.7558   -0.4415    1.5930 C.3       1 <0>         0.0348
      4 S1          0.0021   -0.0041    0.0020 S.3       1 <0>        -0.6612
      5 S2         -0.0257    2.0457    0.0133 S.o       1 <0>         1.2915
      6 O1          1.3482    2.4082    0.0021 O.2       1 <0>        -0.7580
      7 C4         -0.7794    2.4831   -1.5777 C.3       1 <0>        -0.3928
      8 C5         -0.8608    3.9830   -1.6995 C.2       1 <0>        -0.1592
      9 C6         -0.1676    4.6038   -2.6215 C.2       1 <0>        -0.1567
     10 H1         -1.3875   -0.8322    4.2485 H         1 <0>         0.1087
     11 H2         -0.4305   -2.0969    3.2566 H         1 <0>         0.1024
     12 H3         -0.4722    0.9170    2.9013 H         1 <0>         0.1169
     13 H4          0.9776   -1.5086    1.6088 H         1 <0>         0.1163
     14 H5          1.6785    0.1234    1.7254 H         1 <0>         0.0950
     15 H6         -0.1708    2.0851   -2.3897 H         1 <0>         0.1061
     16 H7         -1.7820    2.0591   -1.6336 H         1 <0>         0.1408
     17 H8         -1.4906    4.5460   -1.0267 H         1 <0>         0.1286
     18 H9          0.4622    4.0408   -3.2944 H         1 <0>         0.0990
     19 H10        -0.2259    5.6787   -2.7089 H         1 <0>         0.1116
@<TRIPOS>BOND
     1    1    2 2
     2    1   10 1
     3    1   11 1
     4    2    3 1
     5    2   12 1
     6    3    4 1
     7    3   13 1
     8    3   14 1
     9    4    5 1
    10    5    6 2
    11    5    7 1
    12    7    8 1
    13    7   15 1
    14    7   16 1
    15    8    9 2
    16    8   17 1
    17    9   18 1
    18    9   19 1
@<TRIPOS>MOLECULE
ZINC13474220
   24    24     0     0     0
SMALL
USER_CHARGES

@<TRIPOS>ATOM
      1 C1         -0.0184    1.5028    0.0103 C.3       1 <0>        -0.1604
      2 C2          0.0021   -0.0041    0.0020 C.2       1 <0>         0.1464
      3 N1          0.0216   -0.6588    1.1221 N.2       1 <0>        -0.1973
      4 N2          0.0237    0.0351    2.3392 N.pl3     1 <0>        -0.5562
      5 C3          0.0443   -0.6552    3.5200 C.cat     1 <0>         0.5568
      6 N3          0.0463    0.0221    4.7080 N.pl3     1 <0>        -0.8125
      7 S1          0.0668   -2.3150    3.5109 S.3       1 <0>        -0.5187
      8 C4         -0.0001   -0.7345   -1.2792 C.ar      1 <0>        -0.0462
      9 C5         -0.0153   -0.0327   -2.4871 C.ar      1 <0>        -0.0769
     10 C6         -0.0174   -0.7218   -3.6818 C.ar      1 <0>        -0.1171
     11 C7         -0.0043   -2.1055   -3.6864 C.ar      1 <0>        -0.0720
     12 C8          0.0108   -2.8080   -2.4936 C.ar      1 <0>        -0.0958
     13 C9          0.0188   -2.1309   -1.2906 C.ar      1 <0>        -0.0457
     14 Br1         0.0278   -4.6988   -2.5123 Br        1 <0>        -0.0389
     15 H1          1.0042    1.8801    0.0026 H         1 <0>         0.0930
     16 H2         -0.5455    1.8639   -0.8728 H         1 <0>         0.0956
     17 H3         -0.5286    1.8543    0.9071 H         1 <0>         0.0691
     18 H4          0.0332    0.9920    4.7133 H         1 <0>         0.3933
     19 H5          0.0609   -0.4673    5.5453 H         1 <0>         0.4359
     20 H6         -0.0259    1.0473   -2.4854 H         1 <0>         0.1369
     21 H7         -0.0295   -0.1802   -4.6160 H         1 <0>         0.1393
     22 H8         -0.0064   -2.6399   -4.6249 H         1 <0>         0.1374
     23 H9          0.0351   -2.6797   -0.3605 H         1 <0>         0.1524
     24 H10         0.0105    1.0050    2.3446 H         1 <0>         0.3817
@<TRIPOS>BOND
     1    1    2 1
     2    1   15 1
     3    1   16 1
     4    1   17 1
     5    2    3 2
     6    2    8 1
     7    3    4 1
     8    4    5 2
     9    4   24 1
    10    5    6 1
    11    5    7 1
    12    6   18 1
    13    6   19 1
    14    8   13 ar
    15    8    9 ar
    16    9   10 ar
    17    9   20 1
    18   10   11 ar
    19   10   21 1
    20   11   12 ar
    21   11   22 1
    22   12   13 ar
    23   12   14 1
    24   13   23 1
