@<TRIPOS>MOLECULE
ZINC02562608
   19    20     0     0     0
SMALL
USER_CHARGES

@<TRIPOS>ATOM
      1 C1         -0.0167    1.3791    0.0096 C.ar      1 <0>        -0.0787
      2 C2          1.1686    2.0922    0.0021 C.ar      1 <0>        -0.1177
      3 C3          2.3774    1.4264   -0.0135 C.ar      1 <0>        -0.0630
      4 C4          2.4024    0.0329   -0.0212 C.ar      1 <0>        -0.0706
      5 C5          1.2050   -0.6804   -0.0131 C.ar      1 <0>        -0.0741
      6 C6          0.0021   -0.0041    0.0020 C.ar      1 <0>        -0.1147
      7 C7          3.6982   -0.6883   -0.0385 C.2       1 <0>         0.2130
      8 C8          3.9813   -1.9653    0.6297 C.2       1 <0>         0.1563
      9 N1          5.2302   -2.2855    0.3882 N.pl3     1 <0>         0.0054
     10 O1          5.8984   -3.4449    0.8512 O.3       1 <0>        -0.3560
     11 O2          5.7911   -1.2655   -0.4189 O.3       1 <0>         0.0787
     12 N2          4.7829   -0.2993   -0.6556 N.2       1 <0>        -0.2295
     13 C9          3.0544   -2.7283    1.4102 C.1       1 <0>         0.2639
     14 N3          2.3191   -3.3337    2.0294 N.1       1 <0>        -0.2958
     15 H1         -0.9603    1.9042    0.0260 H         1 <0>         0.1365
     16 H2          1.1480    3.1719    0.0081 H         1 <0>         0.1394
     17 H3          3.3022    1.9841   -0.0200 H         1 <0>         0.1383
     18 H4          1.2185   -1.7603   -0.0194 H         1 <0>         0.1293
     19 H5         -0.9264   -0.5557    0.0079 H         1 <0>         0.1393
@<TRIPOS>BOND
     1    1    6 ar
     2    1    2 ar
     3    1   15 1
     4    2    3 ar
     5    2   16 1
     6    3    4 ar
     7    3   17 1
     8    4    5 ar
     9    4    7 1
    10    5    6 ar
    11    5   18 1
    12    6   19 1
    13    7   12 2
    14    7    8 1
    15    8    9 2
    16    8   13 1
    17    9   10 1
    18    9   11 1
    19   11   12 1
    20   13   14 3
@<TRIPOS>MOLECULE
ZINC00047830
   26    28     0     0     0
SMALL
USER_CHARGES

@<TRIPOS>ATOM
      1 C1          0.1085    0.6838   -0.2665 C.2       1 <0>        -0.1967
      2 C2          1.2252    1.4806   -0.2402 C.2       1 <0>        -0.0310
      3 C3          2.4427    0.8106   -0.1852 C.2       1 <0>        -0.3172
      4 S1          1.9220   -0.8943   -0.1747 S.3       1 <0>         0.2717
      5 C4          0.2589   -0.6655   -0.2381 C.2       1 <0>        -0.2034
      6 C5          3.7968    1.3611   -0.1466 C.2       1 <0>         0.5166
      7 O1          3.9643    2.5664   -0.1616 O.2       1 <0>        -0.3841
      8 C6          4.9657    0.4509   -0.0891 C.2       1 <0>         0.0903
      9 C7          6.3744    0.8621   -0.0403 C.2       1 <0>         0.0407
     10 N1          7.1153   -0.2193    0.0029 N.pl3     1 <0>         0.0075
     11 O2          8.5296   -0.2597    0.0588 O.3       1 <0>        -0.3596
     12 O3          6.2487   -1.3397   -0.0155 O.3       1 <0>         0.0811
     13 N2          4.9188   -0.8552   -0.0676 N.2       1 <0>        -0.1829
     14 C8          6.8718    2.2543   -0.0406 C.2       1 <0>         0.5314
     15 O4          7.0974    2.8199   -1.0948 O.2       1 <0>        -0.3810
     16 C9          7.0930    2.9527    1.2266 C.2       1 <0>        -0.2916
     17 C10         7.5711    4.2388    1.4461 C.2       1 <0>        -0.0343
     18 C11         7.6712    4.6206    2.7609 C.2       1 <0>        -0.1901
     19 C12         7.3079    3.7447    3.7321 C.2       1 <0>        -0.1982
     20 S2          6.8118    2.3780    2.8905 S.3       1 <0>         0.2285
     21 H1         -0.8770    1.1239   -0.3048 H         1 <0>         0.1464
     22 H2          1.1628    2.5586   -0.2611 H         1 <0>         0.1569
     23 H3         -0.5142   -1.4195   -0.2528 H         1 <0>         0.1969
     24 H4          7.8467    4.8957    0.6343 H         1 <0>         0.1576
     25 H5          8.0343    5.6044    3.0191 H         1 <0>         0.1476
     26 H6          7.3285    3.8940    4.8016 H         1 <0>         0.1969
@<TRIPOS>BOND
     1    1    5 2
     2    1    2 1
     3    1   21 1
     4    2    3 2
     5    2   22 1
     6    3    4 1
     7    3    6 1
     8    4    5 1
     9    5   23 1
    10    6    7 2
    11    6    8 1
    12    8   13 2
    13    8    9 1
    14    9   10 2
    15    9   14 1
    16   10   11 1
    17   10   12 1
    18   12   13 1
    19   14   15 2
    20   14   16 1
    21   16   20 1
    22   16   17 2
    23   17   18 1
    24   17   24 1
    25   18   19 2
    26   18   25 1
    27   19   20 1
    28   19   26 1
@<TRIPOS>MOLECULE
ZINC13831326
   22    23     0     0     0
SMALL
USER_CHARGES

@<TRIPOS>ATOM
      1 C1         -0.0168    1.3896    0.0097 C.ar      1 <0>        -0.0638
      2 C2          1.1704    2.0932    0.0021 C.ar      1 <0>        -0.0662
      3 C3          2.3775    1.4179   -0.0135 C.ar      1 <0>        -0.1473
      4 C4          2.4023    0.0348   -0.0216 C.ar      1 <0>        -0.0638
      5 C5          1.2213   -0.6792   -0.0137 C.ar      1 <0>        -0.0754
      6 C6          0.0021   -0.0041    0.0020 C.ar      1 <0>        -0.0346
      7 C7         -1.2704   -0.7658    0.0106 C.2       1 <0>         0.2046
      8 C8         -1.5130   -2.0436   -0.6719 C.2       1 <0>         0.1576
      9 N1         -2.7512   -2.4057   -0.4346 N.pl3     1 <0>         0.0067
     10 O1         -3.3826   -3.5802   -0.9109 O.3       1 <0>        -0.3492
     11 O2         -3.3442   -1.4128    0.3834 O.3       1 <0>         0.0838
     12 N2         -2.3669   -0.4180    0.6313 N.2       1 <0>        -0.2196
     13 C9         -0.5624   -2.7683   -1.4605 C.1       1 <0>         0.2601
     14 N3          0.1916   -3.3432   -2.0861 N.1       1 <0>        -0.2904
     15 C10         3.6706    2.1919   -0.0222 C.3       1 <0>         0.5069
     16 F1          4.0838    2.4243    1.2940 F         1 <0>        -0.1701
     17 F2          4.6507    1.4548   -0.6954 F         1 <0>        -0.1714
     18 F3          3.4775    3.4150   -0.6732 F         1 <0>        -0.1714
     19 H1         -0.9587    1.9178    0.0260 H         1 <0>         0.1526
     20 H2          1.1570    3.1731    0.0081 H         1 <0>         0.1542
     21 H3          3.3477   -0.4872   -0.0345 H         1 <0>         0.1540
     22 H4          1.2419   -1.7589   -0.0204 H         1 <0>         0.1429
@<TRIPOS>BOND
     1    1    6 ar
     2    1    2 ar
     3    1   19 1
     4    2    3 ar
     5    2   20 1
     6    3    4 ar
     7    3   15 1
     8    4    5 ar
     9    4   21 1
    10    5    6 ar
    11    5   22 1
    12    6    7 1
    13    7   12 2
    14    7    8 1
    15    8    9 2
    16    8   13 1
    17    9   10 1
    18    9   11 1
    19   11   12 1
    20   13   14 3
    21   15   16 1
    22   15   17 1
    23   15   18 1
