@<TRIPOS>MOLECULE
ZINC12428433
   32    33     0     0     0
SMALL
USER_CHARGES

@<TRIPOS>ATOM
      1 C1         -0.0169    1.3954    0.0097 C.ar      1 <0>        -0.0904
      2 C2          1.1670    2.0999    0.0022 C.ar      1 <0>        -0.1322
      3 C3          2.3804    1.4253   -0.0135 C.ar      1 <0>         0.0958
      4 C4          2.4078    0.0306   -0.0212 C.ar      1 <0>         0.0793
      5 C5          1.2266   -0.6835   -0.0138 C.ar      1 <0>        -0.1038
      6 C6          0.0021   -0.0041    0.0020 C.ar      1 <0>        -0.0735
      7 C7         -1.2589   -0.7581    0.0105 C.2       1 <0>        -0.0126
      8 C8         -2.4394   -0.1004    0.0257 C.2       1 <0>        -0.2314
      9 C9         -3.6941   -0.8507    0.0342 C.2       1 <0>         0.4226
     10 O1         -3.6755   -2.0687    0.0275 O.2       1 <0>        -0.4421
     11 C10        -4.9819   -0.1332    0.0508 C.ar      1 <0>        -0.2013
     12 C11        -5.0066    1.2652    0.0527 C.ar      1 <0>        -0.0413
     13 C12        -6.2101    1.9309    0.0678 C.ar      1 <0>        -0.1682
     14 C13        -7.4056    1.2179    0.0812 C.ar      1 <0>         0.1575
     15 C14        -7.3926   -0.1691    0.0794 C.ar      1 <0>        -0.1902
     16 C15        -6.1880   -0.8506    0.0589 C.ar      1 <0>         0.1855
     17 O2         -6.1733   -2.2072    0.0519 O.3       1 <0>        -0.4786
     18 O3         -8.5888    1.8827    0.0964 O.3       1 <0>        -0.4961
     19 O4          3.5988   -0.6258   -0.0366 O.3       1 <0>        -0.4857
     20 O5          3.5442    2.1254   -0.0217 O.3       1 <0>        -0.4865
     21 H1         -0.9592    1.9228    0.0261 H         1 <0>         0.1364
     22 H2          1.1512    3.1797    0.0081 H         1 <0>         0.1394
     23 H3          1.2466   -1.7633   -0.0205 H         1 <0>         0.1407
     24 H4         -1.2424   -1.8380    0.0045 H         1 <0>         0.1381
     25 H5         -2.4560    0.9794    0.0317 H         1 <0>         0.1347
     26 H6         -4.0812    1.8220    0.0427 H         1 <0>         0.1409
     27 H7         -6.2276    3.0108    0.0696 H         1 <0>         0.1396
     28 H8         -8.3229   -0.7176    0.0899 H         1 <0>         0.1426
     29 H9         -6.1604   -2.6050    0.9333 H         1 <0>         0.3992
     30 H10        -8.9423    2.0766   -0.7825 H         1 <0>         0.4001
     31 H11         3.9520   -0.8204    0.8423 H         1 <0>         0.3901
     32 H12         3.8902    2.3237    0.8592 H         1 <0>         0.3914
@<TRIPOS>BOND
     1    1    6 ar
     2    1    2 ar
     3    1   21 1
     4    2    3 ar
     5    2   22 1
     6    3    4 ar
     7    3   20 1
     8    4    5 ar
     9    4   19 1
    10    5    6 ar
    11    5   23 1
    12    6    7 1
    13    7    8 2
    14    7   24 1
    15    8    9 1
    16    8   25 1
    17    9   10 2
    18    9   11 1
    19   11   16 ar
    20   11   12 ar
    21   12   13 ar
    22   12   26 1
    23   13   14 ar
    24   13   27 1
    25   14   15 ar
    26   14   18 1
    27   15   16 ar
    28   15   28 1
    29   16   17 1
    30   17   29 1
    31   18   30 1
    32   19   31 1
    33   20   32 1
@<TRIPOS>MOLECULE
ZINC08681494
   50    53     0     0     0
SMALL
USER_CHARGES

@<TRIPOS>ATOM
      1 C1         -0.0167    1.3779    0.0096 C.ar      1 <0>        -0.0832
      2 C2          1.1696    2.0886    0.0021 C.ar      1 <0>        -0.1311
      3 C3          2.3802    1.4154   -0.0130 C.ar      1 <0>         0.0917
      4 C4          2.3990    0.0236   -0.0206 C.ar      1 <0>         0.0803
      5 C5          1.2071   -0.6822   -0.0130 C.ar      1 <0>        -0.1019
      6 C6          0.0021   -0.0041    0.0020 C.ar      1 <0>        -0.0826
      7 C7         -1.2936   -0.7736    0.0102 C.3       1 <0>         0.1441
      8 H1         -1.1201   -1.7884   -0.3479 H         1 <0>         0.0998
      9 C8         -1.8590   -0.8183    1.4356 C.3       1 <0>         0.0656
     10 H2         -2.1191    0.1894    1.7595 H         1 <0>         0.1043
     11 C9         -3.1120   -1.6975    1.4281 C.3       1 <0>        -0.0874
     12 C10        -4.0118   -1.2895    0.2891 C.ar      1 <0>        -0.1903
     13 C11        -5.3448   -1.6839    0.3168 C.ar      1 <0>         0.1635
     14 C12        -6.1992   -1.3308   -0.7146 C.ar      1 <0>        -0.1965
     15 C13        -5.7231   -0.5806   -1.7796 C.ar      1 <0>         0.1599
     16 C14        -4.3960   -0.1855   -1.8071 C.ar      1 <0>        -0.1784
     17 C15        -3.5373   -0.5380   -0.7709 C.ar      1 <0>         0.1588
     18 O1         -2.2452   -0.1223   -0.8323 O.3       1 <0>        -0.2898
     19 O2         -6.5574   -0.2342   -2.7948 O.3       1 <0>        -0.4911
     20 O3         -5.8113   -2.4194    1.3600 O.3       1 <0>        -0.4902
     21 O4         -0.8856   -1.3731    2.3226 O.3       1 <0>        -0.3279
     22 C16        -0.9111   -0.9489    3.6014 C.2       1 <0>         0.5148
     23 O5         -1.7371   -0.1303    3.9536 O.2       1 <0>        -0.4908
     24 C17         0.0636   -1.4782    4.5734 C.ar      1 <0>        -0.1031
     25 C18         1.0179   -2.4155    4.1683 C.ar      1 <0>        -0.0810
     26 C19         1.9301   -2.9098    5.0813 C.ar      1 <0>         0.0863
     27 C20         1.8987   -2.4752    6.4039 C.ar      1 <0>         0.0960
     28 C21         0.9488   -1.5418    6.8103 C.ar      1 <0>         0.0887
     29 C22         0.0384   -1.0391    5.9000 C.ar      1 <0>        -0.0732
     30 O6          0.9207   -1.1198    8.1029 O.3       1 <0>        -0.4774
     31 O7          2.7965   -2.9632    7.2996 O.3       1 <0>        -0.4719
     32 O8          2.8590   -3.8220    4.6878 O.3       1 <0>        -0.4773
     33 O9          3.5850   -0.6417   -0.0359 O.3       1 <0>        -0.4831
     34 O10         3.5476    2.1129   -0.0209 O.3       1 <0>        -0.4863
     35 H3         -0.9598    1.9038    0.0259 H         1 <0>         0.1345
     36 H4          1.1522    3.1684    0.0077 H         1 <0>         0.1380
     37 H5          1.2190   -1.7621   -0.0189 H         1 <0>         0.1388
     38 H6         -2.8221   -2.7410    1.3054 H         1 <0>         0.0963
     39 H7         -3.6445   -1.5781    2.3716 H         1 <0>         0.0930
     40 H8         -7.2339   -1.6393   -0.6898 H         1 <0>         0.1412
     41 H9         -4.0260    0.3985   -2.6368 H         1 <0>         0.1440
     42 H10        -7.0114    0.6089   -2.6604 H         1 <0>         0.3978
     43 H11        -6.1571   -1.8895    2.0913 H         1 <0>         0.3960
     44 H12         1.0423   -2.7535    3.1428 H         1 <0>         0.1535
     45 H13        -0.6951   -0.3115    6.2147 H         1 <0>         0.1537
     46 H14         1.4699   -0.3427    8.2750 H         1 <0>         0.3935
     47 H15         3.6138   -2.4496    7.3568 H         1 <0>         0.3924
     48 H16         3.6850   -3.4309    4.3717 H         1 <0>         0.3924
     49 H17         3.9367   -0.8389    0.8430 H         1 <0>         0.3864
     50 H18         3.8938    2.3101    0.8602 H         1 <0>         0.3891
@<TRIPOS>BOND
     1    1    6 ar
     2    1    2 ar
     3    1   35 1
     4    2    3 ar
     5    2   36 1
     6    3    4 ar
     7    3   34 1
     8    4    5 ar
     9    4   33 1
    10    5    6 ar
    11    5   37 1
    12    6    7 1
    13    7    8 1
    14    7   18 1
    15    7    9 1
    16    9   10 1
    17    9   11 1
    18    9   21 1
    19   11   12 1
    20   11   38 1
    21   11   39 1
    22   12   17 ar
    23   12   13 ar
    24   13   14 ar
    25   13   20 1
    26   14   15 ar
    27   14   40 1
    28   15   16 ar
    29   15   19 1
    30   16   17 ar
    31   16   41 1
    32   17   18 1
    33   19   42 1
    34   20   43 1
    35   21   22 1
    36   22   23 2
    37   22   24 1
    38   24   29 ar
    39   24   25 ar
    40   25   26 ar
    41   25   44 1
    42   26   27 ar
    43   26   32 1
    44   27   28 ar
    45   27   31 1
    46   28   29 ar
    47   28   30 1
    48   29   45 1
    49   30   46 1
    50   31   47 1
    51   32   48 1
    52   33   49 1
    53   34   50 1
@<TRIPOS>MOLECULE
ZINC18185774
   31    33     0     0     0
SMALL
USER_CHARGES

@<TRIPOS>ATOM
      1 C1         -0.0169    1.3929    0.0097 C.ar      1 <0>        -0.0705
      2 C2          1.1675    2.0983    0.0022 C.ar      1 <0>        -0.1309
      3 C3          2.3803    1.4240   -0.0135 C.ar      1 <0>         0.1099
      4 C4          2.4067    0.0300   -0.0212 C.ar      1 <0>         0.0792
      5 C5          1.2240   -0.6832   -0.0138 C.ar      1 <0>        -0.0904
      6 C6          0.0021   -0.0041    0.0020 C.ar      1 <0>        -0.0661
      7 C7         -1.2642   -0.7606    0.0105 C.2       1 <0>         0.2069
      8 C8         -2.4374   -0.0724    0.0203 C.2       1 <0>        -0.3067
      9 C9         -3.6620   -0.7813    0.0286 C.2       1 <0>         0.4226
     10 O1         -4.7331   -0.1964    0.0371 O.2       1 <0>        -0.4521
     11 C10        -3.5935   -2.2524    0.0260 C.ar      1 <0>        -0.2661
     12 C11        -4.7554   -3.0344    0.0332 C.ar      1 <0>         0.2196
     13 C12        -4.6484   -4.4128    0.0300 C.ar      1 <0>        -0.2046
     14 C13        -3.3955   -5.0163    0.0203 C.ar      1 <0>         0.1928
     15 C14        -2.2415   -4.2483    0.0131 C.ar      1 <0>        -0.1829
     16 C15        -2.3286   -2.8648    0.0157 C.ar      1 <0>         0.1832
     17 O2         -1.2147   -2.1022    0.0028 O.3       1 <0>        -0.2181
     18 O3         -3.3016   -6.3705    0.0182 O.3       1 <0>        -0.4872
     19 O4         -5.9771   -2.4436    0.0436 O.3       1 <0>        -0.4722
     20 O5          3.5971   -0.6274   -0.0366 O.3       1 <0>        -0.4831
     21 O6          3.5446    2.1239   -0.0217 O.3       1 <0>        -0.4848
     22 H1         -0.9593    1.9201    0.0260 H         1 <0>         0.1451
     23 H2          1.1515    3.1781    0.0081 H         1 <0>         0.1468
     24 H3          1.2430   -1.7630   -0.0205 H         1 <0>         0.1466
     25 H4         -2.4342    1.0076    0.0222 H         1 <0>         0.1649
     26 H5         -5.5400   -5.0224    0.0355 H         1 <0>         0.1504
     27 H6         -1.2739   -4.7281    0.0059 H         1 <0>         0.1535
     28 H7         -3.2809   -6.7620   -0.8658 H         1 <0>         0.4041
     29 H8         -6.3379   -2.2705   -0.8367 H         1 <0>         0.4034
     30 H9          3.9502   -0.8223    0.8423 H         1 <0>         0.3919
     31 H10         3.8907    2.3221    0.8592 H         1 <0>         0.3948
@<TRIPOS>BOND
     1    1    6 ar
     2    1    2 ar
     3    1   22 1
     4    2    3 ar
     5    2   23 1
     6    3    4 ar
     7    3   21 1
     8    4    5 ar
     9    4   20 1
    10    5    6 ar
    11    5   24 1
    12    6    7 1
    13    7   17 1
    14    7    8 2
    15    8    9 1
    16    8   25 1
    17    9   10 2
    18    9   11 1
    19   11   16 ar
    20   11   12 ar
    21   12   13 ar
    22   12   19 1
    23   13   14 ar
    24   13   26 1
    25   14   15 ar
    26   14   18 1
    27   15   16 ar
    28   15   27 1
    29   16   17 1
    30   18   28 1
    31   19   29 1
    32   20   30 1
    33   21   31 1
@<TRIPOS>MOLECULE
ZINC03874317
   33    35     0     0     0
SMALL
USER_CHARGES

@<TRIPOS>ATOM
      1 C1          2.0732    1.4062   -0.8308 C.ar      1 <0>        -0.0859
      2 C2          1.1849    2.0922    0.0020 C.ar      1 <0>        -0.0258
      3 C3          0.3126    1.3779    0.8279 C.ar      1 <0>        -0.1033
      4 C4          0.3308   -0.0046    0.8189 C.ar      1 <0>         0.0938
      5 C5          1.2167   -0.6850   -0.0116 C.ar      1 <0>         0.0764
      6 C6          2.0867    0.0236   -0.8354 C.ar      1 <0>         0.0966
      7 O1          2.9505   -0.6446   -1.6458 O.3       1 <0>        -0.4863
      8 O2          1.2322   -2.0446   -0.0183 O.3       1 <0>        -0.4787
      9 O3         -0.5174   -0.7003    1.6227 O.3       1 <0>        -0.4812
     10 C7          1.1683    3.5667    0.0096 C.2       1 <0>         0.1312
     11 C8          2.3519    4.2356    0.1004 C.2       1 <0>        -0.0374
     12 C9          2.3527    5.6546    0.1089 C.2       1 <0>         0.4012
     13 O4          3.3933    6.2877    0.1887 O.2       1 <0>        -0.4464
     14 C10         1.0501    6.3331    0.0174 C.ar      1 <0>        -0.2690
     15 C11         0.9572    7.7312    0.0184 C.ar      1 <0>         0.2250
     16 C12        -0.2849    8.3310   -0.0697 C.ar      1 <0>        -0.2079
     17 C13        -1.4331    7.5508   -0.1581 C.ar      1 <0>         0.2004
     18 C14        -1.3490    6.1675   -0.1597 C.ar      1 <0>        -0.1855
     19 C15        -0.1119    5.5470   -0.0726 C.ar      1 <0>         0.1879
     20 O5         -0.0133    4.2011   -0.0789 O.3       1 <0>        -0.1974
     21 O6         -2.6481    8.1504   -0.2432 O.3       1 <0>        -0.4866
     22 O7          2.0786    8.4907    0.1056 O.3       1 <0>        -0.4725
     23 O8          3.5237    3.5485    0.1828 O.3       1 <0>        -0.4491
     24 H1          2.7453    1.9555   -1.4734 H         1 <0>         0.1463
     25 H2         -0.3747    1.9053    1.4728 H         1 <0>         0.1442
     26 H3          3.8063   -0.8341   -1.2374 H         1 <0>         0.3987
     27 H4          0.6310   -2.4417   -0.6632 H         1 <0>         0.3936
     28 H5         -1.3687   -0.9054    1.2124 H         1 <0>         0.3924
     29 H6         -0.3642    9.4081   -0.0694 H         1 <0>         0.1517
     30 H7         -2.2476    5.5724   -0.2288 H         1 <0>         0.1557
     31 H8         -2.9359    8.3293   -1.1489 H         1 <0>         0.4053
     32 H9          2.4687    8.7158   -0.7501 H         1 <0>         0.4040
     33 H10         4.3069    4.1124    0.2436 H         1 <0>         0.4089
@<TRIPOS>BOND
     1    1    6 ar
     2    1    2 ar
     3    1   24 1
     4    2    3 ar
     5    2   10 1
     6    3    4 ar
     7    3   25 1
     8    4    5 ar
     9    4    9 1
    10    5    6 ar
    11    5    8 1
    12    6    7 1
    13    7   26 1
    14    8   27 1
    15    9   28 1
    16   10   20 1
    17   10   11 2
    18   11   12 1
    19   11   23 1
    20   12   13 2
    21   12   14 1
    22   14   19 ar
    23   14   15 ar
    24   15   16 ar
    25   15   22 1
    26   16   17 ar
    27   16   29 1
    28   17   18 ar
    29   17   21 1
    30   18   19 ar
    31   18   30 1
    32   19   20 1
    33   21   31 1
    34   22   32 1
    35   23   33 1
@<TRIPOS>MOLECULE
ZINC03874317
   32    34     0     0     0
SMALL
USER_CHARGES

@<TRIPOS>ATOM
      1 C1          2.0771    1.4053   -0.8287 C.ar      1 <0>        -0.0905
      2 C2          1.1858    2.0921    0.0020 C.ar      1 <0>        -0.0015
      3 C3          0.3103    1.3773    0.8258 C.ar      1 <0>        -0.1070
      4 C4          0.3284   -0.0047    0.8166 C.ar      1 <0>         0.0918
      5 C5          1.2173   -0.6854   -0.0113 C.ar      1 <0>         0.0627
      6 C6          2.0900    0.0232   -0.8331 C.ar      1 <0>         0.0937
      7 O1          2.9560   -0.6454   -1.6409 O.3       1 <0>        -0.4882
      8 O2          1.2332   -2.0446   -0.0173 O.3       1 <0>        -0.4810
      9 O3         -0.5225   -0.7004    1.6174 O.3       1 <0>        -0.4835
     10 C7          1.1696    3.5647    0.0095 C.2       1 <0>         0.0969
     11 C8          2.3645    4.2546    0.1013 C.2       1 <0>         0.0017
     12 C9          2.3581    5.6552    0.1091 C.2       1 <0>         0.3347
     13 C10         1.1162    6.3213    0.0219 C.2       1 <0>        -0.3328
     14 C11         1.0516    7.7306    0.0250 C.2       1 <0>         0.2668
     15 C12        -0.1591    8.3550   -0.0605 C.2       1 <0>        -0.3747
     16 C13        -1.3400    7.6005   -0.1516 C.2       1 <0>         0.3649
     17 O4         -2.5185    8.2209   -0.2352 O.2       1 <0>        -0.6597
     18 C14        -1.2886    6.2026   -0.1556 C.2       1 <0>        -0.3140
     19 C15        -0.0694    5.5584   -0.0695 C.2       1 <0>         0.2123
     20 O5         -0.0059    4.2104   -0.0783 O.3       1 <0>        -0.2019
     21 O6          2.1901    8.4635    0.1132 O.3       1 <0>        -0.4481
     22 O7          3.5130    6.3524    0.1984 O.3       1 <0>        -0.5726
     23 O8          3.5409    3.5760    0.1840 O.3       1 <0>        -0.4646
     24 H1          2.7513    1.9542   -1.4694 H         1 <0>         0.1458
     25 H2         -0.3788    1.9047    1.4687 H         1 <0>         0.1447
     26 H3          3.8105   -0.8352   -1.2299 H         1 <0>         0.3943
     27 H4          0.6340   -2.4421   -0.6639 H         1 <0>         0.3880
     28 H5         -1.3725   -0.9053    1.2042 H         1 <0>         0.3891
     29 H6         -0.2092    9.4338   -0.0579 H         1 <0>         0.1182
     30 H7         -2.2003    5.6280   -0.2254 H         1 <0>         0.1230
     31 H8          2.0440    9.4194    0.1078 H         1 <0>         0.3850
     32 H9          4.3201    4.1455    0.2445 H         1 <0>         0.4068
@<TRIPOS>BOND
     1    1    6 ar
     2    1    2 ar
     3    1   24 1
     4    2    3 ar
     5    2   10 1
     6    3    4 ar
     7    3   25 1
     8    4    5 ar
     9    4    9 1
    10    5    6 ar
    11    5    8 1
    12    6    7 1
    13    7   26 1
    14    8   27 1
    15    9   28 1
    16   10   20 1
    17   10   11 2
    18   11   12 1
    19   11   23 1
    20   12   13 2
    21   12   22 1
    22   13   19 1
    23   13   14 1
    24   14   15 2
    25   14   21 1
    26   15   16 1
    27   15   29 1
    28   16   17 2
    29   16   18 1
    30   18   19 2
    31   18   30 1
    32   19   20 1
    33   21   31 1
    34   23   32 1
@<TRIPOS>MOLECULE
ZINC06116596
   29    31     0     0     0
SMALL
USER_CHARGES

@<TRIPOS>ATOM
      1 C1         -0.0163    1.3802    0.0111 C.ar      1 <0>        -0.0988
      2 C2          0.2374    0.3974    0.9516 C.ar      1 <0>        -0.1232
      3 C3          1.4405   -0.2770    0.9418 C.ar      1 <0>        -0.0651
      4 C4          2.4040    0.0343   -0.0206 C.ar      1 <0>        -0.0541
      5 C5          2.1410    1.0277   -0.9670 C.ar      1 <0>        -0.0846
      6 C6          0.9335    1.6938   -0.9452 C.ar      1 <0>        -0.1245
      7 C7          3.6939   -0.6825   -0.0372 C.2       1 <0>         0.1405
      8 C8          3.6899   -2.0417    0.0541 C.2       1 <0>        -0.0503
      9 C9          4.9222   -2.7461    0.0390 C.2       1 <0>         0.4004
     10 O1          4.9581   -3.9633    0.1184 O.2       1 <0>        -0.4642
     11 C10         6.1565   -1.9494   -0.0768 C.ar      1 <0>        -0.2368
     12 C11         7.4122   -2.5584   -0.1000 C.ar      1 <0>        -0.0074
     13 C12         8.5361   -1.7902   -0.2087 C.ar      1 <0>        -0.1760
     14 C13         8.4358   -0.4032   -0.2960 C.ar      1 <0>         0.1818
     15 C14         7.1974    0.2159   -0.2744 C.ar      1 <0>        -0.1744
     16 C15         6.0457   -0.5508   -0.1649 C.ar      1 <0>         0.1709
     17 O2          4.8281    0.0295   -0.1473 O.3       1 <0>        -0.1995
     18 O3          9.5617    0.3476   -0.4028 O.3       1 <0>        -0.4901
     19 O4          2.5143   -2.7185    0.1593 O.3       1 <0>        -0.4497
     20 H1         -0.9619    1.9019    0.0207 H         1 <0>         0.1279
     21 H2         -0.5083    0.1581    1.6953 H         1 <0>         0.1308
     22 H3          1.6373   -1.0436    1.6767 H         1 <0>         0.1314
     23 H4          2.8815    1.2736   -1.7137 H         1 <0>         0.1284
     24 H5          0.7287    2.4620   -1.6761 H         1 <0>         0.1298
     25 H6          7.4948   -3.6331   -0.0318 H         1 <0>         0.1488
     26 H7          9.5082   -2.2605   -0.2267 H         1 <0>         0.1451
     27 H8          7.1279    1.2915   -0.3426 H         1 <0>         0.1530
     28 H9          9.8436    0.5065   -1.3140 H         1 <0>         0.4035
     29 H10         2.6169   -3.6782    0.2183 H         1 <0>         0.4065
@<TRIPOS>BOND
     1    1    6 ar
     2    1    2 ar
     3    1   20 1
     4    2    3 ar
     5    2   21 1
     6    3    4 ar
     7    3   22 1
     8    4    5 ar
     9    4    7 1
    10    5    6 ar
    11    5   23 1
    12    6   24 1
    13    7   17 1
    14    7    8 2
    15    8    9 1
    16    8   19 1
    17    9   10 2
    18    9   11 1
    19   11   16 ar
    20   11   12 ar
    21   12   13 ar
    22   12   25 1
    23   13   14 ar
    24   13   26 1
    25   14   15 ar
    26   14   18 1
    27   15   16 ar
    28   15   27 1
    29   16   17 1
    30   18   28 1
    31   19   29 1
@<TRIPOS>MOLECULE
ZINC12794357
   28    30     0     0     0
SMALL
USER_CHARGES
(5Z)-5-[[5-(2,3-dichlorophenyl)-2-furyl]methylene]-2-thioxo-thiazolidin-4-one
@<TRIPOS>ATOM
      1 C1         -7.0395    2.6728    0.9702 C.ar      1 <0>        -0.1006
      2 C2         -5.6756    2.8784    0.9738 C.ar      1 <0>        -0.0703
      3 C3         -4.8709    2.2248    0.0373 C.ar      1 <0>        -0.0193
      4 C4         -5.4539    1.3566   -0.8908 C.ar      1 <0>        -0.0109
      5 C5         -6.8208    1.1560   -0.8787 C.ar      1 <0>        -0.0333
      6 C6         -7.6113    1.8130    0.0492 C.ar      1 <0>        -0.0805
      7 Cl1        -7.5486    0.0790   -2.0293 Cl        1 <0>        -0.0346
      8 Cl2        -4.4633    0.5329   -2.0543 Cl        1 <0>        -0.0246
      9 C7         -3.4119    2.4450    0.0315 C.2       1 <0>         0.0767
     10 C8         -2.7841    3.6699    0.0352 C.2       1 <0>        -0.1880
     11 C9         -1.4087    3.4239    0.0273 C.2       1 <0>        -0.1084
     12 C10        -1.2481    2.0499    0.0191 C.2       1 <0>        -0.0443
     13 O1         -2.4722    1.4820    0.0160 O.3       1 <0>        -0.1385
     14 C11        -0.0164    1.3609    0.0095 C.2       1 <0>         0.1318
     15 C12         0.0021   -0.0041    0.0020 C.2       1 <0>        -0.2616
     16 C13         1.1162   -0.8975   -0.0193 C.2       1 <0>         0.5467
     17 O2          2.2586   -0.4755   -0.0339 O.2       1 <0>        -0.4659
     18 N1          0.8701   -2.1961   -0.0177 N.am      1 <0>        -0.6310
     19 C14        -0.3978   -2.6639   -0.0086 C.2       1 <0>         0.2697
     20 S1         -0.9425   -4.2870   -0.0119 S.2       1 <0>        -0.3227
     21 S2         -1.3615   -1.1599    0.0082 S.3       1 <0>         0.1043
     22 H1         -7.6625    3.1810    1.6913 H         1 <0>         0.1500
     23 H2         -5.2310    3.5466    1.6965 H         1 <0>         0.1478
     24 H3         -8.6794    1.6531    0.0544 H         1 <0>         0.1502
     25 H4         -3.2637    4.6375    0.0431 H         1 <0>         0.1671
     26 H5         -0.6222    4.1641    0.0279 H         1 <0>         0.1714
     27 H6          0.9114    1.9136    0.0036 H         1 <0>         0.1885
     28 H7          1.6105   -2.8227   -0.0278 H         1 <0>         0.4304
@<TRIPOS>BOND
     1    1    6 ar
     2    1    2 ar
     3    1   22 1
     4    2    3 ar
     5    2   23 1
     6    3    4 ar
     7    3    9 1
     8    4    5 ar
     9    4    8 1
    10    5    6 ar
    11    5    7 1
    12    6   24 1
    13    9   13 1
    14    9   10 2
    15   10   11 1
    16   10   25 1
    17   11   12 2
    18   11   26 1
    19   12   13 1
    20   12   14 1
    21   14   15 2
    22   14   27 1
    23   15   21 1
    24   15   16 1
    25   16   17 2
    26   16   18 am
    27   18   19 1
    28   18   28 1
    29   19   20 2
    30   19   21 1
@<TRIPOS>MOLECULE
ZINC13382258
   28    30     0     0     0
SMALL
USER_CHARGES
(5Z)-5-[[5-(3,4-dichlorophenyl)-2-furyl]methylene]-2-thioxo-thiazolidin-4-one
@<TRIPOS>ATOM
      1 C1          3.8805    6.7316    0.0023 C.ar      1 <0>        -0.0752
      2 C2          4.1497    8.0842    0.0075 C.ar      1 <0>        -0.0936
      3 C3          5.4596    8.5329   -0.0023 C.ar      1 <0>        -0.0181
      4 C4          6.5088    7.6268   -0.0174 C.ar      1 <0>        -0.0308
      5 C5          6.2529    6.2710   -0.0160 C.ar      1 <0>        -0.0696
      6 C6          4.9328    5.8127   -0.0124 C.ar      1 <0>        -0.0190
      7 C7          4.6514    4.3642   -0.0181 C.2       1 <0>         0.0839
      8 C8          5.5900    3.3711   -0.0327 C.2       1 <0>        -0.1949
      9 C9          4.9028    2.1547   -0.0277 C.2       1 <0>        -0.1049
     10 C10         3.5530    2.4593   -0.0187 C.2       1 <0>        -0.0430
     11 O1          3.4285    3.8033   -0.0098 O.3       1 <0>        -0.1497
     12 C11         2.4925    1.5281   -0.0136 C.2       1 <0>         0.1324
     13 C12         1.1997    1.9660    0.0012 C.2       1 <0>        -0.2600
     14 C13        -0.0144    1.2138    0.0087 C.2       1 <0>         0.5462
     15 O2          0.0021   -0.0041    0.0020 O.2       1 <0>        -0.4648
     16 N1         -1.1564    1.8791    0.0176 N.am      1 <0>        -0.6307
     17 C14        -1.1742    3.2304    0.0307 C.2       1 <0>         0.2721
     18 S1         -2.5225    4.2853    0.0493 S.2       1 <0>        -0.3199
     19 S2          0.5651    3.6371    0.0163 S.3       1 <0>         0.0947
     20 Cl1         8.1478    8.1991   -0.0296 Cl        1 <0>        -0.0337
     21 Cl2         5.7894   10.2373    0.0038 Cl        1 <0>        -0.0348
     22 H1          2.8583    6.3834    0.0093 H         1 <0>         0.1486
     23 H2          3.3368    8.7952    0.0189 H         1 <0>         0.1536
     24 H3          7.0707    5.5657   -0.0225 H         1 <0>         0.1518
     25 H4          6.6620    3.5020   -0.0418 H         1 <0>         0.1668
     26 H5          5.3404    1.1673   -0.0321 H         1 <0>         0.1721
     27 H6          2.7039    0.4690   -0.0213 H         1 <0>         0.1893
     28 H7         -1.9942    1.3901    0.0188 H         1 <0>         0.4311
@<TRIPOS>BOND
     1    1    6 ar
     2    1    2 ar
     3    1   22 1
     4    2    3 ar
     5    2   23 1
     6    3    4 ar
     7    3   21 1
     8    4    5 ar
     9    4   20 1
    10    5    6 ar
    11    5   24 1
    12    6    7 1
    13    7   11 1
    14    7    8 2
    15    8    9 1
    16    8   25 1
    17    9   10 2
    18    9   26 1
    19   10   11 1
    20   10   12 1
    21   12   13 2
    22   12   27 1
    23   13   19 1
    24   13   14 1
    25   14   15 2
    26   14   16 am
    27   16   17 1
    28   16   28 1
    29   17   18 2
    30   17   19 1
@<TRIPOS>MOLECULE
ZINC13382263
   28    30     0     0     0
SMALL
USER_CHARGES
(5Z)-5-[[5-(3-chlorophenyl)-2-furyl]methylene]-2-thioxo-thiazolidin-4-one
@<TRIPOS>ATOM
      1 C1          1.1275   10.4940    0.0413 C.ar      1 <0>        -0.1028
      2 C2          0.0808    9.5955    0.0413 C.ar      1 <0>        -0.0841
      3 C3          0.3421    8.2232    0.0390 C.ar      1 <0>        -0.0244
      4 C4          1.6637    7.7702    0.0250 C.ar      1 <0>        -0.0850
      5 C5          2.7013    8.6803    0.0194 C.ar      1 <0>        -0.0339
      6 C6          2.4341   10.0395    0.0275 C.ar      1 <0>        -0.0934
      7 Cl1         4.3445    8.1206    0.0015 Cl        1 <0>        -0.0545
      8 C7         -0.7728    7.2563    0.0451 C.2       1 <0>         0.0855
      9 C8         -2.1016    7.5740    0.0586 C.2       1 <0>        -0.1981
     10 C9         -2.8127    6.3712    0.0592 C.2       1 <0>        -0.1086
     11 C10        -1.8751    5.3538    0.0460 C.2       1 <0>        -0.0439
     12 O1         -0.6484    5.9166    0.0435 O.3       1 <0>        -0.1517
     13 C11        -2.1528    3.9698    0.0419 C.2       1 <0>         0.1222
     14 C12        -1.1281    3.0682    0.0284 C.2       1 <0>        -0.2564
     15 C13        -1.1732    1.5967    0.0164 C.2       1 <0>         0.5468
     16 O2         -2.2292    0.9900    0.0185 O.2       1 <0>        -0.4600
     17 N1         -0.0111    0.9658    0.0074 N.am      1 <0>        -0.6291
     18 C14         1.1564    1.6413   -0.0002 C.2       1 <0>         0.2707
     19 S1          2.7490    1.0134   -0.0182 S.2       1 <0>        -0.3220
     20 S2          0.6371    3.3498    0.0133 S.3       1 <0>         0.1025
     21 H1          0.9264   11.5551    0.0476 H         1 <0>         0.1436
     22 H2         -0.9386    9.9522    0.0472 H         1 <0>         0.1388
     23 H3          1.8729    6.7107    0.0183 H         1 <0>         0.1423
     24 H4          3.2495   10.7477    0.0234 H         1 <0>         0.1410
     25 H5         -2.5232    8.5682    0.0668 H         1 <0>         0.1657
     26 H6         -3.8867    6.2577    0.0678 H         1 <0>         0.1704
     27 H7         -3.1760    3.6243    0.0494 H         1 <0>         0.1876
     28 H8          0.0021   -0.0041    0.0020 H         1 <0>         0.4310
@<TRIPOS>BOND
     1    1    6 ar
     2    1    2 ar
     3    1   21 1
     4    2    3 ar
     5    2   22 1
     6    3    4 ar
     7    3    8 1
     8    4    5 ar
     9    4   23 1
    10    5    6 ar
    11    5    7 1
    12    6   24 1
    13    8   12 1
    14    8    9 2
    15    9   10 1
    16    9   25 1
    17   10   11 2
    18   10   26 1
    19   11   12 1
    20   11   13 1
    21   13   14 2
    22   13   27 1
    23   14   20 1
    24   14   15 1
    25   15   16 2
    26   15   17 am
    27   17   18 1
    28   17   28 1
    29   18   19 2
    30   18   20 1
@<TRIPOS>MOLECULE
ZINC01260255
   27    29     0     0     0
SMALL
USER_CHARGES
(5Z)-5-[[5-(3,5-dichlorophenyl)-2-furyl]methylene]-2-thioxo-thiazolidin-4-one
@<TRIPOS>ATOM
      1 C1          1.9578   -4.2665   -0.0381 C.2       1 <0>        -0.1791
      2 C2          2.3757   -2.9332   -0.0413 C.2       1 <0>        -0.1750
      3 C3          1.2505   -2.1584   -0.0210 C.2       1 <0>         0.0195
      4 O1          0.1718   -2.9624   -0.0150 O.3       1 <0>        -0.1381
      5 C4          0.5743   -4.2506   -0.0252 C.2       1 <0>         0.0358
      6 C5         -0.2683   -5.3831   -0.0227 C.2       1 <0>        -0.0041
      7 C6         -1.6240   -5.2249   -0.0094 C.2       1 <0>        -0.1757
      8 C7         -2.6875   -6.2430   -0.0103 C.2       1 <0>         0.5256
      9 O2         -2.4317   -7.4337   -0.0242 O.3       1 <0>        -0.4977
     10 N1         -3.9338   -5.8016    0.0083 N.2       1 <0>        -0.6482
     11 C8         -4.2131   -4.4820    0.0168 C.2       1 <0>         0.3835
     12 S1         -5.7454   -3.7187    0.0343 S.2       1 <0>        -0.5514
     13 S2         -2.5960   -3.7247    0.0061 S.3       1 <0>        -0.1315
     14 C9          1.2230   -0.6829   -0.0133 C.ar      1 <0>         0.0180
     15 C10         0.0021   -0.0041    0.0020 C.ar      1 <0>        -0.0870
     16 C11        -0.0166    1.3762    0.0096 C.ar      1 <0>        -0.0178
     17 C12         1.1713    2.0879    0.0021 C.ar      1 <0>        -0.1021
     18 C13         2.3849    1.4212   -0.0130 C.ar      1 <0>        -0.0205
     19 C14         2.4177    0.0412   -0.0208 C.ar      1 <0>        -0.0902
     20 Cl1         3.8684    2.3229   -0.0223 Cl        1 <0>        -0.0544
     21 Cl2        -1.5328    2.2218    0.0214 Cl        1 <0>        -0.0463
     22 H1          2.5921   -5.1406   -0.0484 H         1 <0>         0.1599
     23 H2          3.3966   -2.5812   -0.0550 H         1 <0>         0.1549
     24 H3          0.1675   -6.3930   -0.0315 H         1 <0>         0.1772
     25 H4         -0.9251   -0.5579    0.0082 H         1 <0>         0.1525
     26 H5          1.1511    3.1677    0.0077 H         1 <0>         0.1467
     27 H6          3.3649   -0.4776   -0.0322 H         1 <0>         0.1458
@<TRIPOS>BOND
     1    1    5 2
     2    1    2 1
     3    1   22 1
     4    2    3 2
     5    2   23 1
     6    3    4 1
     7    3   14 1
     8    4    5 1
     9    5    6 1
    10    6    7 2
    11    6   24 1
    12    7   13 1
    13    7    8 1
    14    8    9 1
    15    8   10 2
    16   10   11 1
    17   11   12 2
    18   11   13 1
    19   14   19 ar
    20   14   15 ar
    21   15   16 ar
    22   15   25 1
    23   16   17 ar
    24   16   21 1
    25   17   18 ar
    26   17   26 1
    27   18   19 ar
    28   18   20 1
    29   19   27 1
@<TRIPOS>MOLECULE
ZINC01260255
   28    30     0     0     0
SMALL
USER_CHARGES
(5Z)-5-[[5-(3,5-dichlorophenyl)-2-furyl]methylene]-2-thioxo-thiazolidin-4-one
@<TRIPOS>ATOM
      1 C1          1.9578   -4.2665   -0.0381 C.2       1 <0>        -0.1117
      2 C2          2.3757   -2.9332   -0.0413 C.2       1 <0>        -0.1907
      3 C3          1.2505   -2.1584   -0.0210 C.2       1 <0>         0.0777
      4 O1          0.1718   -2.9624   -0.0150 O.3       1 <0>        -0.1502
      5 C4          0.5743   -4.2506   -0.0252 C.2       1 <0>        -0.0356
      6 C5         -0.2683   -5.3831   -0.0227 C.2       1 <0>         0.1135
      7 C6         -1.6240   -5.2249   -0.0094 C.2       1 <0>        -0.2517
      8 C7         -2.6875   -6.2430   -0.0103 C.2       1 <0>         0.5496
      9 O2         -2.4317   -7.4337   -0.0242 O.2       1 <0>        -0.4620
     10 N1         -3.9338   -5.8016    0.0083 N.am      1 <0>        -0.6442
     11 C8         -4.2131   -4.4820    0.0168 C.2       1 <0>         0.2787
     12 S1         -5.7454   -3.7187    0.0343 S.2       1 <0>        -0.3304
     13 S2         -2.5960   -3.7247    0.0061 S.3       1 <0>         0.0915
     14 C9          1.2230   -0.6829   -0.0133 C.ar      1 <0>        -0.0062
     15 C10         0.0021   -0.0041    0.0020 C.ar      1 <0>        -0.0819
     16 C11        -0.0166    1.3762    0.0096 C.ar      1 <0>        -0.0212
     17 C12         1.1713    2.0879    0.0021 C.ar      1 <0>        -0.0879
     18 C13         2.3849    1.4212   -0.0130 C.ar      1 <0>        -0.0216
     19 C14         2.4177    0.0412   -0.0208 C.ar      1 <0>        -0.0786
     20 Cl1         3.8684    2.3229   -0.0223 Cl        1 <0>        -0.0416
     21 Cl2        -1.5328    2.2218    0.0214 Cl        1 <0>        -0.0400
     22 H1          2.5921   -5.1406   -0.0484 H         1 <0>         0.1714
     23 H2          3.3966   -2.5812   -0.0550 H         1 <0>         0.1665
     24 H3          0.1675   -6.3930   -0.0315 H         1 <0>         0.1932
     25 H4         -0.9251   -0.5579    0.0082 H         1 <0>         0.1494
     26 H5          1.1511    3.1677    0.0077 H         1 <0>         0.1520
     27 H6          3.3649   -0.4776   -0.0322 H         1 <0>         0.1496
     28 H7         -4.7702   -6.5160    0.0172 H         1 <0>         0.4623
@<TRIPOS>BOND
     1    1    5 2
     2    1    2 1
     3    1   22 1
     4    2    3 2
     5    2   23 1
     6    3    4 1
     7    3   14 1
     8    4    5 1
     9    5    6 1
    10    6    7 2
    11    6   24 1
    12    7   13 1
    13    7    8 1
    14    8    9 2
    15    8   10 am
    16   10   11 1
    17   10   28 1
    18   11   12 2
    19   11   13 1
    20   14   19 ar
    21   14   15 ar
    22   15   16 ar
    23   15   25 1
    24   16   17 ar
    25   16   21 1
    26   17   18 ar
    27   17   26 1
    28   18   19 ar
    29   18   20 1
    30   19   27 1
@<TRIPOS>MOLECULE
ZINC04136163
   61    62     0     0     0
SMALL
USER_CHARGES
6-[5-[(4-hexoxy-3-methoxy-phenyl)methylene]-4-oxo-2-thioxo-thiazolidin-3-yl]hexanoic acid
@<TRIPOS>ATOM
      1 C1         -0.3852    0.7983   -4.9983 C.3       1 <0>        -0.1543
      2 C2         -1.1387    1.1868   -3.7247 C.3       1 <0>        -0.1262
      3 C3         -0.2341    0.9685   -2.5102 C.3       1 <0>        -0.1195
      4 C4         -0.9876    1.3570   -1.2366 C.3       1 <0>        -0.1180
      5 C5         -0.0830    1.1387   -0.0222 C.3       1 <0>        -0.1183
      6 C6         -0.8365    1.5272    1.2515 C.3       1 <0>         0.0530
      7 O1          0.0084    1.3233    2.3858 O.3       1 <0>        -0.2974
      8 C7         -0.5123    1.6224    3.6044 C.ar      1 <0>         0.1365
      9 C8         -1.8114    2.1025    3.7030 C.ar      1 <0>        -0.1738
     10 C9         -2.3453    2.4076    4.9357 C.ar      1 <0>        -0.0744
     11 C10        -1.5769    2.2336    6.0932 C.ar      1 <0>        -0.0971
     12 C11        -0.2669    1.7494    5.9923 C.ar      1 <0>        -0.1323
     13 C12         0.2576    1.4409    4.7526 C.ar      1 <0>         0.0975
     14 O2          1.5274    0.9647    4.6512 O.3       1 <0>        -0.3026
     15 C13         2.2589    0.8034    5.8682 C.3       1 <0>         0.0222
     16 C14        -2.1431    2.5574    7.4087 C.2       1 <0>         0.0883
     17 C15        -3.4614    2.8598    7.5244 C.2       1 <0>        -0.2413
     18 C16        -4.2148    3.3532    8.6947 C.2       1 <0>         0.5441
     19 O3         -3.6728    3.5536    9.7659 O.2       1 <0>        -0.4528
     20 N1         -5.5074    3.5699    8.5188 N.am      1 <0>        -0.5174
     21 C17        -6.1054    3.3398    7.3322 C.2       1 <0>         0.2623
     22 S1         -7.7520    3.5491    6.9131 S.2       1 <0>        -0.3340
     23 S2         -4.7642    2.7628    6.3042 S.3       1 <0>         0.0659
     24 C18        -6.3092    4.0656    9.6403 C.3       1 <0>         0.0812
     25 C19        -6.8640    2.8807   10.4335 C.3       1 <0>        -0.1293
     26 C20        -7.7014    3.3984   11.6047 C.3       1 <0>        -0.1125
     27 C21        -8.2562    2.2135   12.3979 C.3       1 <0>        -0.0967
     28 C22        -9.0936    2.7311   13.5692 C.3       1 <0>        -0.1575
     29 C23        -9.6400    1.5641   14.3505 C.2       1 <0>         0.4574
     30 O4         -9.3858    0.4343   14.0059 O.co2     1 <0>        -0.6424
     31 H1          0.5078    1.4158   -5.0948 H         1 <0>         0.0534
     32 H2         -0.0969   -0.2515   -4.9440 H         1 <0>         0.0537
     33 H3         -1.0297    0.9538   -5.8635 H         1 <0>         0.0537
     34 H4         -2.0318    0.5693   -3.6282 H         1 <0>         0.0618
     35 H5         -1.4270    2.2366   -3.7790 H         1 <0>         0.0614
     36 H6          0.6589    1.5860   -2.6067 H         1 <0>         0.0633
     37 H7          0.0542   -0.0813   -2.4559 H         1 <0>         0.0636
     38 H8         -1.8806    0.7395   -1.1401 H         1 <0>         0.0665
     39 H9         -1.2759    2.4068   -1.2909 H         1 <0>         0.0660
     40 H10         0.2053    0.0890    0.0321 H         1 <0>         0.0752
     41 H11         0.8100    1.7562   -0.1186 H         1 <0>         0.0747
     42 H12        -1.1248    2.5770    1.1972 H         1 <0>         0.0660
     43 H13        -1.7295    0.9097    1.3480 H         1 <0>         0.0667
     44 H14        -2.4048    2.2374    2.8108 H         1 <0>         0.1459
     45 H15        -3.3560    2.7812    5.0092 H         1 <0>         0.1357
     46 H16         0.3301    1.6132    6.8820 H         1 <0>         0.1478
     47 H17         3.2538    0.4176    5.6457 H         1 <0>         0.1037
     48 H18         2.3467    1.7671    6.3698 H         1 <0>         0.0577
     49 H19         1.7342    0.1024    6.5173 H         1 <0>         0.0583
     50 H20        -1.5108    2.5550    8.2842 H         1 <0>         0.1635
     51 H21        -5.6847    4.6779   10.2908 H         1 <0>         0.1037
     52 H22        -7.1351    4.6662    9.2590 H         1 <0>         0.1131
     53 H23        -7.4885    2.2685    9.7830 H         1 <0>         0.0736
     54 H24        -6.0382    2.2801   10.8148 H         1 <0>         0.0672
     55 H25        -7.0769    4.0106   12.2553 H         1 <0>         0.0613
     56 H26        -8.5272    3.9990   11.2234 H         1 <0>         0.0652
     57 H27        -8.8807    1.6012   11.7474 H         1 <0>         0.0612
     58 H28        -7.4303    1.6129   12.7792 H         1 <0>         0.0590
     59 H29        -8.4691    3.3434   14.2197 H         1 <0>         0.0620
     60 H30        -9.9194    3.3317   13.1879 H         1 <0>         0.0633
     61 O5        -10.4092    1.7798   15.4292 O.co2     1 <0>        -0.7791
@<TRIPOS>BOND
     1    1    2 1
     2    1   31 1
     3    1   32 1
     4    1   33 1
     5    2    3 1
     6    2   34 1
     7    2   35 1
     8    3    4 1
     9    3   36 1
    10    3   37 1
    11    4    5 1
    12    4   38 1
    13    4   39 1
    14    5    6 1
    15    5   40 1
    16    5   41 1
    17    6    7 1
    18    6   42 1
    19    6   43 1
    20    7    8 1
    21    8   13 ar
    22    8    9 ar
    23    9   10 ar
    24    9   44 1
    25   10   11 ar
    26   10   45 1
    27   11   12 ar
    28   11   16 1
    29   12   13 ar
    30   12   46 1
    31   13   14 1
    32   14   15 1
    33   15   47 1
    34   15   48 1
    35   15   49 1
    36   16   17 2
    37   16   50 1
    38   17   23 1
    39   17   18 1
    40   18   19 2
    41   18   20 am
    42   20   21 1
    43   20   24 1
    44   21   22 2
    45   21   23 1
    46   24   25 1
    47   24   51 1
    48   24   52 1
    49   25   26 1
    50   25   53 1
    51   25   54 1
    52   26   27 1
    53   26   55 1
    54   26   56 1
    55   27   28 1
    56   27   57 1
    57   27   58 1
    58   28   29 1
    59   28   59 1
    60   28   60 1
    61   29   30 2
    62   29   61 1
@<TRIPOS>MOLECULE
ZINC05172103
   45    48     0     0     0
SMALL
USER_CHARGES
5-[(4-methoxy-1-naphthyl)methylene]-3-(4-methoxyphenyl)-2-thioxo-thiazolidin-4-one
@<TRIPOS>ATOM
      1 C1        -14.0663   -4.5465   -0.1476 C.3       1 <0>         0.0233
      2 O1        -13.5129   -3.7345   -1.1851 O.3       1 <0>        -0.3110
      3 C2        -12.2398   -3.2910   -1.0090 C.ar      1 <0>         0.1531
      4 C3        -11.6415   -2.4982   -1.9776 C.ar      1 <0>        -0.1392
      5 C4        -10.3485   -2.0475   -1.7993 C.ar      1 <0>        -0.0435
      6 C5         -9.6473   -2.3878   -0.6504 C.ar      1 <0>         0.0523
      7 C6        -10.2446   -3.1855    0.3161 C.ar      1 <0>        -0.0420
      8 C7        -11.5397   -3.6310    0.1394 C.ar      1 <0>        -0.1973
      9 N1         -8.3335   -1.9306   -0.4690 N.am      1 <0>        -0.4731
     10 C8         -8.1270   -0.8007    0.1863 C.2       1 <0>         0.5445
     11 O2         -9.0492   -0.1459    0.6373 O.2       1 <0>        -0.4504
     12 C9         -6.7256   -0.3706    0.3392 C.2       1 <0>        -0.2633
     13 C10        -6.2190    0.7339    0.9525 C.2       1 <0>         0.1121
     14 C11        -4.7920    1.0378    0.8497 C.ar      1 <0>        -0.1467
     15 C12        -4.0116    0.4529   -0.1475 C.ar      1 <0>        -0.0139
     16 C13        -2.6618    0.7402   -0.2457 C.ar      1 <0>        -0.2397
     17 C14        -2.0407    1.6072    0.6292 C.ar      1 <0>         0.1947
     18 C15        -2.7731    2.2272    1.6636 C.ar      1 <0>        -0.0814
     19 C16        -4.1571    1.9619    1.7915 C.ar      1 <0>         0.0190
     20 C17        -4.8878    2.5791    2.8122 C.ar      1 <0>        -0.1294
     21 C18        -4.2594    3.4339    3.6695 C.ar      1 <0>        -0.0807
     22 C19        -2.8991    3.7011    3.5427 C.ar      1 <0>        -0.1297
     23 C20        -2.1589    3.1166    2.5595 C.ar      1 <0>        -0.0714
     24 O3         -0.7150    1.8613    0.4976 O.3       1 <0>        -0.3030
     25 C21        -0.0297    1.1974   -0.5662 C.3       1 <0>         0.0203
     26 S1         -5.8734   -1.7021   -0.4954 S.3       1 <0>         0.0751
     27 C22        -7.3088   -2.6568   -0.9606 C.2       1 <0>         0.2646
     28 S2         -7.3697   -4.1352   -1.8218 S.2       1 <0>        -0.3238
     29 H1        -13.4584   -5.4427   -0.0243 H         1 <0>         0.0598
     30 H2        -14.0785   -3.9844    0.7862 H         1 <0>         0.0587
     31 H3        -15.0842   -4.8316   -0.4133 H         1 <0>         0.1048
     32 H4        -12.1872   -2.2333   -2.8711 H         1 <0>         0.1440
     33 H5         -9.8827   -1.4307   -2.5535 H         1 <0>         0.1336
     34 H6         -9.6980   -3.4542    1.2080 H         1 <0>         0.1289
     35 H7        -12.0061   -4.2475    0.8935 H         1 <0>         0.1402
     36 H8         -6.8708    1.3859    1.5151 H         1 <0>         0.1620
     37 H9         -4.4653   -0.2311   -0.8495 H         1 <0>         0.1373
     38 H10        -2.0798    0.2744   -1.0272 H         1 <0>         0.1408
     39 H11        -5.9436    2.3796    2.9212 H         1 <0>         0.1340
     40 H12        -4.8246    3.9094    4.4574 H         1 <0>         0.1314
     41 H13        -2.4236    4.3813    4.2338 H         1 <0>         0.1307
     42 H14        -1.1043    3.3328    2.4726 H         1 <0>         0.1375
     43 H15        -0.1093    0.1186   -0.4324 H         1 <0>         0.0645
     44 H16         1.0208    1.4880   -0.5589 H         1 <0>         0.1085
     45 H17        -0.4780    1.4794   -1.5190 H         1 <0>         0.0639
@<TRIPOS>BOND
     1    1    2 1
     2    1   29 1
     3    1   30 1
     4    1   31 1
     5    2    3 1
     6    3    8 ar
     7    3    4 ar
     8    4    5 ar
     9    4   32 1
    10    5    6 ar
    11    5   33 1
    12    6    7 ar
    13    6    9 1
    14    7    8 ar
    15    7   34 1
    16    8   35 1
    17    9   27 1
    18    9   10 am
    19   10   11 2
    20   10   12 1
    21   12   13 2
    22   12   26 1
    23   13   14 1
    24   13   36 1
    25   14   19 ar
    26   14   15 ar
    27   15   16 ar
    28   15   37 1
    29   16   17 ar
    30   16   38 1
    31   17   18 ar
    32   17   24 1
    33   18   23 ar
    34   18   19 ar
    35   19   20 ar
    36   20   21 ar
    37   20   39 1
    38   21   22 ar
    39   21   40 1
    40   22   23 ar
    41   22   41 1
    42   23   42 1
    43   24   25 1
    44   25   43 1
    45   25   44 1
    46   25   45 1
    47   26   27 1
    48   27   28 2
@<TRIPOS>MOLECULE
ZINC13661921
   37    39     0     0     0
SMALL
USER_CHARGES
(5Z)-5-[(4-hydroxy-3-methoxy-phenyl)methylene]-3-(4-hydroxyphenyl)-2-thioxo-thiazolidin-4-one
@<TRIPOS>ATOM
      1 C1         10.8084    4.5698   -1.8623 C.3       1 <0>         0.0189
      2 O1         11.4325    5.5058   -0.9811 O.3       1 <0>        -0.3011
      3 C2         10.8034    5.7576    0.1980 C.ar      1 <0>         0.1073
      4 C3          9.6190    5.1147    0.4995 C.ar      1 <0>        -0.1713
      5 C4          8.9719    5.3800    1.7126 C.ar      1 <0>        -0.0753
      6 C5          9.5355    6.2877    2.6177 C.ar      1 <0>        -0.0926
      7 C6         10.7198    6.9205    2.3102 C.ar      1 <0>        -0.1105
      8 C7         11.3576    6.6605    1.1046 C.ar      1 <0>         0.1086
      9 O2         12.5257    7.2875    0.8075 O.3       1 <0>        -0.4826
     10 C8          7.7096    4.7038    2.0373 C.2       1 <0>         0.0995
     11 C9          6.9188    4.2280    1.0417 C.2       1 <0>        -0.2438
     12 C10         5.7043    3.3925    1.1223 C.2       1 <0>         0.5432
     13 O3          5.2563    3.0171    2.1900 O.2       1 <0>        -0.4426
     14 N1          5.1276    3.0728   -0.0240 N.am      1 <0>        -0.4755
     15 C11         5.6300    3.4869   -1.2050 C.2       1 <0>         0.2631
     16 S1          5.0369    3.1757   -2.7805 S.2       1 <0>        -0.3096
     17 S2          7.0618    4.4410   -0.7275 S.3       1 <0>         0.0735
     18 C12         3.9703    2.2802   -0.0115 C.ar      1 <0>         0.0777
     19 C13         2.7466    2.8323   -0.3653 C.ar      1 <0>        -0.0627
     20 C14         1.6078    2.0516   -0.3533 C.ar      1 <0>        -0.1326
     21 C15         1.6863    0.7155    0.0119 C.ar      1 <0>         0.1329
     22 C16         2.9079    0.1647    0.3711 C.ar      1 <0>        -0.1347
     23 C17         4.0482    0.9433    0.3544 C.ar      1 <0>        -0.0672
     24 O4          0.5648   -0.0529    0.0231 O.3       1 <0>        -0.4956
     25 H1         11.4119    4.4612   -2.7635 H         1 <0>         0.1089
     26 H2         10.7218    3.6041   -1.3645 H         1 <0>         0.0580
     27 H3          9.8155    4.9303   -2.1313 H         1 <0>         0.0603
     28 H4          9.1909    4.4121   -0.2002 H         1 <0>         0.1440
     29 H5          9.0416    6.4919    3.5562 H         1 <0>         0.1432
     30 H6         11.1536    7.6204    3.0090 H         1 <0>         0.1481
     31 H7         13.3139    6.8106    1.1015 H         1 <0>         0.3948
     32 H8          7.4102    4.5850    3.0681 H         1 <0>         0.1694
     33 H9          2.6854    3.8724   -0.6497 H         1 <0>         0.1329
     34 H10         0.6559    2.4810   -0.6286 H         1 <0>         0.1429
     35 H11         2.9677   -0.8743    0.6596 H         1 <0>         0.1419
     36 H12         4.9998    0.5133    0.6301 H         1 <0>         0.1304
     37 H13         0.3839   -0.4972   -0.8165 H         1 <0>         0.3983
@<TRIPOS>BOND
     1    1    2 1
     2    1   25 1
     3    1   26 1
     4    1   27 1
     5    2    3 1
     6    3    8 ar
     7    3    4 ar
     8    4    5 ar
     9    4   28 1
    10    5    6 ar
    11    5   10 1
    12    6    7 ar
    13    6   29 1
    14    7    8 ar
    15    7   30 1
    16    8    9 1
    17    9   31 1
    18   10   11 2
    19   10   32 1
    20   11   17 1
    21   11   12 1
    22   12   13 2
    23   12   14 am
    24   14   15 1
    25   14   18 1
    26   15   16 2
    27   15   17 1
    28   18   23 ar
    29   18   19 ar
    30   19   20 ar
    31   19   33 1
    32   20   21 ar
    33   20   34 1
    34   21   22 ar
    35   21   24 1
    36   22   23 ar
    37   22   35 1
    38   23   36 1
    39   24   37 1
@<TRIPOS>MOLECULE
ZINC12032274
   37    39     0     0     0
SMALL
USER_CHARGES
4-[(Z)-[3-(4-methoxyphenyl)-4-oxo-2-thioxo-thiazolidin-5-ylidene]methyl]benzaldehyde
@<TRIPOS>ATOM
      1 C1          6.4192   -5.1554   -3.1018 C.3       1 <0>         0.0231
      2 O1          6.1648   -4.6983   -1.7720 O.3       1 <0>        -0.3109
      3 C2          5.0112   -4.0089   -1.5664 C.ar      1 <0>         0.1537
      4 C3          4.7023   -3.5364   -0.2991 C.ar      1 <0>        -0.1408
      5 C4          3.5305   -2.8365   -0.0897 C.ar      1 <0>        -0.0438
      6 C5          2.6618   -2.6053   -1.1476 C.ar      1 <0>         0.0462
      7 C6          2.9689   -3.0830   -2.4144 C.ar      1 <0>        -0.0376
      8 C7          4.1432   -3.7786   -2.6238 C.ar      1 <0>        -0.1967
      9 N1          1.4713   -1.8944   -0.9354 N.am      1 <0>        -0.4708
     10 C8          1.5292   -0.5954   -0.6939 C.2       1 <0>         0.5431
     11 O2          2.5885    0.0012   -0.6512 O.2       1 <0>        -0.4414
     12 C9          0.2368    0.0939   -0.4733 C.2       1 <0>        -0.2336
     13 C10        -0.0121    1.4002   -0.2046 C.2       1 <0>         0.0807
     14 C11        -1.3939    1.8981   -0.1970 C.ar      1 <0>        -0.0667
     15 C12        -2.4365    1.0784   -0.6487 C.ar      1 <0>        -0.1013
     16 C13        -3.7211    1.5398   -0.6374 C.ar      1 <0>        -0.0634
     17 C14        -3.9958    2.8362   -0.1839 C.ar      1 <0>        -0.1638
     18 C15        -2.9530    3.6576    0.2632 C.ar      1 <0>        -0.0635
     19 C16        -1.6689    3.1949    0.2567 C.ar      1 <0>        -0.0875
     20 C17        -5.3786    3.3347   -0.1767 C.2       1 <0>         0.3784
     21 O3         -5.6166    4.4571    0.2163 O.2       1 <0>        -0.4487
     22 S1         -0.9053   -1.2677   -0.6663 S.3       1 <0>         0.0848
     23 C18         0.2944   -2.5500   -0.9894 C.2       1 <0>         0.2524
     24 S2          0.0171   -4.2115   -1.2951 S.2       1 <0>        -0.3126
     25 H1          5.6182   -5.8248   -3.4154 H         1 <0>         0.0604
     26 H2          6.4642   -4.3011   -3.7772 H         1 <0>         0.0589
     27 H3          7.3694   -5.6890   -3.1270 H         1 <0>         0.1050
     28 H4          5.3782   -3.7162    0.5238 H         1 <0>         0.1441
     29 H5          3.2898   -2.4693    0.8971 H         1 <0>         0.1331
     30 H6          2.2913   -2.9073   -3.2368 H         1 <0>         0.1303
     31 H7          4.3840   -4.1470   -3.6100 H         1 <0>         0.1411
     32 H8          0.8061    2.0750   -0.0007 H         1 <0>         0.1683
     33 H9         -2.2242    0.0804   -1.0026 H         1 <0>         0.1341
     34 H10        -4.5253    0.9066   -0.9822 H         1 <0>         0.1453
     35 H11        -3.1651    4.6572    0.6129 H         1 <0>         0.1437
     36 H12        -0.8649    3.8283    0.6014 H         1 <0>         0.1428
     37 H13        -6.1827    2.7014   -0.5215 H         1 <0>         0.1138
@<TRIPOS>BOND
     1    1    2 1
     2    1   25 1
     3    1   26 1
     4    1   27 1
     5    2    3 1
     6    3    8 ar
     7    3    4 ar
     8    4    5 ar
     9    4   28 1
    10    5    6 ar
    11    5   29 1
    12    6    7 ar
    13    6    9 1
    14    7    8 ar
    15    7   30 1
    16    8   31 1
    17    9   23 1
    18    9   10 am
    19   10   11 2
    20   10   12 1
    21   12   13 2
    22   12   22 1
    23   13   14 1
    24   13   32 1
    25   14   19 ar
    26   14   15 ar
    27   15   16 ar
    28   15   33 1
    29   16   17 ar
    30   16   34 1
    31   17   18 ar
    32   17   20 1
    33   18   19 ar
    34   18   35 1
    35   19   36 1
    36   20   21 2
    37   20   37 1
    38   22   23 1
    39   23   24 2
@<TRIPOS>MOLECULE
ZINC02892122
   33    35     0     0     0
SMALL
USER_CHARGES
5-[(3,4-dihydroxyphenyl)methylene]-3-phenyl-2-thioxo-thiazolidin-4-one
@<TRIPOS>ATOM
      1 C1          9.9364    0.9807   -0.7393 C.ar      1 <0>        -0.0961
      2 C2          9.1747    0.5210    0.3194 C.ar      1 <0>        -0.1087
      3 C3          7.8597    0.9223    0.4513 C.ar      1 <0>        -0.0857
      4 C4          7.3027    1.7881   -0.4803 C.ar      1 <0>         0.0872
      5 C5          8.0683    2.2434   -1.5454 C.ar      1 <0>        -0.0812
      6 C6          9.3843    1.8427   -1.6690 C.ar      1 <0>        -0.1068
      7 N1          5.9689    2.1970   -0.3491 N.am      1 <0>        -0.4756
      8 C7          5.0014    1.3135   -0.5287 C.2       1 <0>         0.5443
      9 O1          5.2394    0.1520   -0.8042 O.2       1 <0>        -0.4452
     10 C8          3.6181    1.8082   -0.3831 C.2       1 <0>        -0.2446
     11 C9          2.4426    1.1417   -0.5126 C.2       1 <0>         0.0929
     12 C10         1.1725    1.8769   -0.4634 C.ar      1 <0>        -0.0954
     13 C11        -0.0410    1.1800   -0.4123 C.ar      1 <0>        -0.0636
     14 C12        -1.2308    1.8725   -0.3667 C.ar      1 <0>        -0.1336
     15 C13        -1.2310    3.2610   -0.3714 C.ar      1 <0>         0.1161
     16 C14        -0.0269    3.9626   -0.4169 C.ar      1 <0>         0.0881
     17 C15         1.1708    3.2772   -0.4681 C.ar      1 <0>        -0.0989
     18 O2         -0.0322    5.3226   -0.4160 O.3       1 <0>        -0.4859
     19 O3         -2.4079    3.9382   -0.3258 O.3       1 <0>        -0.4888
     20 S1          3.9168    3.5244    0.0183 S.3       1 <0>         0.0869
     21 C16         5.7010    3.4812   -0.0365 C.2       1 <0>         0.2515
     22 S2          6.8045    4.7606    0.2399 S.2       1 <0>        -0.3131
     23 H1         10.9644    0.6656   -0.8404 H         1 <0>         0.1333
     24 H2          9.6086   -0.1521    1.0439 H         1 <0>         0.1350
     25 H3          7.2654    0.5632    1.2785 H         1 <0>         0.1250
     26 H4          7.6364    2.9131   -2.2743 H         1 <0>         0.1269
     27 H5          9.9816    2.1997   -2.4949 H         1 <0>         0.1358
     28 H6          2.4415    0.0707   -0.6517 H         1 <0>         0.1690
     29 H7         -0.0440    0.1000   -0.4089 H         1 <0>         0.1455
     30 H8         -2.1662    1.3341   -0.3269 H         1 <0>         0.1461
     31 H9          2.1039    3.8196   -0.5071 H         1 <0>         0.1395
     32 H10        -0.0712    5.7163   -1.2984 H         1 <0>         0.3987
     33 H11        -2.7128    4.1372    0.5700 H         1 <0>         0.4014
@<TRIPOS>BOND
     1    1    6 ar
     2    1    2 ar
     3    1   23 1
     4    2    3 ar
     5    2   24 1
     6    3    4 ar
     7    3   25 1
     8    4    5 ar
     9    4    7 1
    10    5    6 ar
    11    5   26 1
    12    6   27 1
    13    7   21 1
    14    7    8 am
    15    8    9 2
    16    8   10 1
    17   10   11 2
    18   10   20 1
    19   11   12 1
    20   11   28 1
    21   12   17 ar
    22   12   13 ar
    23   13   14 ar
    24   13   29 1
    25   14   15 ar
    26   14   30 1
    27   15   16 ar
    28   15   19 1
    29   16   17 ar
    30   16   18 1
    31   17   31 1
    32   18   32 1
    33   19   33 1
    34   20   21 1
    35   21   22 2
@<TRIPOS>MOLECULE
ZINC03044367
   31    33     0     0     0
SMALL
USER_CHARGES
5-[[5-(2,4-dichlorophenyl)-2-furyl]methylene]-3-methyl-2-thioxo-thiazolidin-4-one
@<TRIPOS>ATOM
      1 C1         -7.2467    0.8111   -4.8119 C.3       1 <0>         0.0520
      2 N1         -6.0547    0.9504   -3.9717 N.am      1 <0>        -0.5257
      3 C2         -6.0376    1.8581   -3.0112 C.2       1 <0>         0.5446
      4 O1         -6.9980    2.5808   -2.8139 O.2       1 <0>        -0.4636
      5 C3         -4.8595    1.9659   -2.2114 C.2       1 <0>        -0.2592
      6 C4         -4.5897    2.8086   -1.1716 C.2       1 <0>         0.1315
      7 C5         -3.3427    2.7416   -0.5146 C.2       1 <0>        -0.0443
      8 C6         -2.9421    3.5327    0.5474 C.2       1 <0>        -0.1075
      9 C7         -1.6463    3.1324    0.8831 C.2       1 <0>        -0.1815
     10 C8         -1.3025    2.1168    0.0197 C.2       1 <0>         0.0729
     11 O2         -2.3332    1.8987   -0.8172 O.3       1 <0>        -0.1436
     12 C9         -0.0169    1.3932    0.0097 C.ar      1 <0>        -0.0257
     13 C10         0.0021   -0.0041    0.0020 C.ar      1 <0>        -0.0616
     14 C11         1.2067   -0.6742   -0.0131 C.ar      1 <0>        -0.1033
     15 C12         2.3975    0.0340   -0.0211 C.ar      1 <0>        -0.0084
     16 C13         2.3872    1.4185   -0.0131 C.ar      1 <0>        -0.1016
     17 C14         1.1882    2.1024    0.0020 C.ar      1 <0>         0.0024
     18 Cl1         1.1765    3.8384    0.0109 Cl        1 <0>        -0.0372
     19 Cl2         3.9096   -0.8186   -0.0407 Cl        1 <0>        -0.0431
     20 S1         -3.8313    0.7023   -2.9473 S.3       1 <0>         0.0879
     21 C15        -4.9890    0.1484   -4.1900 C.2       1 <0>         0.2703
     22 S2         -4.7950   -1.0820   -5.3645 S.2       1 <0>        -0.3302
     23 H1         -7.1588    1.4661   -5.6787 H         1 <0>         0.0878
     24 H2         -7.3375   -0.2227   -5.1453 H         1 <0>         0.1070
     25 H3         -8.1308    1.0863   -4.2367 H         1 <0>         0.0998
     26 H4         -5.3306    3.5264   -0.8521 H         1 <0>         0.1882
     27 H5         -3.5200    4.3100    1.0253 H         1 <0>         0.1713
     28 H6         -1.0312    3.5418    1.6708 H         1 <0>         0.1654
     29 H7         -0.9251   -0.5578    0.0075 H         1 <0>         0.1503
     30 H8          1.2223   -1.7541   -0.0190 H         1 <0>         0.1508
     31 H9          3.3190    1.9644   -0.0191 H         1 <0>         0.1543
@<TRIPOS>BOND
     1    1    2 1
     2    1   23 1
     3    1   24 1
     4    1   25 1
     5    2   21 1
     6    2    3 am
     7    3    4 2
     8    3    5 1
     9    5    6 2
    10    5   20 1
    11    6    7 1
    12    6   26 1
    13    7   11 1
    14    7    8 2
    15    8    9 1
    16    8   27 1
    17    9   10 2
    18    9   28 1
    19   10   11 1
    20   10   12 1
    21   12   17 ar
    22   12   13 ar
    23   13   14 ar
    24   13   29 1
    25   14   15 ar
    26   14   30 1
    27   15   16 ar
    28   15   19 1
    29   16   17 ar
    30   16   31 1
    31   17   18 1
    32   20   21 1
    33   21   22 2
@<TRIPOS>MOLECULE
ZINC01187103
   31    33     0     0     0
SMALL
USER_CHARGES
5-[[5-(3,5-dichlorophenyl)-2-furyl]methylene]-3-methyl-2-thioxo-thiazolidin-4-one
@<TRIPOS>ATOM
      1 C1         -5.0357   -6.7671    0.0181 C.3       1 <0>         0.0504
      2 N1         -3.9338   -5.8016    0.0124 N.am      1 <0>        -0.5242
      3 C2         -2.6874   -6.2431   -0.0026 C.2       1 <0>         0.5449
      4 O1         -2.4316   -7.4338   -0.0116 O.2       1 <0>        -0.4568
      5 C3         -1.6240   -5.2249   -0.0081 C.2       1 <0>        -0.2495
      6 C4         -0.2683   -5.3831   -0.0220 C.2       1 <0>         0.1171
      7 C5          0.5743   -4.2506   -0.0249 C.2       1 <0>        -0.0357
      8 C6          1.9578   -4.2665   -0.0385 C.2       1 <0>        -0.1115
      9 C7          2.3757   -2.9333   -0.0358 C.2       1 <0>        -0.1906
     10 C8          1.2505   -2.1584   -0.0210 C.2       1 <0>         0.0778
     11 O2          0.1719   -2.9624   -0.0087 O.3       1 <0>        -0.1500
     12 C9          1.2230   -0.6829   -0.0133 C.ar      1 <0>        -0.0061
     13 C10         0.0021   -0.0041    0.0020 C.ar      1 <0>        -0.0820
     14 C11        -0.0166    1.3762    0.0096 C.ar      1 <0>        -0.0212
     15 C12         1.1713    2.0879    0.0021 C.ar      1 <0>        -0.0879
     16 C13         2.3849    1.4212   -0.0130 C.ar      1 <0>        -0.0216
     17 C14         2.4177    0.0412   -0.0208 C.ar      1 <0>        -0.0786
     18 Cl1         3.8683    2.3229   -0.0223 Cl        1 <0>        -0.0416
     19 Cl2        -1.5328    2.2218    0.0214 Cl        1 <0>        -0.0401
     20 S1         -2.5959   -3.7248    0.0163 S.3       1 <0>         0.0904
     21 C15        -4.2130   -4.4821    0.0219 C.2       1 <0>         0.2691
     22 S2         -5.7453   -3.7188    0.0414 S.2       1 <0>        -0.3266
     23 H1         -5.2987   -7.0121    1.0471 H         1 <0>         0.0888
     24 H2         -5.9005   -6.3343   -0.4847 H         1 <0>         0.1083
     25 H3         -4.7277   -7.6731   -0.5038 H         1 <0>         0.1000
     26 H4          0.1596   -6.3746   -0.0308 H         1 <0>         0.1880
     27 H5          2.5921   -5.1406   -0.0493 H         1 <0>         0.1715
     28 H6          3.3967   -2.5813   -0.0443 H         1 <0>         0.1666
     29 H7         -0.9251   -0.5579    0.0082 H         1 <0>         0.1494
     30 H8          1.1511    3.1677    0.0081 H         1 <0>         0.1520
     31 H9          3.3649   -0.4776   -0.0322 H         1 <0>         0.1496
@<TRIPOS>BOND
     1    1    2 1
     2    1   23 1
     3    1   24 1
     4    1   25 1
     5    2   21 1
     6    2    3 am
     7    3    4 2
     8    3    5 1
     9    5    6 2
    10    5   20 1
    11    6    7 1
    12    6   26 1
    13    7   11 1
    14    7    8 2
    15    8    9 1
    16    8   27 1
    17    9   10 2
    18    9   28 1
    19   10   11 1
    20   10   12 1
    21   12   17 ar
    22   12   13 ar
    23   13   14 ar
    24   13   29 1
    25   14   15 ar
    26   14   19 1
    27   15   16 ar
    28   15   30 1
    29   16   17 ar
    30   16   18 1
    31   17   31 1
    32   20   21 1
    33   21   22 2
@<TRIPOS>MOLECULE
ZINC12462331
   34    36     0     0     0
SMALL
USER_CHARGES
(5Z)-5-[[5-(3-chloro-4-methyl-phenyl)-2-furyl]methylene]-3-methyl-2-thioxo-thiazolidin-4-one
@<TRIPOS>ATOM
      1 C1          2.4521    3.9355   -0.0002 C.3       1 <0>        -0.1265
      2 C2          1.1547    3.1688    0.0081 C.ar      1 <0>        -0.0562
      3 C3         -0.0488    3.8517    0.0228 C.ar      1 <0>        -0.1067
      4 C4         -1.2400    3.1569    0.0305 C.ar      1 <0>        -0.0784
      5 C5         -1.2305    1.7596    0.0174 C.ar      1 <0>        -0.0324
      6 C6         -0.0126    1.0758    0.0080 C.ar      1 <0>        -0.0790
      7 C7          1.1725    1.7841    0.0004 C.ar      1 <0>        -0.0381
      8 Cl1         2.6878    0.9373   -0.0181 Cl        1 <0>        -0.0525
      9 C8         -2.5016    1.0097    0.0193 C.2       1 <0>         0.0875
     10 C9         -3.7513    1.5617    0.0337 C.2       1 <0>        -0.2000
     11 C10        -4.6677    0.5070    0.0279 C.2       1 <0>        -0.1092
     12 C11        -3.9290   -0.6629    0.0180 C.2       1 <0>        -0.0441
     13 O1         -2.6208   -0.3305    0.0130 O.3       1 <0>        -0.1518
     14 C12        -4.4517   -1.9740    0.0136 C.2       1 <0>         0.1204
     15 C13        -3.6064   -3.0457    0.0037 C.2       1 <0>        -0.2543
     16 C14        -3.9161   -4.4850   -0.0025 C.2       1 <0>         0.5452
     17 O2         -5.0642   -4.8913    0.0012 O.2       1 <0>        -0.4585
     18 N1         -2.8868   -5.3151   -0.0126 N.am      1 <0>        -0.5243
     19 C15        -1.6166   -4.8612   -0.0170 C.2       1 <0>         0.2693
     20 S1         -0.1634   -5.7661   -0.0295 S.2       1 <0>        -0.3306
     21 S2         -1.8193   -3.0871   -0.0131 S.3       1 <0>         0.0921
     22 C16        -3.1314   -6.7595   -0.0187 C.3       1 <0>         0.0506
     23 H1          2.7550    4.1259   -1.0298 H         1 <0>         0.0818
     24 H2          2.3170    4.8838    0.5201 H         1 <0>         0.0760
     25 H3          3.2225    3.3514    0.5032 H         1 <0>         0.0778
     26 H4         -0.0552    4.9317    0.0287 H         1 <0>         0.1428
     27 H5         -2.1782    3.6916    0.0424 H         1 <0>         0.1388
     28 H6          0.0021   -0.0041    0.0020 H         1 <0>         0.1422
     29 H7         -3.9866    2.6157    0.0451 H         1 <0>         0.1651
     30 H8         -5.7446    0.5891    0.0338 H         1 <0>         0.1698
     31 H9         -5.5205   -2.1293    0.0179 H         1 <0>         0.1869
     32 H10        -3.1979   -7.1124   -1.0478 H         1 <0>         0.0885
     33 H11        -2.3117   -7.2690    0.4879 H         1 <0>         0.1081
     34 H12        -4.0667   -6.9718    0.4994 H         1 <0>         0.0997
@<TRIPOS>BOND
     1    1    2 1
     2    1   23 1
     3    1   24 1
     4    1   25 1
     5    2    7 ar
     6    2    3 ar
     7    3    4 ar
     8    3   26 1
     9    4    5 ar
    10    4   27 1
    11    5    6 ar
    12    5    9 1
    13    6    7 ar
    14    6   28 1
    15    7    8 1
    16    9   13 1
    17    9   10 2
    18   10   11 1
    19   10   29 1
    20   11   12 2
    21   11   30 1
    22   12   13 1
    23   12   14 1
    24   14   15 2
    25   14   31 1
    26   15   21 1
    27   15   16 1
    28   16   17 2
    29   16   18 am
    30   18   19 1
    31   18   22 1
    32   19   20 2
    33   19   21 1
    34   22   32 1
    35   22   33 1
    36   22   34 1
@<TRIPOS>MOLECULE
ZINC03870413
   51    54     0     0     0
SMALL
USER_CHARGES

@<TRIPOS>ATOM
      1 C1         -0.0167    1.3824    0.0096 C.ar      1 <0>        -0.1111
      2 C2          1.1697    2.0917    0.0021 C.ar      1 <0>        -0.0659
      3 C3          2.3792    1.4226   -0.0135 C.ar      1 <0>        -0.1117
      4 C4          2.4066    0.0362   -0.0217 C.ar      1 <0>         0.0966
      5 C5          1.2160   -0.6806   -0.0137 C.ar      1 <0>         0.0646
      6 C6          0.0021   -0.0041    0.0020 C.ar      1 <0>         0.0987
      7 O1         -1.1658   -0.7009    0.0099 O.3       1 <0>        -0.4881
      8 O2          1.2387   -2.0413   -0.0217 O.3       1 <0>        -0.4793
      9 O3          3.5971   -0.6212   -0.0380 O.3       1 <0>        -0.4822
     10 C7          1.1446    3.5984    0.0105 C.3       1 <0>         0.1443
     11 H1          0.1709    3.9512   -0.3294 H         1 <0>         0.1023
     12 C8          1.4132    4.1118    1.4309 C.3       1 <0>         0.0650
     13 H2          2.4232    3.8377    1.7358 H         1 <0>         0.1042
     14 C9          1.2714    5.6359    1.4258 C.3       1 <0>        -0.0873
     15 C10         2.0504    6.2145    0.2717 C.ar      1 <0>        -0.1901
     16 C11         2.3697    7.5676    0.2931 C.ar      1 <0>         0.1636
     17 C12         3.0805    8.1340   -0.7521 C.ar      1 <0>        -0.1961
     18 C13         3.4754    7.3482   -1.8246 C.ar      1 <0>         0.1601
     19 C14         3.1596    5.9999   -1.8458 C.ar      1 <0>        -0.1780
     20 C15         2.4473    5.4295   -0.7959 C.ar      1 <0>         0.1584
     21 O4          2.1661    4.1013   -0.8516 O.3       1 <0>        -0.2897
     22 O5          4.1708    7.9004   -2.8533 O.3       1 <0>        -0.4911
     23 O6          1.9825    8.3377    1.3437 O.3       1 <0>        -0.4901
     24 O7          0.4655    3.5421    2.3362 O.3       1 <0>        -0.3276
     25 C16         0.8706    3.3540    3.6075 C.2       1 <0>         0.5158
     26 O8          1.9976    3.6651    3.9384 O.2       1 <0>        -0.4919
     27 C17        -0.0539    2.7705    4.5973 C.ar      1 <0>        -0.1046
     28 C18        -1.3486    2.4069    4.2168 C.ar      1 <0>        -0.0781
     29 C19        -2.2130    1.8604    5.1465 C.ar      1 <0>         0.0876
     30 C20        -1.7950    1.6722    6.4614 C.ar      1 <0>         0.0963
     31 C21        -0.5058    2.0340    6.8434 C.ar      1 <0>         0.0877
     32 C22         0.3649    2.5748    5.9163 C.ar      1 <0>        -0.0735
     33 O9         -0.1010    1.8493    8.1286 O.3       1 <0>        -0.4775
     34 O10        -2.6470    1.1351    7.3735 O.3       1 <0>        -0.4722
     35 O11        -3.4730    1.5063    4.7768 O.3       1 <0>        -0.4781
     36 H3         -0.9596    1.9089    0.0260 H         1 <0>         0.1426
     37 H4          3.3040    1.9803   -0.0197 H         1 <0>         0.1407
     38 H5         -1.5123   -0.8977   -0.8712 H         1 <0>         0.3979
     39 H6          1.2542   -2.4396    0.8593 H         1 <0>         0.3907
     40 H7          3.9506   -0.8164    0.8407 H         1 <0>         0.3909
     41 H8          0.2194    5.9019    1.3230 H         1 <0>         0.0969
     42 H9          1.6571    6.0391    2.3621 H         1 <0>         0.0935
     43 H10         3.3265    9.1854   -0.7322 H         1 <0>         0.1413
     44 H11         3.4673    5.3887   -2.6814 H         1 <0>         0.1441
     45 H12         5.1305    7.8764   -2.7370 H         1 <0>         0.3980
     46 H13         2.6278    8.3752    2.0628 H         1 <0>         0.3962
     47 H14        -1.6735    2.5533    3.1972 H         1 <0>         0.1537
     48 H15         1.3663    2.8508    6.2120 H         1 <0>         0.1533
     49 H16         0.3044    0.9870    8.2932 H         1 <0>         0.3932
     50 H17        -2.6056    0.1706    7.4302 H         1 <0>         0.3925
     51 H18        -3.5492    0.5951    4.4623 H         1 <0>         0.3937
@<TRIPOS>BOND
     1    1    6 ar
     2    1    2 ar
     3    1   36 1
     4    2    3 ar
     5    2   10 1
     6    3    4 ar
     7    3   37 1
     8    4    5 ar
     9    4    9 1
    10    5    6 ar
    11    5    8 1
    12    6    7 1
    13    7   38 1
    14    8   39 1
    15    9   40 1
    16   10   11 1
    17   10   21 1
    18   10   12 1
    19   12   13 1
    20   12   14 1
    21   12   24 1
    22   14   15 1
    23   14   41 1
    24   14   42 1
    25   15   20 ar
    26   15   16 ar
    27   16   17 ar
    28   16   23 1
    29   17   18 ar
    30   17   43 1
    31   18   19 ar
    32   18   22 1
    33   19   20 ar
    34   19   44 1
    35   20   21 1
    36   22   45 1
    37   23   46 1
    38   24   25 1
    39   25   26 2
    40   25   27 1
    41   27   32 ar
    42   27   28 ar
    43   28   29 ar
    44   28   47 1
    45   29   30 ar
    46   29   35 1
    47   30   31 ar
    48   30   34 1
    49   31   32 ar
    50   31   33 1
    51   32   48 1
    52   33   49 1
    53   34   50 1
    54   35   51 1
@<TRIPOS>MOLECULE
ZINC03881558
   32    34     0     0     0
SMALL
USER_CHARGES

@<TRIPOS>ATOM
      1 C1          0.9052   -0.1467    1.0522 C.ar      1 <0>        -0.1565
      2 C2          2.0886    0.5573    1.0482 C.ar      1 <0>        -0.0345
      3 C3          2.3852    1.4179   -0.0128 C.ar      1 <0>        -0.0868
      4 C4          1.4728    1.5594   -1.0699 C.ar      1 <0>         0.1612
      5 C5          0.2873    0.8465   -1.0541 C.ar      1 <0>        -0.1813
      6 C6          0.0026   -0.0050    0.0040 C.ar      1 <0>         0.1466
      7 O1         -1.1619   -0.7032    0.0155 O.3       1 <0>        -0.4954
      8 O2          1.7525    2.3931   -2.1040 O.3       1 <0>        -0.4874
      9 C7          3.6493    2.1731   -0.0211 C.2       1 <0>         0.1454
     10 C8          4.8251    1.4870    0.0631 C.2       1 <0>        -0.0495
     11 C9          6.0501    2.1994    0.0564 C.2       1 <0>         0.4010
     12 O3          7.1217    1.6189    0.1298 O.2       1 <0>        -0.4511
     13 C10         5.9806    3.6663   -0.0431 C.ar      1 <0>        -0.2700
     14 C11         7.1423    4.4494   -0.0571 C.ar      1 <0>         0.2234
     15 C12         7.0356    5.8242   -0.1521 C.ar      1 <0>        -0.2092
     16 C13         5.7833    6.4240   -0.2326 C.ar      1 <0>         0.1991
     17 C14         4.6299    5.6558   -0.2193 C.ar      1 <0>        -0.1847
     18 C15         4.7163    4.2750   -0.1251 C.ar      1 <0>         0.1884
     19 O4          3.6024    3.5130   -0.1169 O.3       1 <0>        -0.1881
     20 O5          5.6898    7.7753   -0.3247 O.3       1 <0>        -0.4870
     21 O6          8.3634    3.8623    0.0225 O.3       1 <0>        -0.4729
     22 O7          4.8218    0.1287    0.1534 O.3       1 <0>        -0.4506
     23 H1          0.6792   -0.8146    1.8703 H         1 <0>         0.1411
     24 H2          2.7870    0.4450    1.8643 H         1 <0>         0.1397
     25 H3         -0.4172    0.9528   -1.8658 H         1 <0>         0.1429
     26 H4         -1.8932   -0.2412    0.4478 H         1 <0>         0.3984
     27 H5          2.1585    1.9544   -2.8642 H         1 <0>         0.3964
     28 H6          7.9268    6.4342   -0.1635 H         1 <0>         0.1509
     29 H7          3.6630    6.1329   -0.2825 H         1 <0>         0.1552
     30 H8          5.6916    8.1087   -1.2324 H         1 <0>         0.4047
     31 H9          8.7464    3.6333   -0.8354 H         1 <0>         0.4032
     32 H10         5.7038   -0.2639    0.2085 H         1 <0>         0.4076
@<TRIPOS>BOND
     1    1    6 ar
     2    1    2 ar
     3    1   23 1
     4    2    3 ar
     5    2   24 1
     6    3    4 ar
     7    3    9 1
     8    4    5 ar
     9    4    8 1
    10    5    6 ar
    11    5   25 1
    12    6    7 1
    13    7   26 1
    14    8   27 1
    15    9   19 1
    16    9   10 2
    17   10   11 1
    18   10   22 1
    19   11   12 2
    20   11   13 1
    21   13   18 ar
    22   13   14 ar
    23   14   15 ar
    24   14   21 1
    25   15   16 ar
    26   15   28 1
    27   16   17 ar
    28   16   20 1
    29   17   18 ar
    30   17   29 1
    31   18   19 1
    32   20   30 1
    33   21   31 1
    34   22   32 1
@<TRIPOS>MOLECULE
ZINC03881558
   31    33     0     0     0
SMALL
USER_CHARGES

@<TRIPOS>ATOM
      1 C1          0.9066   -0.1484    1.0516 C.ar      1 <0>        -0.1572
      2 C2          2.0894    0.5549    1.0479 C.ar      1 <0>        -0.0408
      3 C3          2.3856    1.4179   -0.0130 C.ar      1 <0>        -0.0626
      4 C4          1.4712    1.5611   -1.0698 C.ar      1 <0>         0.1560
      5 C5          0.2858    0.8482   -1.0534 C.ar      1 <0>        -0.1811
      6 C6          0.0026   -0.0049    0.0039 C.ar      1 <0>         0.1305
      7 O1         -1.1617   -0.7029    0.0156 O.3       1 <0>        -0.4978
      8 O2          1.7495    2.3961   -2.1027 O.3       1 <0>        -0.4833
      9 C7          3.6479    2.1718   -0.0213 C.2       1 <0>         0.1128
     10 C8          4.8478    1.4863    0.0634 C.2       1 <0>        -0.0129
     11 C9          6.0531    2.1961    0.0561 C.2       1 <0>         0.3353
     12 C10         6.0031    3.6049   -0.0388 C.2       1 <0>        -0.3332
     13 C11         7.1882    4.3693   -0.0509 C.2       1 <0>         0.2654
     14 C12         7.1183    5.7295   -0.1436 C.2       1 <0>        -0.3752
     15 C13         5.8717    6.3701   -0.2268 C.2       1 <0>         0.3642
     16 O3          5.8143    7.7005   -0.3175 O.2       1 <0>        -0.6621
     17 C14         4.6896    5.6225   -0.2157 C.2       1 <0>        -0.3147
     18 C15         4.7470    4.2452   -0.1223 C.2       1 <0>         0.2123
     19 O4          3.6137    3.5122   -0.1166 O.3       1 <0>        -0.1923
     20 O5          8.3951    3.7542    0.0298 O.3       1 <0>        -0.4485
     21 O6          7.2380    1.5494    0.1382 O.3       1 <0>        -0.5774
     22 O7          4.8545    0.1285    0.1539 O.3       1 <0>        -0.4664
     23 H1          0.6811   -0.8175    1.8688 H         1 <0>         0.1360
     24 H2          2.7885    0.4410    1.8632 H         1 <0>         0.1386
     25 H3         -0.4199    0.9559   -1.8638 H         1 <0>         0.1385
     26 H4         -1.8925   -0.2415    0.4494 H         1 <0>         0.3926
     27 H5          2.1547    1.9586   -2.8640 H         1 <0>         0.3945
     28 H6          8.0256    6.3153   -0.1526 H         1 <0>         0.1174
     29 H7          3.7337    6.1210   -0.2796 H         1 <0>         0.1223
     30 H8          9.1477    4.3612    0.0139 H         1 <0>         0.3841
     31 H9          5.7394   -0.2577    0.2084 H         1 <0>         0.4052
@<TRIPOS>BOND
     1    1    6 ar
     2    1    2 ar
     3    1   23 1
     4    2    3 ar
     5    2   24 1
     6    3    4 ar
     7    3    9 1
     8    4    5 ar
     9    4    8 1
    10    5    6 ar
    11    5   25 1
    12    6    7 1
    13    7   26 1
    14    8   27 1
    15    9   19 1
    16    9   10 2
    17   10   11 1
    18   10   22 1
    19   11   12 2
    20   11   21 1
    21   12   18 1
    22   12   13 1
    23   13   14 2
    24   13   20 1
    25   14   15 1
    26   14   28 1
    27   15   16 2
    28   15   17 1
    29   17   18 2
    30   17   29 1
    31   18   19 1
    32   20   30 1
    33   22   31 1
@<TRIPOS>MOLECULE
ZINC03870412
   51    54     0     0     0
SMALL
USER_CHARGES

@<TRIPOS>ATOM
      1 C1         -0.0167    1.3824    0.0096 C.ar      1 <0>        -0.1232
      2 C2          1.1697    2.0917    0.0021 C.ar      1 <0>        -0.0728
      3 C3          2.3792    1.4226   -0.0135 C.ar      1 <0>        -0.0978
      4 C4          2.4066    0.0362   -0.0217 C.ar      1 <0>         0.0943
      5 C5          1.2160   -0.6806   -0.0137 C.ar      1 <0>         0.0658
      6 C6          0.0021   -0.0041    0.0020 C.ar      1 <0>         0.0986
      7 O1         -1.1658   -0.7009    0.0099 O.3       1 <0>        -0.4875
      8 O2          1.2387   -2.0413   -0.0217 O.3       1 <0>        -0.4804
      9 O3          3.5971   -0.6212   -0.0380 O.3       1 <0>        -0.4833
     10 C7          1.1446    3.5984    0.0105 C.3       1 <0>         0.1463
     11 H1          0.2126    3.9475    0.4550 H         1 <0>         0.1098
     12 C8          1.2611    4.1251   -1.4256 C.3       1 <0>         0.0607
     13 H2          0.4684    3.6972   -2.0393 H         1 <0>         0.1110
     14 C9          1.1215    5.6490   -1.3913 C.3       1 <0>        -0.0887
     15 C10         2.0188    6.2172   -0.3211 C.ar      1 <0>        -0.1934
     16 C11         2.3348    7.5707   -0.3637 C.ar      1 <0>         0.1618
     17 C12         3.1535    8.1275    0.6048 C.ar      1 <0>        -0.1998
     18 C13         3.6597    7.3319    1.6220 C.ar      1 <0>         0.1590
     19 C14         3.3464    5.9836    1.6646 C.ar      1 <0>        -0.1810
     20 C15         2.5265    5.4225    0.6909 C.ar      1 <0>         0.1700
     21 O4          2.2521    4.0938    0.7639 O.3       1 <0>        -0.2919
     22 O5          4.4620    7.8746    2.5751 O.3       1 <0>        -0.4915
     23 O6          1.8385    8.3503   -1.3601 O.3       1 <0>        -0.4908
     24 O7          2.5347    3.7694   -1.9673 O.3       1 <0>        -0.3234
     25 C16         2.6005    3.5753   -3.2991 C.2       1 <0>         0.5152
     26 O8          1.6037    3.7045   -3.9818 O.2       1 <0>        -0.4949
     27 C17         3.8823    3.2060   -3.9281 C.ar      1 <0>        -0.1035
     28 C18         5.0283    3.0514   -3.1432 C.ar      1 <0>        -0.0764
     29 C19         6.2283    2.7053   -3.7353 C.ar      1 <0>         0.0874
     30 C20         6.2961    2.5111   -5.1125 C.ar      1 <0>         0.0957
     31 C21         5.1559    2.6649   -5.8970 C.ar      1 <0>         0.0871
     32 C22         3.9519    3.0043   -5.3093 C.ar      1 <0>        -0.0733
     33 O9          5.2258    2.4749   -7.2418 O.3       1 <0>        -0.4778
     34 O10         7.4772    2.1713   -5.6921 O.3       1 <0>        -0.4725
     35 O11         7.3439    2.5547   -2.9722 O.3       1 <0>        -0.4781
     36 H3         -0.9596    1.9089    0.0260 H         1 <0>         0.1412
     37 H4          3.3040    1.9803   -0.0197 H         1 <0>         0.1453
     38 H5         -1.5123   -0.8977   -0.8712 H         1 <0>         0.3973
     39 H6          1.2542   -2.4396    0.8593 H         1 <0>         0.3921
     40 H7          3.9506   -0.8164    0.8407 H         1 <0>         0.3917
     41 H8          1.4057    6.0611   -2.3595 H         1 <0>         0.0993
     42 H9          0.0865    5.9136   -1.1749 H         1 <0>         0.0973
     43 H10         3.3971    9.1790    0.5682 H         1 <0>         0.1392
     44 H11         3.7408    5.3648    2.4571 H         1 <0>         0.1416
     45 H12         3.9848    8.2124    3.3453 H         1 <0>         0.3966
     46 H13         0.9859    8.7570   -1.1536 H         1 <0>         0.3948
     47 H14         4.9764    3.2026   -2.0751 H         1 <0>         0.1522
     48 H15         3.0669    3.1188   -5.9176 H         1 <0>         0.1531
     49 H16         5.0544    1.5647   -7.5199 H         1 <0>         0.3927
     50 H17         7.6276    1.2177   -5.7487 H         1 <0>         0.3919
     51 H18         7.4749    1.6560   -2.6401 H         1 <0>         0.3928
@<TRIPOS>BOND
     1    1    6 ar
     2    1    2 ar
     3    1   36 1
     4    2    3 ar
     5    2   10 1
     6    3    4 ar
     7    3   37 1
     8    4    5 ar
     9    4    9 1
    10    5    6 ar
    11    5    8 1
    12    6    7 1
    13    7   38 1
    14    8   39 1
    15    9   40 1
    16   10   11 1
    17   10   21 1
    18   10   12 1
    19   12   13 1
    20   12   14 1
    21   12   24 1
    22   14   15 1
    23   14   41 1
    24   14   42 1
    25   15   20 ar
    26   15   16 ar
    27   16   17 ar
    28   16   23 1
    29   17   18 ar
    30   17   43 1
    31   18   19 ar
    32   18   22 1
    33   19   20 ar
    34   19   44 1
    35   20   21 1
    36   22   45 1
    37   23   46 1
    38   24   25 1
    39   25   26 2
    40   25   27 1
    41   27   32 ar
    42   27   28 ar
    43   28   29 ar
    44   28   47 1
    45   29   30 ar
    46   29   35 1
    47   30   31 ar
    48   30   34 1
    49   31   32 ar
    50   31   33 1
    51   32   48 1
    52   33   49 1
    53   34   50 1
    54   35   51 1
@<TRIPOS>MOLECULE
ZINC00039111
   31    33     0     0     0
SMALL
USER_CHARGES

@<TRIPOS>ATOM
      1 C1          0.9742   -0.2756   -0.9644 C.ar      1 <0>        -0.0745
      2 C2          2.1570    0.4328   -0.9701 C.ar      1 <0>        -0.1346
      3 C3          2.3856    1.4156   -0.0177 C.ar      1 <0>         0.1033
      4 C4          1.4202    1.6919    0.9495 C.ar      1 <0>         0.0786
      5 C5          0.2328    0.9864    0.9617 C.ar      1 <0>        -0.0758
      6 C6          0.0021   -0.0041    0.0020 C.ar      1 <0>        -0.0456
      7 C7         -1.2635   -0.7604    0.0100 C.2       1 <0>         0.1403
      8 C8         -2.4368   -0.0754    0.1235 C.2       1 <0>        -0.0467
      9 C9         -3.6626   -0.7880    0.1323 C.2       1 <0>         0.4008
     10 O1         -4.7322   -0.2087    0.2318 O.2       1 <0>        -0.4629
     11 C10        -3.5944   -2.2557    0.0159 C.ar      1 <0>        -0.2366
     12 C11        -4.7512   -3.0365    0.0154 C.ar      1 <0>        -0.0073
     13 C12        -4.6525   -4.3943   -0.0945 C.ar      1 <0>        -0.1753
     14 C13        -3.4042   -5.0031   -0.2055 C.ar      1 <0>         0.1824
     15 C14        -2.2474   -4.2422   -0.2064 C.ar      1 <0>        -0.1738
     16 C15        -2.3310   -2.8613   -0.0960 C.ar      1 <0>         0.1711
     17 O2         -1.2180   -2.0989   -0.1002 O.3       1 <0>        -0.1986
     18 O3         -3.3214   -6.3539   -0.3130 O.3       1 <0>        -0.4899
     19 O4         -2.4315    1.2815    0.2279 O.3       1 <0>        -0.4510
     20 O5          1.6479    2.6559    1.8814 O.3       1 <0>        -0.4836
     21 O6          3.5534    2.1101   -0.0273 O.3       1 <0>        -0.4861
     22 H1          0.7972   -1.0372   -1.7094 H         1 <0>         0.1379
     23 H2          2.9076    0.2220   -1.7175 H         1 <0>         0.1421
     24 H3         -0.5155    1.1990    1.7108 H         1 <0>         0.1431
     25 H4         -5.7208   -2.5688    0.1018 H         1 <0>         0.1490
     26 H5         -5.5471   -4.9994   -0.0951 H         1 <0>         0.1454
     27 H6         -1.2834   -4.7216   -0.2925 H         1 <0>         0.1536
     28 H7         -3.3428   -6.6780   -1.2239 H         1 <0>         0.4038
     29 H8         -3.3122    1.6736    0.3036 H         1 <0>         0.4078
     30 H9          1.3507    3.5371    1.6164 H         1 <0>         0.3905
     31 H10         3.5286    2.9137   -0.5648 H         1 <0>         0.3925
@<TRIPOS>BOND
     1    1    6 ar
     2    1    2 ar
     3    1   22 1
     4    2    3 ar
     5    2   23 1
     6    3    4 ar
     7    3   21 1
     8    4    5 ar
     9    4   20 1
    10    5    6 ar
    11    5   24 1
    12    6    7 1
    13    7   17 1
    14    7    8 2
    15    8    9 1
    16    8   19 1
    17    9   10 2
    18    9   11 1
    19   11   16 ar
    20   11   12 ar
    21   12   13 ar
    22   12   25 1
    23   13   14 ar
    24   13   26 1
    25   14   15 ar
    26   14   18 1
    27   15   16 ar
    28   15   27 1
    29   16   17 1
    30   18   28 1
    31   19   29 1
    32   20   30 1
    33   21   31 1
@<TRIPOS>MOLECULE
ZINC03978503
   50    53     0     0     0
SMALL
USER_CHARGES

@<TRIPOS>ATOM
      1 C1         -0.0167    1.3779    0.0096 C.ar      1 <0>        -0.0710
      2 C2          1.1696    2.0886    0.0021 C.ar      1 <0>        -0.1332
      3 C3          2.3802    1.4154   -0.0130 C.ar      1 <0>         0.0923
      4 C4          2.3990    0.0236   -0.0206 C.ar      1 <0>         0.0809
      5 C5          1.2071   -0.6822   -0.0130 C.ar      1 <0>        -0.1138
      6 C6          0.0021   -0.0041    0.0020 C.ar      1 <0>        -0.0888
      7 C7         -1.2936   -0.7736    0.0102 C.3       1 <0>         0.1463
      8 H1         -1.1302   -1.7631    0.4371 H         1 <0>         0.1070
      9 C8         -1.8224   -0.9103   -1.4233 C.3       1 <0>         0.0610
     10 H2         -1.0636   -1.3761   -2.0520 H         1 <0>         0.1107
     11 C9         -3.0759   -1.7881   -1.3913 C.3       1 <0>        -0.0890
     12 C10        -4.0042   -1.3085   -0.3042 C.ar      1 <0>        -0.1933
     13 C11        -5.3364   -1.7051   -0.3406 C.ar      1 <0>         0.1616
     14 C12        -6.2168   -1.2864    0.6434 C.ar      1 <0>        -0.2002
     15 C13        -5.7673   -0.4690    1.6698 C.ar      1 <0>         0.1586
     16 C14        -4.4409   -0.0726    1.7062 C.ar      1 <0>        -0.1813
     17 C15        -3.5564   -0.4901    0.7171 C.ar      1 <0>         0.1702
     18 O1         -2.2659   -0.0703    0.7846 O.3       1 <0>        -0.2917
     19 O2         -6.6274   -0.0572    2.6380 O.3       1 <0>        -0.4915
     20 O3         -5.7767   -2.5064   -1.3460 O.3       1 <0>        -0.4909
     21 O4         -2.1505    0.3807   -1.9409 O.3       1 <0>        -0.3234
     22 C16        -2.0274    0.5558   -3.2712 C.2       1 <0>         0.5140
     23 O5         -1.6517   -0.3624   -3.9727 O.2       1 <0>        -0.4936
     24 C17        -2.3486    1.8620   -3.8759 C.ar      1 <0>        -0.1023
     25 C18        -2.7754    2.9208   -3.0695 C.ar      1 <0>        -0.0785
     26 C19        -3.0757    4.1438   -3.6389 C.ar      1 <0>         0.0863
     27 C20        -2.9540    4.3216   -5.0146 C.ar      1 <0>         0.0952
     28 C21        -2.5294    3.2683   -5.8204 C.ar      1 <0>         0.0877
     29 C22        -2.2213    2.0451   -5.2556 C.ar      1 <0>        -0.0731
     30 O6         -2.4120    3.4452   -7.1638 O.3       1 <0>        -0.4777
     31 O7         -3.2504    5.5249   -5.5717 O.3       1 <0>        -0.4723
     32 O8         -3.4911    5.1745   -2.8548 O.3       1 <0>        -0.4778
     33 O9          3.5850   -0.6417   -0.0359 O.3       1 <0>        -0.4851
     34 O10         3.5476    2.1129   -0.0209 O.3       1 <0>        -0.4874
     35 H3         -0.9598    1.9038    0.0259 H         1 <0>         0.1390
     36 H4          1.1522    3.1684    0.0077 H         1 <0>         0.1372
     37 H5          1.2190   -1.7621   -0.0189 H         1 <0>         0.1374
     38 H6         -3.5841   -1.7300   -2.3539 H         1 <0>         0.0989
     39 H7         -2.7902   -2.8214   -1.1946 H         1 <0>         0.0968
     40 H8         -7.2509   -1.5961    0.6116 H         1 <0>         0.1390
     41 H9         -4.0917    0.5638    2.5059 H         1 <0>         0.1417
     42 H10        -6.6766   -0.6517    3.3991 H         1 <0>         0.3964
     43 H11        -5.7049   -3.4517   -1.1556 H         1 <0>         0.3947
     44 H12        -2.8707    2.7833   -2.0026 H         1 <0>         0.1528
     45 H13        -1.8875    1.2299   -5.8805 H         1 <0>         0.1534
     46 H14        -1.5394    3.7526   -7.4452 H         1 <0>         0.3929
     47 H15        -2.4976    6.1295   -5.6256 H         1 <0>         0.3917
     48 H16        -2.7726    5.7287   -2.5204 H         1 <0>         0.3921
     49 H17         3.9367   -0.8389    0.8430 H         1 <0>         0.3894
     50 H18         3.8938    2.3101    0.8602 H         1 <0>         0.3905
@<TRIPOS>BOND
     1    1    6 ar
     2    1    2 ar
     3    1   35 1
     4    2    3 ar
     5    2   36 1
     6    3    4 ar
     7    3   34 1
     8    4    5 ar
     9    4   33 1
    10    5    6 ar
    11    5   37 1
    12    6    7 1
    13    7    8 1
    14    7   18 1
    15    7    9 1
    16    9   10 1
    17    9   11 1
    18    9   21 1
    19   11   12 1
    20   11   38 1
    21   11   39 1
    22   12   17 ar
    23   12   13 ar
    24   13   14 ar
    25   13   20 1
    26   14   15 ar
    27   14   40 1
    28   15   16 ar
    29   15   19 1
    30   16   17 ar
    31   16   41 1
    32   17   18 1
    33   19   42 1
    34   20   43 1
    35   21   22 1
    36   22   23 2
    37   22   24 1
    38   24   29 ar
    39   24   25 ar
    40   25   26 ar
    41   25   44 1
    42   26   27 ar
    43   26   32 1
    44   27   28 ar
    45   27   31 1
    46   28   29 ar
    47   28   30 1
    48   29   45 1
    49   30   46 1
    50   31   47 1
    51   32   48 1
    52   33   49 1
    53   34   50 1
@<TRIPOS>MOLECULE
ZINC13659141
   36    38     0     0     0
SMALL
USER_CHARGES
(5Z)-3-(4-hydroxyphenyl)-5-[(4-methoxyphenyl)methylene]-2-thioxo-thiazolidin-4-one
@<TRIPOS>ATOM
      1 C1         -6.1763    2.5912   -0.7138 C.3       1 <0>         0.0211
      2 O1         -5.2426    3.2584    0.1377 O.3       1 <0>        -0.3086
      3 C2         -4.0007    2.7182    0.2337 C.ar      1 <0>         0.1652
      4 C3         -3.0452    3.3186    1.0454 C.ar      1 <0>        -0.1559
      5 C4         -1.7842    2.7755    1.1460 C.ar      1 <0>        -0.0294
      6 C5         -1.4650    1.6156    0.4292 C.ar      1 <0>        -0.1467
      7 C6         -2.4301    1.0176   -0.3908 C.ar      1 <0>        -0.0381
      8 C7         -3.6895    1.5664   -0.4798 C.ar      1 <0>        -0.2084
      9 C8         -0.1216    1.0319    0.5321 C.2       1 <0>         0.1078
     10 C9          0.1346   -0.1829   -0.0169 C.2       1 <0>        -0.2591
     11 C10         1.4193   -0.8936   -0.1719 C.2       1 <0>         0.5452
     12 O2          2.4677   -0.4112    0.2154 O.2       1 <0>        -0.4497
     13 N1          1.3731   -2.0826   -0.7489 N.am      1 <0>        -0.4751
     14 C11         0.2103   -2.6106   -1.1822 C.2       1 <0>         0.2539
     15 S1         -0.0517   -4.1168   -1.9528 S.2       1 <0>        -0.3209
     16 S2         -0.9898   -1.3583   -0.7582 S.3       1 <0>         0.0823
     17 C12         2.5614   -2.8084   -0.9195 C.ar      1 <0>         0.0792
     18 C13         2.7696   -3.9783   -0.2016 C.ar      1 <0>        -0.0630
     19 C14         3.9373   -4.6949   -0.3736 C.ar      1 <0>        -0.1328
     20 C15         4.9066   -4.2408   -1.2560 C.ar      1 <0>         0.1312
     21 C16         4.7013   -3.0690   -1.9698 C.ar      1 <0>        -0.1350
     22 C17         3.5319   -2.3541   -1.8021 C.ar      1 <0>        -0.0676
     23 O3          6.0584   -4.9440   -1.4211 O.3       1 <0>        -0.4951
     24 H1         -5.7874    2.5682   -1.7318 H         1 <0>         0.0614
     25 H2         -6.3270    1.5715   -0.3593 H         1 <0>         0.0617
     26 H3         -7.1266    3.1249   -0.6998 H         1 <0>         0.1068
     27 H4         -3.2924    4.2131    1.5977 H         1 <0>         0.1435
     28 H5         -1.0426    3.2428    1.7769 H         1 <0>         0.1450
     29 H6         -2.1880    0.1254   -0.9490 H         1 <0>         0.1318
     30 H7         -4.4358    1.1038   -1.1087 H         1 <0>         0.1408
     31 H8          0.6639    1.5711    1.0408 H         1 <0>         0.1652
     32 H9          2.0170   -4.3296    0.4887 H         1 <0>         0.1326
     33 H10         4.0978   -5.6070    0.1821 H         1 <0>         0.1424
     34 H11         5.4564   -2.7157   -2.6564 H         1 <0>         0.1414
     35 H12         3.3724   -1.4416   -2.3573 H         1 <0>         0.1303
     36 H13         6.7677   -4.6846   -0.8171 H         1 <0>         0.3968
@<TRIPOS>BOND
     1    1    2 1
     2    1   24 1
     3    1   25 1
     4    1   26 1
     5    2    3 1
     6    3    8 ar
     7    3    4 ar
     8    4    5 ar
     9    4   27 1
    10    5    6 ar
    11    5   28 1
    12    6    7 ar
    13    6    9 1
    14    7    8 ar
    15    7   29 1
    16    8   30 1
    17    9   10 2
    18    9   31 1
    19   10   16 1
    20   10   11 1
    21   11   12 2
    22   11   13 am
    23   13   14 1
    24   13   17 1
    25   14   15 2
    26   14   16 1
    27   17   22 ar
    28   17   18 ar
    29   18   19 ar
    30   18   32 1
    31   19   20 ar
    32   19   33 1
    33   20   21 ar
    34   20   23 1
    35   21   22 ar
    36   21   34 1
    37   22   35 1
    38   23   36 1
@<TRIPOS>MOLECULE
ZINC12524354
   40    42     0     0     0
SMALL
USER_CHARGES
(5Z)-5-[(4-dimethylaminophenyl)methylene]-3-(4-hydroxyphenyl)-2-thioxo-thiazolidin-4-one
@<TRIPOS>ATOM
      1 C1         -5.6658    4.2140    0.6326 C.3       1 <0>         0.0850
      2 N1         -5.3056    3.0427   -0.1701 N.pl3     1 <0>        -0.6237
      3 C2         -6.2622    2.4928   -1.1338 C.3       1 <0>         0.0792
      4 C3         -4.0542    2.4522   -0.0172 C.ar      1 <0>         0.2533
      5 C4         -3.1182    3.0220    0.8416 C.ar      1 <0>        -0.2065
      6 C5         -1.8845    2.4440    0.9954 C.ar      1 <0>        -0.0147
      7 C6         -1.5665    1.2779    0.2870 C.ar      1 <0>        -0.1757
      8 C7         -2.5097    0.7112   -0.5801 C.ar      1 <0>        -0.0248
      9 C8         -3.7427    1.2934   -0.7234 C.ar      1 <0>        -0.2029
     10 C9         -0.2472    0.6553    0.4483 C.2       1 <0>         0.1195
     11 C10        -0.0008   -0.5641   -0.0962 C.2       1 <0>        -0.2739
     12 C11         1.2720   -1.3014   -0.2150 C.2       1 <0>         0.5453
     13 O1          2.3185   -0.8418    0.2040 O.2       1 <0>        -0.4549
     14 N2          1.2180   -2.4881   -0.7960 N.am      1 <0>        -0.4754
     15 C12         0.0576   -2.9907   -1.2648 C.2       1 <0>         0.2555
     16 S1         -0.2133   -4.4896   -2.0464 S.2       1 <0>        -0.3330
     17 S2         -1.1276   -1.7139   -0.8732 S.3       1 <0>         0.0854
     18 C13         2.3953   -3.2383   -0.9336 C.ar      1 <0>         0.0813
     19 C14         2.5597   -4.4116   -0.2099 C.ar      1 <0>        -0.0633
     20 C15         3.7167   -5.1522   -0.3494 C.ar      1 <0>        -0.1330
     21 C16         4.7191   -4.7188   -1.2050 C.ar      1 <0>         0.1299
     22 C17         4.5576   -3.5437   -1.9245 C.ar      1 <0>        -0.1352
     23 C18         3.3989   -2.8048   -1.7893 C.ar      1 <0>        -0.0680
     24 O2          5.8603   -5.4457   -1.3381 O.3       1 <0>        -0.4953
     25 H1         -5.3751    5.1210    0.1026 H         1 <0>         0.0560
     26 H2         -6.7425    4.2213    0.8019 H         1 <0>         0.0732
     27 H3         -5.1477    4.1712    1.5907 H         1 <0>         0.0735
     28 H4         -5.8572    1.5778   -1.5661 H         1 <0>         0.0827
     29 H5         -7.2013    2.2704   -0.6270 H         1 <0>         0.0640
     30 H6         -6.4400    3.2209   -1.9252 H         1 <0>         0.0605
     31 H7         -3.3643    3.9209    1.3873 H         1 <0>         0.1335
     32 H8         -1.1591    2.8867    1.6619 H         1 <0>         0.1358
     33 H9         -2.2673   -0.1852   -1.1316 H         1 <0>         0.1288
     34 H10        -4.4721    0.8547   -1.3882 H         1 <0>         0.1360
     35 H11         0.5290    1.1689    0.9961 H         1 <0>         0.1608
     36 H12         1.7813   -4.7468    0.4595 H         1 <0>         0.1323
     37 H13         3.8430   -6.0671    0.2105 H         1 <0>         0.1418
     38 H14         5.3384   -3.2065   -2.5901 H         1 <0>         0.1408
     39 H15         3.2736   -1.8897   -2.3489 H         1 <0>         0.1301
     40 H16         6.5578   -5.2003   -0.7149 H         1 <0>         0.3963
@<TRIPOS>BOND
     1    1    2 1
     2    1   25 1
     3    1   26 1
     4    1   27 1
     5    2    3 1
     6    2    4 1
     7    3   28 1
     8    3   29 1
     9    3   30 1
    10    4    9 ar
    11    4    5 ar
    12    5    6 ar
    13    5   31 1
    14    6    7 ar
    15    6   32 1
    16    7    8 ar
    17    7   10 1
    18    8    9 ar
    19    8   33 1
    20    9   34 1
    21   10   11 2
    22   10   35 1
    23   11   17 1
    24   11   12 1
    25   12   13 2
    26   12   14 am
    27   14   15 1
    28   14   18 1
    29   15   16 2
    30   15   17 1
    31   18   23 ar
    32   18   19 ar
    33   19   20 ar
    34   19   36 1
    35   20   21 ar
    36   20   37 1
    37   21   22 ar
    38   21   24 1
    39   22   23 ar
    40   22   38 1
    41   23   39 1
    42   24   40 1
@<TRIPOS>MOLECULE
ZINC00517261
   35    37     0     0     0
SMALL
USER_CHARGES

@<TRIPOS>ATOM
      1 C1          2.3589    0.6470    0.7586 C.3       1 <0>         0.0223
      2 O1          1.5806   -0.5228    0.4979 O.3       1 <0>        -0.3046
      3 C2          1.4050   -0.8698   -0.8053 C.ar      1 <0>         0.0999
      4 C3          1.9734   -0.1054   -1.8063 C.ar      1 <0>        -0.1620
      5 C4          1.7913   -0.4653   -3.1446 C.ar      1 <0>        -0.0203
      6 C5          1.0351   -1.5966   -3.4638 C.ar      1 <0>        -0.0846
      7 C6          0.4712   -2.3541   -2.4598 C.ar      1 <0>        -0.1098
      8 C7          0.6567   -1.9995   -1.1308 C.ar      1 <0>         0.0974
      9 O2          0.1029   -2.7528   -0.1448 O.3       1 <0>        -0.4841
     10 C8          2.3950    0.3469   -4.2171 C.2       1 <0>         0.1312
     11 C9          3.0776   -0.2846   -5.2130 C.2       1 <0>        -0.0399
     12 C10         3.6640    0.4829   -6.2526 C.2       1 <0>         0.4007
     13 O3          4.2823   -0.0479   -7.1614 O.2       1 <0>        -0.4475
     14 C11         3.4970    1.9438   -6.1925 C.ar      1 <0>        -0.2690
     15 C12         4.0422    2.7786   -7.1770 C.ar      1 <0>         0.2248
     16 C13         3.8632    4.1461   -7.0855 C.ar      1 <0>        -0.2084
     17 C14         3.1468    4.6876   -6.0232 C.ar      1 <0>         0.1999
     18 C15         2.6052    3.8681   -5.0455 C.ar      1 <0>        -0.1864
     19 C16         2.7735    2.4937   -5.1200 C.ar      1 <0>         0.1873
     20 O4          2.2470    1.6822   -4.1790 O.3       1 <0>        -0.1984
     21 O5          2.9770    6.0321   -5.9430 O.3       1 <0>        -0.4869
     22 O6          4.7412    2.2485   -8.2125 O.3       1 <0>        -0.4726
     23 O7          3.1964   -1.6403   -5.2106 O.3       1 <0>        -0.4473
     24 H1          3.3619    0.5138    0.3533 H         1 <0>         0.0571
     25 H2          1.8879    1.5094    0.2868 H         1 <0>         0.0576
     26 H3          2.4205    0.8101    1.8345 H         1 <0>         0.1047
     27 H4          2.5567    0.7682   -1.5552 H         1 <0>         0.1392
     28 H5          0.8923   -1.8769   -4.4970 H         1 <0>         0.1391
     29 H6         -0.1129   -3.2281   -2.7077 H         1 <0>         0.1457
     30 H7         -0.7889   -2.4767    0.1073 H         1 <0>         0.3912
     31 H8          4.2808    4.7958   -7.8404 H         1 <0>         0.1515
     32 H9          2.0512    4.3003   -4.2253 H         1 <0>         0.1549
     33 H10         2.1822    6.3554   -6.3888 H         1 <0>         0.4051
     34 H11         4.1983    2.0283   -8.9819 H         1 <0>         0.4039
     35 H12         3.6982   -1.9925   -5.9584 H         1 <0>         0.4078
@<TRIPOS>BOND
     1    1    2 1
     2    1   24 1
     3    1   25 1
     4    1   26 1
     5    2    3 1
     6    3    8 ar
     7    3    4 ar
     8    4    5 ar
     9    4   27 1
    10    5    6 ar
    11    5   10 1
    12    6    7 ar
    13    6   28 1
    14    7    8 ar
    15    7   29 1
    16    8    9 1
    17    9   30 1
    18   10   20 1
    19   10   11 2
    20   11   12 1
    21   11   23 1
    22   12   13 2
    23   12   14 1
    24   14   19 ar
    25   14   15 ar
    26   15   16 ar
    27   15   22 1
    28   16   17 ar
    29   16   31 1
    30   17   18 ar
    31   17   21 1
    32   18   19 ar
    33   18   32 1
    34   19   20 1
    35   21   33 1
    36   22   34 1
    37   23   35 1
@<TRIPOS>MOLECULE
ZINC12428514
   28    30     0     0     0
SMALL
USER_CHARGES
(5Z)-5-[[5-(2,5-dichlorophenyl)-2-furyl]methylene]-2-thioxo-thiazolidin-4-one
@<TRIPOS>ATOM
      1 C1          2.2862   10.0603    0.0424 C.ar      1 <0>        -0.0784
      2 C2          2.2986    9.0201    0.9547 C.ar      1 <0>        -0.0955
      3 C3          1.2755    8.0935    0.9639 C.ar      1 <0>        -0.0102
      4 C4          0.2248    8.2080    0.0481 C.ar      1 <0>        -0.0173
      5 C5          0.2219    9.2574   -0.8737 C.ar      1 <0>        -0.0664
      6 C6          1.2489   10.1800   -0.8674 C.ar      1 <0>        -0.0338
      7 Cl1         1.2441   11.4889   -2.0078 Cl        1 <0>        -0.0460
      8 C7         -0.8724    7.2216    0.0517 C.2       1 <0>         0.0763
      9 C8         -2.2170    7.5154    0.0663 C.2       1 <0>        -0.1880
     10 C9         -2.9013    6.2972    0.0653 C.2       1 <0>        -0.1078
     11 C10        -1.9427    5.2999    0.0501 C.2       1 <0>        -0.0442
     12 O1         -0.7262    5.8840    0.0472 O.3       1 <0>        -0.1379
     13 C11        -2.1936    3.9111    0.0447 C.2       1 <0>         0.1323
     14 C12        -1.1516    3.0292    0.0293 C.2       1 <0>        -0.2618
     15 C13        -1.1700    1.6011    0.0164 C.2       1 <0>         0.5466
     16 O2         -2.2220    0.9873    0.0180 O.2       1 <0>        -0.4657
     17 N1         -0.0111    0.9658    0.0074 N.am      1 <0>        -0.6310
     18 C14         1.1559    1.6475   -0.0001 C.2       1 <0>         0.2698
     19 S1          2.7550    1.0364   -0.0192 S.2       1 <0>        -0.3234
     20 S2          0.6073    3.3474    0.0142 S.3       1 <0>         0.1043
     21 Cl2         1.2935    6.7889    2.1091 Cl        1 <0>        -0.0358
     22 H1          3.0895   10.7822    0.0396 H         1 <0>         0.1512
     23 H2          3.1109    8.9328    1.6611 H         1 <0>         0.1533
     24 H3         -0.5840    9.3495   -1.5866 H         1 <0>         0.1516
     25 H4         -2.6593    8.5006    0.0762 H         1 <0>         0.1670
     26 H5         -3.9726    6.1604    0.0751 H         1 <0>         0.1715
     27 H6         -3.2100    3.5460    0.0527 H         1 <0>         0.1886
     28 H7          0.0021   -0.0041    0.0020 H         1 <0>         0.4305
@<TRIPOS>BOND
     1    1    6 ar
     2    1    2 ar
     3    1   22 1
     4    2    3 ar
     5    2   23 1
     6    3    4 ar
     7    3   21 1
     8    4    5 ar
     9    4    8 1
    10    5    6 ar
    11    5   24 1
    12    6    7 1
    13    8   12 1
    14    8    9 2
    15    9   10 1
    16    9   25 1
    17   10   11 2
    18   10   26 1
    19   11   12 1
    20   11   13 1
    21   13   14 2
    22   13   27 1
    23   14   20 1
    24   14   15 1
    25   15   16 2
    26   15   17 am
    27   17   18 1
    28   17   28 1
    29   18   19 2
    30   18   20 1
@<TRIPOS>MOLECULE
ZINC04136159
   56    58     0     0     0
SMALL
USER_CHARGES
6-[5-[[4-[(4-chlorophenyl)methoxy]-3-methoxy-phenyl]methylene]-4-oxo-2-thioxo-thiazolidin-3-yl]hexanoic acid
@<TRIPOS>ATOM
      1 C1          2.3197    3.9779    1.0658 C.3       1 <0>         0.0221
      2 O1          1.0768    3.3295    0.7887 O.3       1 <0>        -0.3020
      3 C2          1.1291    2.0138    0.4487 C.ar      1 <0>         0.1001
      4 C3          2.3467    1.3655    0.3842 C.ar      1 <0>        -0.1325
      5 C4          2.3965    0.0107    0.0338 C.ar      1 <0>        -0.0946
      6 C5          1.2110   -0.6787   -0.2492 C.ar      1 <0>        -0.0750
      7 C6          0.0012   -0.0235   -0.1821 C.ar      1 <0>        -0.1733
      8 C7         -0.0467    1.3200    0.1655 C.ar      1 <0>         0.1335
      9 O2         -1.2426    1.9619    0.2244 O.3       1 <0>        -0.2905
     10 C8         -2.4073    1.1933   -0.0834 C.3       1 <0>         0.0954
     11 C9         -3.6304    2.0659    0.0334 C.ar      1 <0>        -0.0923
     12 C10        -4.2999    2.1593    1.2393 C.ar      1 <0>        -0.0803
     13 C11        -5.4184    2.9639    1.3485 C.ar      1 <0>        -0.1137
     14 C12        -5.8745    3.6671    0.2478 C.ar      1 <0>        -0.0242
     15 C13        -5.2074    3.5689   -0.9602 C.ar      1 <0>        -0.1133
     16 C14        -4.0857    2.7683   -1.0668 C.ar      1 <0>        -0.0797
     17 Cl1        -7.2831    4.6728    0.3826 Cl        1 <0>        -0.0663
     18 C15         3.6878   -0.6847   -0.0372 C.2       1 <0>         0.0868
     19 C16         3.7542   -1.9431   -0.5419 C.2       1 <0>        -0.2398
     20 C17         4.8919   -2.8837   -0.5789 C.2       1 <0>         0.5439
     21 O3          5.9788   -2.5908   -0.1160 O.2       1 <0>        -0.4524
     22 N1          4.6689   -4.0618   -1.1366 N.am      1 <0>        -0.5173
     23 C18         3.4648   -4.3798   -1.6539 C.2       1 <0>         0.2620
     24 S1          2.9863   -5.8358   -2.4168 S.2       1 <0>        -0.3325
     25 S2          2.4905   -2.9143   -1.3516 S.3       1 <0>         0.0656
     26 C19         5.7564   -5.0414   -1.1996 C.3       1 <0>         0.0812
     27 C20         6.5427   -4.8478   -2.4977 C.3       1 <0>        -0.1294
     28 C21         7.6784   -5.8709   -2.5634 C.3       1 <0>        -0.1126
     29 C22         8.4647   -5.6773   -3.8616 C.3       1 <0>        -0.0966
     30 C23         9.6004   -6.7004   -3.9273 C.3       1 <0>        -0.1575
     31 C24        10.3749   -6.5097   -5.2060 C.2       1 <0>         0.4574
     32 O4         10.0516   -5.6444   -5.9848 O.co2     1 <0>        -0.6424
     33 H1          2.8115    3.4789    1.9009 H         1 <0>         0.0580
     34 H2          2.9597    3.9282    0.1849 H         1 <0>         0.0586
     35 H3          2.1359    5.0210    1.3231 H         1 <0>         0.1039
     36 H4          3.2581    1.9020    0.6031 H         1 <0>         0.1481
     37 H5          1.2452   -1.7238   -0.5195 H         1 <0>         0.1361
     38 H6         -0.9126   -0.5562   -0.4002 H         1 <0>         0.1465
     39 H7         -2.3308    0.8093   -1.1007 H         1 <0>         0.0792
     40 H8         -2.4876    0.3599    0.6145 H         1 <0>         0.0785
     41 H9         -3.9463    1.6069    2.0973 H         1 <0>         0.1355
     42 H10        -5.9388    3.0402    2.2918 H         1 <0>         0.1373
     43 H11        -5.5628    4.1178   -1.8197 H         1 <0>         0.1376
     44 H12        -3.5646    2.6918   -2.0097 H         1 <0>         0.1361
     45 H13         4.5848   -0.1950    0.3120 H         1 <0>         0.1637
     46 H14         6.4216   -4.9010   -0.3475 H         1 <0>         0.1038
     47 H15         5.3402   -6.0484   -1.1736 H         1 <0>         0.1132
     48 H16         5.8775   -4.9881   -3.3498 H         1 <0>         0.0736
     49 H17         6.9589   -3.8407   -2.5237 H         1 <0>         0.0672
     50 H18         8.3436   -5.7305   -1.7114 H         1 <0>         0.0613
     51 H19         7.2622   -6.8780   -2.5375 H         1 <0>         0.0653
     52 H20         7.7995   -5.8176   -4.7136 H         1 <0>         0.0612
     53 H21         8.8809   -4.6702   -3.8876 H         1 <0>         0.0590
     54 H22        10.2656   -6.5600   -3.0753 H         1 <0>         0.0620
     55 H23         9.1842   -7.7075   -3.9013 H         1 <0>         0.0633
     56 O5         11.4238   -7.3013   -5.4797 O.co2     1 <0>        -0.7790
@<TRIPOS>BOND
     1    1    2 1
     2    1   33 1
     3    1   34 1
     4    1   35 1
     5    2    3 1
     6    3    8 ar
     7    3    4 ar
     8    4    5 ar
     9    4   36 1
    10    5    6 ar
    11    5   18 1
    12    6    7 ar
    13    6   37 1
    14    7    8 ar
    15    7   38 1
    16    8    9 1
    17    9   10 1
    18   10   11 1
    19   10   39 1
    20   10   40 1
    21   11   16 ar
    22   11   12 ar
    23   12   13 ar
    24   12   41 1
    25   13   14 ar
    26   13   42 1
    27   14   15 ar
    28   14   17 1
    29   15   16 ar
    30   15   43 1
    31   16   44 1
    32   18   19 2
    33   18   45 1
    34   19   25 1
    35   19   20 1
    36   20   21 2
    37   20   22 am
    38   22   23 1
    39   22   26 1
    40   23   24 2
    41   23   25 1
    42   26   27 1
    43   26   46 1
    44   26   47 1
    45   27   28 1
    46   27   48 1
    47   27   49 1
    48   28   29 1
    49   28   50 1
    50   28   51 1
    51   29   30 1
    52   29   52 1
    53   29   53 1
    54   30   31 1
    55   30   54 1
    56   30   55 1
    57   31   32 2
    58   31   56 1
@<TRIPOS>MOLECULE
ZINC03870336
   36    38     0     0     0
SMALL
USER_CHARGES

@<TRIPOS>ATOM
      1 C1         -0.0167    1.3824    0.0096 C.ar      1 <0>        -0.1274
      2 C2          1.1697    2.0917    0.0021 C.ar      1 <0>        -0.0653
      3 C3          2.3792    1.4226   -0.0135 C.ar      1 <0>        -0.0894
      4 C4          2.4066    0.0362   -0.0217 C.ar      1 <0>         0.0932
      5 C5          1.2160   -0.6806   -0.0137 C.ar      1 <0>         0.0631
      6 C6          0.0021   -0.0041    0.0020 C.ar      1 <0>         0.0954
      7 O1         -1.1658   -0.7009    0.0099 O.3       1 <0>        -0.4884
      8 O2          1.2387   -2.0413   -0.0217 O.3       1 <0>        -0.4809
      9 O3          3.5971   -0.6212   -0.0380 O.3       1 <0>        -0.4832
     10 C7          1.1446    3.5984    0.0105 C.3       1 <0>         0.1464
     11 H1          0.2126    3.9475    0.4550 H         1 <0>         0.0993
     12 C8          1.2611    4.1251   -1.4256 C.3       1 <0>         0.0774
     13 H2          0.4684    3.6972   -2.0393 H         1 <0>         0.0800
     14 C9          1.1215    5.6490   -1.3913 C.3       1 <0>        -0.1045
     15 C10         2.0188    6.2172   -0.3211 C.ar      1 <0>        -0.1923
     16 C11         2.3348    7.5707   -0.3637 C.ar      1 <0>         0.1585
     17 C12         3.1535    8.1275    0.6048 C.ar      1 <0>        -0.2029
     18 C13         3.6597    7.3319    1.6220 C.ar      1 <0>         0.1581
     19 C14         3.3464    5.9836    1.6646 C.ar      1 <0>        -0.1844
     20 C15         2.5265    5.4225    0.6909 C.ar      1 <0>         0.1750
     21 O4          2.2521    4.0938    0.7639 O.3       1 <0>        -0.2925
     22 O5          4.4620    7.8746    2.5751 O.3       1 <0>        -0.4920
     23 O6          1.8385    8.3503   -1.3601 O.3       1 <0>        -0.4921
     24 O7          2.5347    3.7694   -1.9673 O.3       1 <0>        -0.5463
     25 H3         -0.9596    1.9089    0.0260 H         1 <0>         0.1387
     26 H4          3.3040    1.9803   -0.0197 H         1 <0>         0.1451
     27 H5         -1.5123   -0.8977   -0.8712 H         1 <0>         0.3958
     28 H6          1.2542   -2.4396    0.8593 H         1 <0>         0.3910
     29 H7          3.9506   -0.8164    0.8407 H         1 <0>         0.3907
     30 H8          1.4057    6.0611   -2.3595 H         1 <0>         0.0953
     31 H9          0.0865    5.9136   -1.1749 H         1 <0>         0.0864
     32 H10         3.3971    9.1790    0.5682 H         1 <0>         0.1382
     33 H11         3.7408    5.3648    2.4571 H         1 <0>         0.1406
     34 H12         3.9848    8.2124    3.3453 H         1 <0>         0.3962
     35 H13         0.9859    8.7570   -1.1536 H         1 <0>         0.3939
     36 H14         2.6746    4.0723   -2.8749 H         1 <0>         0.3835
@<TRIPOS>BOND
     1    1    6 ar
     2    1    2 ar
     3    1   25 1
     4    2    3 ar
     5    2   10 1
     6    3    4 ar
     7    3   26 1
     8    4    5 ar
     9    4    9 1
    10    5    6 ar
    11    5    8 1
    12    6    7 1
    13    7   27 1
    14    8   28 1
    15    9   29 1
    16   10   11 1
    17   10   21 1
    18   10   12 1
    19   12   13 1
    20   12   14 1
    21   12   24 1
    22   14   15 1
    23   14   30 1
    24   14   31 1
    25   15   20 ar
    26   15   16 ar
    27   16   17 ar
    28   16   23 1
    29   17   18 ar
    30   17   32 1
    31   18   19 ar
    32   18   22 1
    33   19   20 ar
    34   19   33 1
    35   20   21 1
    36   22   34 1
    37   23   35 1
    38   24   36 1
@<TRIPOS>MOLECULE
ZINC03869685
   32    34     0     0     0
SMALL
USER_CHARGES

@<TRIPOS>ATOM
      1 C1          0.9741   -0.2755   -0.9644 C.ar      1 <0>        -0.0748
      2 C2          2.1569    0.4329   -0.9701 C.ar      1 <0>        -0.1346
      3 C3          2.3856    1.4156   -0.0177 C.ar      1 <0>         0.1032
      4 C4          1.4203    1.6918    0.9495 C.ar      1 <0>         0.0788
      5 C5          0.2328    0.9863    0.9617 C.ar      1 <0>        -0.0762
      6 C6          0.0021   -0.0041    0.0020 C.ar      1 <0>        -0.0447
      7 C7         -1.2637   -0.7605    0.0100 C.2       1 <0>         0.1350
      8 C8         -2.4363   -0.0759    0.1235 C.2       1 <0>        -0.0429
      9 C9         -3.6628   -0.7894    0.1327 C.2       1 <0>         0.4011
     10 O1         -4.7327   -0.2102    0.2323 O.2       1 <0>        -0.4484
     11 C10        -3.5946   -2.2549    0.0170 C.ar      1 <0>        -0.2690
     12 C11        -4.7561   -3.0387    0.0170 C.ar      1 <0>         0.2244
     13 C12        -4.6504   -4.4123   -0.0941 C.ar      1 <0>        -0.2081
     14 C13        -3.3994   -5.0103   -0.2044 C.ar      1 <0>         0.2000
     15 C14        -2.2463   -4.2416   -0.2047 C.ar      1 <0>        -0.1854
     16 C15        -2.3316   -2.8618   -0.0952 C.ar      1 <0>         0.1876
     17 O2         -1.2182   -2.0992   -0.1003 O.3       1 <0>        -0.1970
     18 O3         -3.3070   -6.3605   -0.3125 O.3       1 <0>        -0.4866
     19 O4         -5.9758   -2.4535    0.1257 O.3       1 <0>        -0.4726
     20 O5         -2.4312    1.2810    0.2275 O.3       1 <0>        -0.4502
     21 O6          1.6480    2.6557    1.8815 O.3       1 <0>        -0.4836
     22 O7          3.5534    2.1101   -0.0273 O.3       1 <0>        -0.4861
     23 H1          0.7971   -1.0371   -1.7094 H         1 <0>         0.1379
     24 H2          2.9075    0.2221   -1.7176 H         1 <0>         0.1421
     25 H3         -0.5155    1.1988    1.7108 H         1 <0>         0.1429
     26 H4         -5.5413   -5.0229   -0.0948 H         1 <0>         0.1515
     27 H5         -1.2805   -4.7174   -0.2903 H         1 <0>         0.1559
     28 H6         -3.3257   -6.6843   -1.2235 H         1 <0>         0.4050
     29 H7         -6.3751   -2.2160   -0.7224 H         1 <0>         0.4036
     30 H8         -3.3120    1.6729    0.3033 H         1 <0>         0.4079
     31 H9          1.3508    3.5370    1.6166 H         1 <0>         0.3905
     32 H10         3.5287    2.9137   -0.5647 H         1 <0>         0.3924
@<TRIPOS>BOND
     1    1    6 ar
     2    1    2 ar
     3    1   23 1
     4    2    3 ar
     5    2   24 1
     6    3    4 ar
     7    3   22 1
     8    4    5 ar
     9    4   21 1
    10    5    6 ar
    11    5   25 1
    12    6    7 1
    13    7   17 1
    14    7    8 2
    15    8    9 1
    16    8   20 1
    17    9   10 2
    18    9   11 1
    19   11   16 ar
    20   11   12 ar
    21   12   13 ar
    22   12   19 1
    23   13   14 ar
    24   13   26 1
    25   14   15 ar
    26   14   18 1
    27   15   16 ar
    28   15   27 1
    29   16   17 1
    30   18   28 1
    31   19   29 1
    32   20   30 1
    33   21   31 1
    34   22   32 1
@<TRIPOS>MOLECULE
ZINC03869685
   31    33     0     0     0
SMALL
USER_CHARGES

@<TRIPOS>ATOM
      1 C1          0.1390    1.1246   -0.8120 C.ar      1 <0>        -0.0626
      2 C2          1.3229    1.8301   -0.8179 C.ar      1 <0>        -0.1333
      3 C3          2.3812    1.4233   -0.0172 C.ar      1 <0>         0.0878
      4 C4          2.2522    0.2984    0.7970 C.ar      1 <0>         0.0757
      5 C5          1.0694   -0.4139    0.8086 C.ar      1 <0>        -0.0997
      6 C6          0.0021   -0.0041    0.0020 C.ar      1 <0>        -0.0194
      7 C7         -1.2620   -0.7597    0.0100 C.2       1 <0>         0.1007
      8 C8         -2.4587   -0.0763    0.1245 C.2       1 <0>        -0.0038
      9 C9         -3.6655   -0.7872    0.1324 C.2       1 <0>         0.3349
     10 C10        -3.6167   -2.1939    0.0219 C.2       1 <0>        -0.3331
     11 C11        -4.8018   -2.9593    0.0240 C.2       1 <0>         0.2664
     12 C12        -4.7326   -4.3182   -0.0844 C.2       1 <0>        -0.3749
     13 C13        -3.4871   -4.9570   -0.1979 C.2       1 <0>         0.3648
     14 O1         -3.4307   -6.2860   -0.3033 O.2       1 <0>        -0.6598
     15 C14        -2.3054   -4.2086   -0.2016 C.2       1 <0>        -0.3143
     16 C15        -2.3616   -2.8325   -0.0921 C.2       1 <0>         0.2118
     17 O2         -1.2290   -2.0988   -0.0996 O.3       1 <0>        -0.2018
     18 O3         -6.0073   -2.3463    0.1339 O.3       1 <0>        -0.4482
     19 O4         -4.8484   -0.1420    0.2437 O.3       1 <0>        -0.5747
     20 O5         -2.4638    1.2803    0.2294 O.3       1 <0>        -0.4649
     21 O6          3.2919   -0.0973    1.5794 O.3       1 <0>        -0.4856
     22 O7          3.5458    2.1225   -0.0269 O.3       1 <0>        -0.4881
     23 H1         -0.6843    1.4460   -1.4327 H         1 <0>         0.1397
     24 H2          1.4276    2.7014   -1.4473 H         1 <0>         0.1381
     25 H3          0.9685   -1.2854    1.4384 H         1 <0>         0.1410
     26 H4         -5.6395   -4.9047   -0.0825 H         1 <0>         0.1180
     27 H5         -1.3506   -4.7057   -0.2895 H         1 <0>         0.1230
     28 H6         -6.7597   -2.9537    0.1258 H         1 <0>         0.3847
     29 H7         -3.3475    1.6656    0.3047 H         1 <0>         0.4058
     30 H8          3.2925    0.2977    2.4620 H         1 <0>         0.3855
     31 H9          3.5825    2.8346    0.6263 H         1 <0>         0.3863
@<TRIPOS>BOND
     1    1    6 ar
     2    1    2 ar
     3    1   23 1
     4    2    3 ar
     5    2   24 1
     6    3    4 ar
     7    3   22 1
     8    4    5 ar
     9    4   21 1
    10    5    6 ar
    11    5   25 1
    12    6    7 1
    13    7   17 1
    14    7    8 2
    15    8    9 1
    16    8   20 1
    17    9   10 2
    18    9   19 1
    19   10   16 1
    20   10   11 1
    21   11   12 2
    22   11   18 1
    23   12   13 1
    24   12   26 1
    25   13   14 2
    26   13   15 1
    27   15   16 2
    28   15   27 1
    29   16   17 1
    30   18   28 1
    31   20   29 1
    32   21   30 1
    33   22   31 1
@<TRIPOS>MOLECULE
ZINC00002216
   24    25     0     0     0
SMALL
USER_CHARGES

@<TRIPOS>ATOM
      1 C1          0.6409    0.2697    1.1605 C.ar      1 <0>        -0.1053
      2 C2          1.8276    0.9794    1.1670 C.ar      1 <0>        -0.0911
      3 C3          2.3809    1.4153   -0.0261 C.ar      1 <0>         0.0524
      4 C4          1.7399    1.1371   -1.2302 C.ar      1 <0>         0.1181
      5 C5          0.5513    0.4257   -1.2306 C.ar      1 <0>        -0.1276
      6 C6          0.0037   -0.0069   -0.0356 C.ar      1 <0>        -0.0143
      7 Cl1        -1.4859   -0.8984   -0.0377 Cl        1 <0>        -0.0497
      8 O1          2.2792    1.5634   -2.4035 O.3       1 <0>        -0.4836
      9 O2          3.5477    2.1138   -0.0209 O.3       1 <0>        -0.2359
     10 C7          3.4812    3.4679   -0.1180 C.ar      1 <0>         0.1430
     11 C8          2.2494    4.1059   -0.1010 C.ar      1 <0>        -0.1652
     12 C9          2.1838    5.4822   -0.1993 C.ar      1 <0>        -0.0647
     13 C10         3.3456    6.2252   -0.3148 C.ar      1 <0>        -0.0565
     14 C11         4.5754    5.5917   -0.3326 C.ar      1 <0>        -0.0661
     15 C12         4.6461    4.2150   -0.2287 C.ar      1 <0>        -0.0524
     16 Cl2         6.1896    3.4206   -0.2439 Cl        1 <0>        -0.0396
     17 Cl3         3.2597    7.9547   -0.4382 Cl        1 <0>        -0.0530
     18 H1          0.2131   -0.0733    2.0909 H         1 <0>         0.1484
     19 H2          2.3230    1.1944    2.1023 H         1 <0>         0.1499
     20 H3          0.0519    0.2090   -2.1634 H         1 <0>         0.1503
     21 H4          2.8879    0.9310   -2.8093 H         1 <0>         0.4014
     22 H5          1.3422    3.5268   -0.0112 H         1 <0>         0.1432
     23 H6          1.2249    5.9789   -0.1864 H         1 <0>         0.1450
     24 H7          5.4809    6.1734   -0.4232 H         1 <0>         0.1534
@<TRIPOS>BOND
     1    1    6 ar
     2    1    2 ar
     3    1   18 1
     4    2    3 ar
     5    2   19 1
     6    3    4 ar
     7    3    9 1
     8    4    5 ar
     9    4    8 1
    10    5    6 ar
    11    5   20 1
    12    6    7 1
    13    8   21 1
    14    9   10 1
    15   10   15 ar
    16   10   11 ar
    17   11   12 ar
    18   11   22 1
    19   12   13 ar
    20   12   23 1
    21   13   14 ar
    22   13   17 1
    23   14   15 ar
    24   14   24 1
    25   15   16 1
@<TRIPOS>MOLECULE
ZINC00002216
   23    24     0     0     0
SMALL
USER_CHARGES

@<TRIPOS>ATOM
      1 C1          0.6410    0.2696    1.1605 C.ar      1 <0>        -0.2462
      2 C2          1.8276    0.9794    1.1670 C.ar      1 <0>        -0.0518
      3 C3          2.3809    1.4153   -0.0261 C.ar      1 <0>        -0.0995
      4 C4          1.7398    1.1372   -1.2302 C.ar      1 <0>         0.2785
      5 C5          0.5513    0.4258   -1.2306 C.ar      1 <0>        -0.2490
      6 C6          0.0037   -0.0069   -0.0356 C.ar      1 <0>         0.0341
      7 Cl1        -1.4859   -0.8984   -0.0377 Cl        1 <0>        -0.1116
      8 O1          2.2791    1.5635   -2.4035 O.3       1 <0>        -0.6900
      9 O2          3.5477    2.1138   -0.0209 O.3       1 <0>        -0.2158
     10 C7          3.4812    3.4679   -0.1180 C.ar      1 <0>         0.1718
     11 C8          2.2494    4.1059   -0.1010 C.ar      1 <0>        -0.1653
     12 C9          2.1838    5.4822   -0.1993 C.ar      1 <0>        -0.0671
     13 C10         3.3456    6.2252   -0.3148 C.ar      1 <0>        -0.0780
     14 C11         4.5754    5.5917   -0.3326 C.ar      1 <0>        -0.0689
     15 C12         4.6461    4.2150   -0.2287 C.ar      1 <0>        -0.0695
     16 Cl2         6.1896    3.4206   -0.2439 Cl        1 <0>        -0.0570
     17 Cl3         3.2597    7.9547   -0.4382 Cl        1 <0>        -0.0782
     18 H1          0.2132   -0.0734    2.0910 H         1 <0>         0.1135
     19 H2          2.3231    1.1943    2.1023 H         1 <0>         0.1130
     20 H3          0.0518    0.2091   -2.1633 H         1 <0>         0.1145
     21 H4          1.3422    3.5268   -0.0112 H         1 <0>         0.1450
     22 H5          1.2249    5.9789   -0.1864 H         1 <0>         0.1353
     23 H6          5.4809    6.1734   -0.4232 H         1 <0>         0.1422
@<TRIPOS>BOND
     1    1    6 ar
     2    1    2 ar
     3    1   18 1
     4    2    3 ar
     5    2   19 1
     6    3    4 ar
     7    3    9 1
     8    4    5 ar
     9    4    8 1
    10    5    6 ar
    11    5   20 1
    12    6    7 1
    13    9   10 1
    14   10   15 ar
    15   10   11 ar
    16   11   12 ar
    17   11   21 1
    18   12   13 ar
    19   12   22 1
    20   13   14 ar
    21   13   17 1
    22   14   15 ar
    23   14   23 1
    24   15   16 1
