@<TRIPOS>MOLECULE
ZINC03872070
   29    31     0     0     0
SMALL
USER_CHARGES

@<TRIPOS>ATOM
      1 C1         -0.0167    1.3795    0.0096 C.ar      1 <0>        -0.0927
      2 C2          1.1683    2.0940    0.0021 C.ar      1 <0>        -0.1229
      3 C3          2.3774    1.4303   -0.0130 C.ar      1 <0>        -0.0794
      4 C4          2.4038    0.0341   -0.0208 C.ar      1 <0>        -0.0750
      5 C5          1.2040   -0.6806   -0.0131 C.ar      1 <0>        -0.0800
      6 C6          0.0021   -0.0041    0.0020 C.ar      1 <0>        -0.1206
      7 C7          3.6945   -0.6834   -0.0374 C.2       1 <0>         0.2076
      8 C8          3.6865   -2.0422   -0.0503 C.2       1 <0>        -0.3115
      9 C9          4.9147   -2.7475   -0.0669 C.2       1 <0>         0.4227
     10 O1          4.9453   -3.9673   -0.0791 O.2       1 <0>        -0.4538
     11 C10         6.1531   -1.9509   -0.0693 C.ar      1 <0>        -0.2663
     12 C11         7.4124   -2.5640   -0.0858 C.ar      1 <0>         0.2193
     13 C12         8.5511   -1.7802   -0.0879 C.ar      1 <0>        -0.2051
     14 C13         8.4449   -0.3935   -0.0739 C.ar      1 <0>         0.1922
     15 C14         7.2019    0.2199   -0.0571 C.ar      1 <0>        -0.1832
     16 C15         6.0486   -0.5493   -0.0551 C.ar      1 <0>         0.1831
     17 O2          4.8303    0.0319   -0.0449 O.3       1 <0>        -0.2180
     18 O3          9.5695    0.3668   -0.0761 O.3       1 <0>        -0.4872
     19 O4          7.5139   -3.9173   -0.0990 O.3       1 <0>        -0.4722
     20 H1         -0.9606    1.9042    0.0260 H         1 <0>         0.1309
     21 H2          1.1464    3.1738    0.0078 H         1 <0>         0.1326
     22 H3          3.3016    1.9892   -0.0192 H         1 <0>         0.1349
     23 H4          1.2173   -1.7605   -0.0194 H         1 <0>         0.1361
     24 H5         -0.9265   -0.5555    0.0079 H         1 <0>         0.1347
     25 H6          2.7503   -2.5805   -0.0475 H         1 <0>         0.1636
     26 H7          9.5256   -2.2457   -0.1002 H         1 <0>         0.1502
     27 H8          7.1320    1.2975   -0.0459 H         1 <0>         0.1533
     28 H9          9.8879    0.5955   -0.9601 H         1 <0>         0.4037
     29 H10         7.5357   -4.3014   -0.9862 H         1 <0>         0.4030
@<TRIPOS>BOND
     1    1    6 ar
     2    1    2 ar
     3    1   20 1
     4    2    3 ar
     5    2   21 1
     6    3    4 ar
     7    3   22 1
     8    4    5 ar
     9    4    7 1
    10    5    6 ar
    11    5   23 1
    12    6   24 1
    13    7   17 1
    14    7    8 2
    15    8    9 1
    16    8   25 1
    17    9   10 2
    18    9   11 1
    19   11   16 ar
    20   11   12 ar
    21   12   13 ar
    22   12   19 1
    23   13   14 ar
    24   13   26 1
    25   14   15 ar
    26   14   18 1
    27   15   16 ar
    28   15   27 1
    29   16   17 1
    30   18   28 1
    31   19   29 1
@<TRIPOS>MOLECULE
ZINC03872070
   28    30     0     0     0
SMALL
USER_CHARGES

@<TRIPOS>ATOM
      1 C1         -0.0167    1.3797    0.0096 C.ar      1 <0>        -0.1070
      2 C2          1.1682    2.0946    0.0022 C.ar      1 <0>        -0.1239
      3 C3          2.3774    1.4315   -0.0129 C.ar      1 <0>        -0.0844
      4 C4          2.4042    0.0344   -0.0206 C.ar      1 <0>        -0.0523
      5 C5          1.2037   -0.6807   -0.0130 C.ar      1 <0>        -0.0872
      6 C6          0.0021   -0.0041    0.0020 C.ar      1 <0>        -0.1230
      7 C7          3.6938   -0.6822   -0.0372 C.2       1 <0>         0.1725
      8 C8          3.6987   -2.0599   -0.0503 C.2       1 <0>        -0.2684
      9 C9          4.9147   -2.7500   -0.0661 C.2       1 <0>         0.3652
     10 C10         6.1116   -2.0009   -0.0682 C.2       1 <0>        -0.3412
     11 C11         7.3668   -2.6443   -0.0844 C.2       1 <0>         0.2654
     12 C12         8.5111   -1.9002   -0.0865 C.2       1 <0>        -0.3783
     13 C13         8.4435   -0.4975   -0.0722 C.2       1 <0>         0.3617
     14 O1          9.5678    0.2204   -0.0740 O.2       1 <0>        -0.6670
     15 C14         7.2040    0.1518   -0.0566 C.2       1 <0>        -0.3151
     16 C15         6.0392   -0.5896   -0.0543 C.2       1 <0>         0.2114
     17 O2          4.8365    0.0229   -0.0448 O.3       1 <0>        -0.2195
     18 O3          7.4365   -3.9993   -0.0974 O.3       1 <0>        -0.4477
     19 O4          4.9436   -4.1007   -0.0786 O.3       1 <0>        -0.5790
     20 H1         -0.9606    1.9042    0.0260 H         1 <0>         0.1247
     21 H2          1.1460    3.1743    0.0078 H         1 <0>         0.1280
     22 H3          3.3014    1.9906   -0.0191 H         1 <0>         0.1359
     23 H4          1.2169   -1.7606   -0.0192 H         1 <0>         0.1351
     24 H5         -0.9266   -0.5554    0.0079 H         1 <0>         0.1291
     25 H6          2.7663   -2.6050   -0.0479 H         1 <0>         0.1462
     26 H7          9.4725   -2.3921   -0.0990 H         1 <0>         0.1160
     27 H8          7.1585    1.2308   -0.0456 H         1 <0>         0.1202
     28 H9          8.3389   -4.3466   -0.1079 H         1 <0>         0.3827
@<TRIPOS>BOND
     1    1    6 ar
     2    1    2 ar
     3    1   20 1
     4    2    3 ar
     5    2   21 1
     6    3    4 ar
     7    3   22 1
     8    4    5 ar
     9    4    7 1
    10    5    6 ar
    11    5   23 1
    12    6   24 1
    13    7   17 1
    14    7    8 2
    15    8    9 1
    16    8   25 1
    17    9   10 2
    18    9   19 1
    19   10   16 1
    20   10   11 1
    21   11   12 2
    22   11   18 1
    23   12   13 1
    24   12   26 1
    25   13   14 2
    26   13   15 1
    27   15   16 2
    28   15   27 1
    29   16   17 1
    30   18   28 1
@<TRIPOS>MOLECULE
ZINC08681494
   50    53     0     0     0
SMALL
USER_CHARGES

@<TRIPOS>ATOM
      1 C1         -0.0167    1.3779    0.0096 C.ar      1 <0>        -0.0832
      2 C2          1.1696    2.0886    0.0021 C.ar      1 <0>        -0.1311
      3 C3          2.3802    1.4154   -0.0130 C.ar      1 <0>         0.0917
      4 C4          2.3990    0.0236   -0.0206 C.ar      1 <0>         0.0803
      5 C5          1.2071   -0.6822   -0.0130 C.ar      1 <0>        -0.1019
      6 C6          0.0021   -0.0041    0.0020 C.ar      1 <0>        -0.0826
      7 C7         -1.2936   -0.7736    0.0102 C.3       1 <0>         0.1441
      8 H1         -1.1201   -1.7884   -0.3479 H         1 <0>         0.0998
      9 C8         -1.8590   -0.8183    1.4356 C.3       1 <0>         0.0656
     10 H2         -2.1191    0.1894    1.7595 H         1 <0>         0.1043
     11 C9         -3.1120   -1.6975    1.4281 C.3       1 <0>        -0.0874
     12 C10        -4.0118   -1.2895    0.2891 C.ar      1 <0>        -0.1903
     13 C11        -5.3448   -1.6839    0.3168 C.ar      1 <0>         0.1635
     14 C12        -6.1992   -1.3308   -0.7146 C.ar      1 <0>        -0.1965
     15 C13        -5.7231   -0.5806   -1.7796 C.ar      1 <0>         0.1599
     16 C14        -4.3960   -0.1855   -1.8071 C.ar      1 <0>        -0.1784
     17 C15        -3.5373   -0.5380   -0.7709 C.ar      1 <0>         0.1588
     18 O1         -2.2452   -0.1223   -0.8323 O.3       1 <0>        -0.2898
     19 O2         -6.5574   -0.2342   -2.7948 O.3       1 <0>        -0.4911
     20 O3         -5.8113   -2.4194    1.3600 O.3       1 <0>        -0.4902
     21 O4         -0.8856   -1.3731    2.3226 O.3       1 <0>        -0.3279
     22 C16        -0.9111   -0.9489    3.6014 C.2       1 <0>         0.5148
     23 O5         -1.7371   -0.1303    3.9536 O.2       1 <0>        -0.4908
     24 C17         0.0636   -1.4782    4.5734 C.ar      1 <0>        -0.1031
     25 C18         1.0179   -2.4155    4.1683 C.ar      1 <0>        -0.0810
     26 C19         1.9301   -2.9098    5.0813 C.ar      1 <0>         0.0863
     27 C20         1.8987   -2.4752    6.4039 C.ar      1 <0>         0.0960
     28 C21         0.9488   -1.5418    6.8103 C.ar      1 <0>         0.0887
     29 C22         0.0384   -1.0391    5.9000 C.ar      1 <0>        -0.0732
     30 O6          0.9207   -1.1198    8.1029 O.3       1 <0>        -0.4774
     31 O7          2.7965   -2.9632    7.2996 O.3       1 <0>        -0.4719
     32 O8          2.8590   -3.8220    4.6878 O.3       1 <0>        -0.4773
     33 O9          3.5850   -0.6417   -0.0359 O.3       1 <0>        -0.4831
     34 O10         3.5476    2.1129   -0.0209 O.3       1 <0>        -0.4863
     35 H3         -0.9598    1.9038    0.0259 H         1 <0>         0.1345
     36 H4          1.1522    3.1684    0.0077 H         1 <0>         0.1380
     37 H5          1.2190   -1.7621   -0.0189 H         1 <0>         0.1388
     38 H6         -2.8221   -2.7410    1.3054 H         1 <0>         0.0963
     39 H7         -3.6445   -1.5781    2.3716 H         1 <0>         0.0930
     40 H8         -7.2339   -1.6393   -0.6898 H         1 <0>         0.1412
     41 H9         -4.0260    0.3985   -2.6368 H         1 <0>         0.1440
     42 H10        -7.0114    0.6089   -2.6604 H         1 <0>         0.3978
     43 H11        -6.1571   -1.8895    2.0913 H         1 <0>         0.3960
     44 H12         1.0423   -2.7535    3.1428 H         1 <0>         0.1535
     45 H13        -0.6951   -0.3115    6.2147 H         1 <0>         0.1537
     46 H14         1.4699   -0.3427    8.2750 H         1 <0>         0.3935
     47 H15         3.6138   -2.4496    7.3568 H         1 <0>         0.3924
     48 H16         3.6850   -3.4309    4.3717 H         1 <0>         0.3924
     49 H17         3.9367   -0.8389    0.8430 H         1 <0>         0.3864
     50 H18         3.8938    2.3101    0.8602 H         1 <0>         0.3891
@<TRIPOS>BOND
     1    1    6 ar
     2    1    2 ar
     3    1   35 1
     4    2    3 ar
     5    2   36 1
     6    3    4 ar
     7    3   34 1
     8    4    5 ar
     9    4   33 1
    10    5    6 ar
    11    5   37 1
    12    6    7 1
    13    7    8 1
    14    7   18 1
    15    7    9 1
    16    9   10 1
    17    9   11 1
    18    9   21 1
    19   11   12 1
    20   11   38 1
    21   11   39 1
    22   12   17 ar
    23   12   13 ar
    24   13   14 ar
    25   13   20 1
    26   14   15 ar
    27   14   40 1
    28   15   16 ar
    29   15   19 1
    30   16   17 ar
    31   16   41 1
    32   17   18 1
    33   19   42 1
    34   20   43 1
    35   21   22 1
    36   22   23 2
    37   22   24 1
    38   24   29 ar
    39   24   25 ar
    40   25   26 ar
    41   25   44 1
    42   26   27 ar
    43   26   32 1
    44   27   28 ar
    45   27   31 1
    46   28   29 ar
    47   28   30 1
    48   29   45 1
    49   30   46 1
    50   31   47 1
    51   32   48 1
    52   33   49 1
    53   34   50 1
@<TRIPOS>MOLECULE
ZINC03869768
   31    33     0     0     0
SMALL
USER_CHARGES

@<TRIPOS>ATOM
      1 C1          0.9745   -0.2752   -0.9649 C.ar      1 <0>        -0.0474
      2 C2          2.1550    0.4346   -0.9693 C.ar      1 <0>        -0.1488
      3 C3          2.3800    1.4188   -0.0145 C.ar      1 <0>         0.1280
      4 C4          1.4162    1.6917    0.9485 C.ar      1 <0>        -0.1504
      5 C5          0.2327    0.9869    0.9606 C.ar      1 <0>        -0.0665
      6 C6          0.0021   -0.0041    0.0020 C.ar      1 <0>        -0.0625
      7 C7         -1.2634   -0.7608    0.0105 C.2       1 <0>         0.1356
      8 C8         -1.2167   -2.1184   -0.0957 C.2       1 <0>        -0.0454
      9 C9         -2.4259   -2.8610   -0.0886 C.2       1 <0>         0.4007
     10 O1         -2.4232   -4.0781   -0.1814 O.2       1 <0>        -0.4492
     11 C10        -3.6832   -2.1065    0.0355 C.ar      1 <0>        -0.2689
     12 C11        -4.9234   -2.7585    0.0517 C.ar      1 <0>         0.2243
     13 C12        -6.0821   -2.0144    0.1703 C.ar      1 <0>        -0.2086
     14 C13        -6.0155   -0.6287    0.2722 C.ar      1 <0>         0.1994
     15 C14        -4.7926    0.0230    0.2564 C.ar      1 <0>        -0.1859
     16 C15        -3.6188   -0.7060    0.1392 C.ar      1 <0>         0.1873
     17 O2         -2.4200   -0.0864    0.1283 O.3       1 <0>        -0.1981
     18 O3         -7.1599    0.0925    0.3877 O.3       1 <0>        -0.4869
     19 O4         -4.9864   -4.1104   -0.0487 O.3       1 <0>        -0.4727
     20 O5         -0.0202   -2.7570   -0.2082 O.3       1 <0>        -0.4492
     21 O6          3.5454    2.1157   -0.0224 O.3       1 <0>        -0.4978
     22 H1          0.7987   -1.0369   -1.7101 H         1 <0>         0.1366
     23 H2          2.9071    0.2256   -1.7157 H         1 <0>         0.1375
     24 H3          1.5954    2.4572    1.6889 H         1 <0>         0.1366
     25 H4         -0.5157    1.1995    1.7097 H         1 <0>         0.1340
     26 H5         -7.0416   -2.5100    0.1835 H         1 <0>         0.1512
     27 H6         -4.7536    1.0994    0.3359 H         1 <0>         0.1553
     28 H7         -7.4448    0.2345    1.3008 H         1 <0>         0.4049
     29 H8         -4.9577   -4.5698    0.8018 H         1 <0>         0.4037
     30 H9         -0.0926   -3.7187   -0.2778 H         1 <0>         0.4073
     31 H10         3.5195    2.9194   -0.5594 H         1 <0>         0.3958
@<TRIPOS>BOND
     1    1    6 ar
     2    1    2 ar
     3    1   22 1
     4    2    3 ar
     5    2   23 1
     6    3    4 ar
     7    3   21 1
     8    4    5 ar
     9    4   24 1
    10    5    6 ar
    11    5   25 1
    12    6    7 1
    13    7   17 1
    14    7    8 2
    15    8    9 1
    16    8   20 1
    17    9   10 2
    18    9   11 1
    19   11   16 ar
    20   11   12 ar
    21   12   13 ar
    22   12   19 1
    23   13   14 ar
    24   13   26 1
    25   14   15 ar
    26   14   18 1
    27   15   16 ar
    28   15   27 1
    29   16   17 1
    30   18   28 1
    31   19   29 1
    32   20   30 1
    33   21   31 1
@<TRIPOS>MOLECULE
ZINC03869768
   30    32     0     0     0
SMALL
USER_CHARGES

@<TRIPOS>ATOM
      1 C1          0.1387    1.1253   -0.8121 C.ar      1 <0>        -0.0723
      2 C2          1.3222    1.8291   -0.8163 C.ar      1 <0>        -0.1492
      3 C3          2.3802    1.4188   -0.0136 C.ar      1 <0>         0.1107
      4 C4          2.2493    0.2973    0.7970 C.ar      1 <0>        -0.1487
      5 C5          1.0698   -0.4131    0.8081 C.ar      1 <0>        -0.0549
      6 C6          0.0021   -0.0041    0.0020 C.ar      1 <0>        -0.0373
      7 C7         -1.2618   -0.7600    0.0105 C.2       1 <0>         0.1024
      8 C8         -1.2272   -2.1382   -0.0967 C.2       1 <0>        -0.0073
      9 C9         -2.4246   -2.8649   -0.0894 C.2       1 <0>         0.3353
     10 C10        -3.6396   -2.1555    0.0286 C.2       1 <0>        -0.3335
     11 C11        -4.8747   -2.8371    0.0419 C.2       1 <0>         0.2665
     12 C12        -6.0380   -2.1324    0.1573 C.2       1 <0>        -0.3754
     13 C13        -6.0102   -0.7324    0.2627 C.2       1 <0>         0.3645
     14 O1         -7.1532   -0.0530    0.3751 O.2       1 <0>        -0.6613
     15 C14        -4.7917   -0.0455    0.2513 C.2       1 <0>        -0.3154
     16 C15        -3.6071   -0.7470    0.1346 C.2       1 <0>         0.2120
     17 O2         -2.4247   -0.0966    0.1278 O.3       1 <0>        -0.2026
     18 O3         -4.9062   -4.1898   -0.0602 O.3       1 <0>        -0.4482
     19 O4         -2.4171   -4.2129   -0.1933 O.3       1 <0>        -0.5752
     20 O5         -0.0356   -2.7853   -0.2091 O.3       1 <0>        -0.4646
     21 O6          3.5454    2.1154   -0.0218 O.3       1 <0>        -0.5000
     22 H1         -0.6842    1.4472   -1.4330 H         1 <0>         0.1347
     23 H2          1.4286    2.7011   -1.4445 H         1 <0>         0.1321
     24 H3          3.0741   -0.0177    1.4190 H         1 <0>         0.1323
     25 H4          0.9692   -1.2847    1.4377 H         1 <0>         0.1358
     26 H5         -6.9838   -2.6538    0.1671 H         1 <0>         0.1177
     27 H6         -4.7769    1.0313    0.3327 H         1 <0>         0.1225
     28 H7         -5.7973   -4.5650   -0.0417 H         1 <0>         0.3845
     29 H8         -0.1151   -3.7466   -0.2784 H         1 <0>         0.4051
     30 H9          3.5829    2.8269    0.6320 H         1 <0>         0.3897
@<TRIPOS>BOND
     1    1    6 ar
     2    1    2 ar
     3    1   22 1
     4    2    3 ar
     5    2   23 1
     6    3    4 ar
     7    3   21 1
     8    4    5 ar
     9    4   24 1
    10    5    6 ar
    11    5   25 1
    12    6    7 1
    13    7   17 1
    14    7    8 2
    15    8    9 1
    16    8   20 1
    17    9   10 2
    18    9   19 1
    19   10   16 1
    20   10   11 1
    21   11   12 2
    22   11   18 1
    23   12   13 1
    24   12   26 1
    25   13   14 2
    26   13   15 1
    27   15   16 2
    28   15   27 1
    29   16   17 1
    30   18   28 1
    31   20   29 1
    32   21   30 1
@<TRIPOS>MOLECULE
ZINC18185774
   31    33     0     0     0
SMALL
USER_CHARGES

@<TRIPOS>ATOM
      1 C1         -0.0169    1.3929    0.0097 C.ar      1 <0>        -0.0705
      2 C2          1.1675    2.0983    0.0022 C.ar      1 <0>        -0.1309
      3 C3          2.3803    1.4240   -0.0135 C.ar      1 <0>         0.1099
      4 C4          2.4067    0.0300   -0.0212 C.ar      1 <0>         0.0792
      5 C5          1.2240   -0.6832   -0.0138 C.ar      1 <0>        -0.0904
      6 C6          0.0021   -0.0041    0.0020 C.ar      1 <0>        -0.0661
      7 C7         -1.2642   -0.7606    0.0105 C.2       1 <0>         0.2069
      8 C8         -2.4374   -0.0724    0.0203 C.2       1 <0>        -0.3067
      9 C9         -3.6620   -0.7813    0.0286 C.2       1 <0>         0.4226
     10 O1         -4.7331   -0.1964    0.0371 O.2       1 <0>        -0.4521
     11 C10        -3.5935   -2.2524    0.0260 C.ar      1 <0>        -0.2661
     12 C11        -4.7554   -3.0344    0.0332 C.ar      1 <0>         0.2196
     13 C12        -4.6484   -4.4128    0.0300 C.ar      1 <0>        -0.2046
     14 C13        -3.3955   -5.0163    0.0203 C.ar      1 <0>         0.1928
     15 C14        -2.2415   -4.2483    0.0131 C.ar      1 <0>        -0.1829
     16 C15        -2.3286   -2.8648    0.0157 C.ar      1 <0>         0.1832
     17 O2         -1.2147   -2.1022    0.0028 O.3       1 <0>        -0.2181
     18 O3         -3.3016   -6.3705    0.0182 O.3       1 <0>        -0.4872
     19 O4         -5.9771   -2.4436    0.0436 O.3       1 <0>        -0.4722
     20 O5          3.5971   -0.6274   -0.0366 O.3       1 <0>        -0.4831
     21 O6          3.5446    2.1239   -0.0217 O.3       1 <0>        -0.4848
     22 H1         -0.9593    1.9201    0.0260 H         1 <0>         0.1451
     23 H2          1.1515    3.1781    0.0081 H         1 <0>         0.1468
     24 H3          1.2430   -1.7630   -0.0205 H         1 <0>         0.1466
     25 H4         -2.4342    1.0076    0.0222 H         1 <0>         0.1649
     26 H5         -5.5400   -5.0224    0.0355 H         1 <0>         0.1504
     27 H6         -1.2739   -4.7281    0.0059 H         1 <0>         0.1535
     28 H7         -3.2809   -6.7620   -0.8658 H         1 <0>         0.4041
     29 H8         -6.3379   -2.2705   -0.8367 H         1 <0>         0.4034
     30 H9          3.9502   -0.8223    0.8423 H         1 <0>         0.3919
     31 H10         3.8907    2.3221    0.8592 H         1 <0>         0.3948
@<TRIPOS>BOND
     1    1    6 ar
     2    1    2 ar
     3    1   22 1
     4    2    3 ar
     5    2   23 1
     6    3    4 ar
     7    3   21 1
     8    4    5 ar
     9    4   20 1
    10    5    6 ar
    11    5   24 1
    12    6    7 1
    13    7   17 1
    14    7    8 2
    15    8    9 1
    16    8   25 1
    17    9   10 2
    18    9   11 1
    19   11   16 ar
    20   11   12 ar
    21   12   13 ar
    22   12   19 1
    23   13   14 ar
    24   13   26 1
    25   14   15 ar
    26   14   18 1
    27   15   16 ar
    28   15   27 1
    29   16   17 1
    30   18   28 1
    31   19   29 1
    32   20   30 1
    33   21   31 1
@<TRIPOS>MOLECULE
ZINC03870413
   51    54     0     0     0
SMALL
USER_CHARGES

@<TRIPOS>ATOM
      1 C1         -0.0167    1.3824    0.0096 C.ar      1 <0>        -0.1111
      2 C2          1.1697    2.0917    0.0021 C.ar      1 <0>        -0.0659
      3 C3          2.3792    1.4226   -0.0135 C.ar      1 <0>        -0.1117
      4 C4          2.4066    0.0362   -0.0217 C.ar      1 <0>         0.0966
      5 C5          1.2160   -0.6806   -0.0137 C.ar      1 <0>         0.0646
      6 C6          0.0021   -0.0041    0.0020 C.ar      1 <0>         0.0987
      7 O1         -1.1658   -0.7009    0.0099 O.3       1 <0>        -0.4881
      8 O2          1.2387   -2.0413   -0.0217 O.3       1 <0>        -0.4793
      9 O3          3.5971   -0.6212   -0.0380 O.3       1 <0>        -0.4822
     10 C7          1.1446    3.5984    0.0105 C.3       1 <0>         0.1443
     11 H1          0.1709    3.9512   -0.3294 H         1 <0>         0.1023
     12 C8          1.4132    4.1118    1.4309 C.3       1 <0>         0.0650
     13 H2          2.4232    3.8377    1.7358 H         1 <0>         0.1042
     14 C9          1.2714    5.6359    1.4258 C.3       1 <0>        -0.0873
     15 C10         2.0504    6.2145    0.2717 C.ar      1 <0>        -0.1901
     16 C11         2.3697    7.5676    0.2931 C.ar      1 <0>         0.1636
     17 C12         3.0805    8.1340   -0.7521 C.ar      1 <0>        -0.1961
     18 C13         3.4754    7.3482   -1.8246 C.ar      1 <0>         0.1601
     19 C14         3.1596    5.9999   -1.8458 C.ar      1 <0>        -0.1780
     20 C15         2.4473    5.4295   -0.7959 C.ar      1 <0>         0.1584
     21 O4          2.1661    4.1013   -0.8516 O.3       1 <0>        -0.2897
     22 O5          4.1708    7.9004   -2.8533 O.3       1 <0>        -0.4911
     23 O6          1.9825    8.3377    1.3437 O.3       1 <0>        -0.4901
     24 O7          0.4655    3.5421    2.3362 O.3       1 <0>        -0.3276
     25 C16         0.8706    3.3540    3.6075 C.2       1 <0>         0.5158
     26 O8          1.9976    3.6651    3.9384 O.2       1 <0>        -0.4919
     27 C17        -0.0539    2.7705    4.5973 C.ar      1 <0>        -0.1046
     28 C18        -1.3486    2.4069    4.2168 C.ar      1 <0>        -0.0781
     29 C19        -2.2130    1.8604    5.1465 C.ar      1 <0>         0.0876
     30 C20        -1.7950    1.6722    6.4614 C.ar      1 <0>         0.0963
     31 C21        -0.5058    2.0340    6.8434 C.ar      1 <0>         0.0877
     32 C22         0.3649    2.5748    5.9163 C.ar      1 <0>        -0.0735
     33 O9         -0.1010    1.8493    8.1286 O.3       1 <0>        -0.4775
     34 O10        -2.6470    1.1351    7.3735 O.3       1 <0>        -0.4722
     35 O11        -3.4730    1.5063    4.7768 O.3       1 <0>        -0.4781
     36 H3         -0.9596    1.9089    0.0260 H         1 <0>         0.1426
     37 H4          3.3040    1.9803   -0.0197 H         1 <0>         0.1407
     38 H5         -1.5123   -0.8977   -0.8712 H         1 <0>         0.3979
     39 H6          1.2542   -2.4396    0.8593 H         1 <0>         0.3907
     40 H7          3.9506   -0.8164    0.8407 H         1 <0>         0.3909
     41 H8          0.2194    5.9019    1.3230 H         1 <0>         0.0969
     42 H9          1.6571    6.0391    2.3621 H         1 <0>         0.0935
     43 H10         3.3265    9.1854   -0.7322 H         1 <0>         0.1413
     44 H11         3.4673    5.3887   -2.6814 H         1 <0>         0.1441
     45 H12         5.1305    7.8764   -2.7370 H         1 <0>         0.3980
     46 H13         2.6278    8.3752    2.0628 H         1 <0>         0.3962
     47 H14        -1.6735    2.5533    3.1972 H         1 <0>         0.1537
     48 H15         1.3663    2.8508    6.2120 H         1 <0>         0.1533
     49 H16         0.3044    0.9870    8.2932 H         1 <0>         0.3932
     50 H17        -2.6056    0.1706    7.4302 H         1 <0>         0.3925
     51 H18        -3.5492    0.5951    4.4623 H         1 <0>         0.3937
@<TRIPOS>BOND
     1    1    6 ar
     2    1    2 ar
     3    1   36 1
     4    2    3 ar
     5    2   10 1
     6    3    4 ar
     7    3   37 1
     8    4    5 ar
     9    4    9 1
    10    5    6 ar
    11    5    8 1
    12    6    7 1
    13    7   38 1
    14    8   39 1
    15    9   40 1
    16   10   11 1
    17   10   21 1
    18   10   12 1
    19   12   13 1
    20   12   14 1
    21   12   24 1
    22   14   15 1
    23   14   41 1
    24   14   42 1
    25   15   20 ar
    26   15   16 ar
    27   16   17 ar
    28   16   23 1
    29   17   18 ar
    30   17   43 1
    31   18   19 ar
    32   18   22 1
    33   19   20 ar
    34   19   44 1
    35   20   21 1
    36   22   45 1
    37   23   46 1
    38   24   25 1
    39   25   26 2
    40   25   27 1
    41   27   32 ar
    42   27   28 ar
    43   28   29 ar
    44   28   47 1
    45   29   30 ar
    46   29   35 1
    47   30   31 ar
    48   30   34 1
    49   31   32 ar
    50   31   33 1
    51   32   48 1
    52   33   49 1
    53   34   50 1
    54   35   51 1
@<TRIPOS>MOLECULE
ZINC03881558
   32    34     0     0     0
SMALL
USER_CHARGES

@<TRIPOS>ATOM
      1 C1          0.9052   -0.1467    1.0522 C.ar      1 <0>        -0.1565
      2 C2          2.0886    0.5573    1.0482 C.ar      1 <0>        -0.0345
      3 C3          2.3852    1.4179   -0.0128 C.ar      1 <0>        -0.0868
      4 C4          1.4728    1.5594   -1.0699 C.ar      1 <0>         0.1612
      5 C5          0.2873    0.8465   -1.0541 C.ar      1 <0>        -0.1813
      6 C6          0.0026   -0.0050    0.0040 C.ar      1 <0>         0.1466
      7 O1         -1.1619   -0.7032    0.0155 O.3       1 <0>        -0.4954
      8 O2          1.7525    2.3931   -2.1040 O.3       1 <0>        -0.4874
      9 C7          3.6493    2.1731   -0.0211 C.2       1 <0>         0.1454
     10 C8          4.8251    1.4870    0.0631 C.2       1 <0>        -0.0495
     11 C9          6.0501    2.1994    0.0564 C.2       1 <0>         0.4010
     12 O3          7.1217    1.6189    0.1298 O.2       1 <0>        -0.4511
     13 C10         5.9806    3.6663   -0.0431 C.ar      1 <0>        -0.2700
     14 C11         7.1423    4.4494   -0.0571 C.ar      1 <0>         0.2234
     15 C12         7.0356    5.8242   -0.1521 C.ar      1 <0>        -0.2092
     16 C13         5.7833    6.4240   -0.2326 C.ar      1 <0>         0.1991
     17 C14         4.6299    5.6558   -0.2193 C.ar      1 <0>        -0.1847
     18 C15         4.7163    4.2750   -0.1251 C.ar      1 <0>         0.1884
     19 O4          3.6024    3.5130   -0.1169 O.3       1 <0>        -0.1881
     20 O5          5.6898    7.7753   -0.3247 O.3       1 <0>        -0.4870
     21 O6          8.3634    3.8623    0.0225 O.3       1 <0>        -0.4729
     22 O7          4.8218    0.1287    0.1534 O.3       1 <0>        -0.4506
     23 H1          0.6792   -0.8146    1.8703 H         1 <0>         0.1411
     24 H2          2.7870    0.4450    1.8643 H         1 <0>         0.1397
     25 H3         -0.4172    0.9528   -1.8658 H         1 <0>         0.1429
     26 H4         -1.8932   -0.2412    0.4478 H         1 <0>         0.3984
     27 H5          2.1585    1.9544   -2.8642 H         1 <0>         0.3964
     28 H6          7.9268    6.4342   -0.1635 H         1 <0>         0.1509
     29 H7          3.6630    6.1329   -0.2825 H         1 <0>         0.1552
     30 H8          5.6916    8.1087   -1.2324 H         1 <0>         0.4047
     31 H9          8.7464    3.6333   -0.8354 H         1 <0>         0.4032
     32 H10         5.7038   -0.2639    0.2085 H         1 <0>         0.4076
@<TRIPOS>BOND
     1    1    6 ar
     2    1    2 ar
     3    1   23 1
     4    2    3 ar
     5    2   24 1
     6    3    4 ar
     7    3    9 1
     8    4    5 ar
     9    4    8 1
    10    5    6 ar
    11    5   25 1
    12    6    7 1
    13    7   26 1
    14    8   27 1
    15    9   19 1
    16    9   10 2
    17   10   11 1
    18   10   22 1
    19   11   12 2
    20   11   13 1
    21   13   18 ar
    22   13   14 ar
    23   14   15 ar
    24   14   21 1
    25   15   16 ar
    26   15   28 1
    27   16   17 ar
    28   16   20 1
    29   17   18 ar
    30   17   29 1
    31   18   19 1
    32   20   30 1
    33   21   31 1
    34   22   32 1
@<TRIPOS>MOLECULE
ZINC03881558
   31    33     0     0     0
SMALL
USER_CHARGES

@<TRIPOS>ATOM
      1 C1          0.9066   -0.1484    1.0516 C.ar      1 <0>        -0.1572
      2 C2          2.0894    0.5549    1.0479 C.ar      1 <0>        -0.0408
      3 C3          2.3856    1.4179   -0.0130 C.ar      1 <0>        -0.0626
      4 C4          1.4712    1.5611   -1.0698 C.ar      1 <0>         0.1560
      5 C5          0.2858    0.8482   -1.0534 C.ar      1 <0>        -0.1811
      6 C6          0.0026   -0.0049    0.0039 C.ar      1 <0>         0.1305
      7 O1         -1.1617   -0.7029    0.0156 O.3       1 <0>        -0.4978
      8 O2          1.7495    2.3961   -2.1027 O.3       1 <0>        -0.4833
      9 C7          3.6479    2.1718   -0.0213 C.2       1 <0>         0.1128
     10 C8          4.8478    1.4863    0.0634 C.2       1 <0>        -0.0129
     11 C9          6.0531    2.1961    0.0561 C.2       1 <0>         0.3353
     12 C10         6.0031    3.6049   -0.0388 C.2       1 <0>        -0.3332
     13 C11         7.1882    4.3693   -0.0509 C.2       1 <0>         0.2654
     14 C12         7.1183    5.7295   -0.1436 C.2       1 <0>        -0.3752
     15 C13         5.8717    6.3701   -0.2268 C.2       1 <0>         0.3642
     16 O3          5.8143    7.7005   -0.3175 O.2       1 <0>        -0.6621
     17 C14         4.6896    5.6225   -0.2157 C.2       1 <0>        -0.3147
     18 C15         4.7470    4.2452   -0.1223 C.2       1 <0>         0.2123
     19 O4          3.6137    3.5122   -0.1166 O.3       1 <0>        -0.1923
     20 O5          8.3951    3.7542    0.0298 O.3       1 <0>        -0.4485
     21 O6          7.2380    1.5494    0.1382 O.3       1 <0>        -0.5774
     22 O7          4.8545    0.1285    0.1539 O.3       1 <0>        -0.4664
     23 H1          0.6811   -0.8175    1.8688 H         1 <0>         0.1360
     24 H2          2.7885    0.4410    1.8632 H         1 <0>         0.1386
     25 H3         -0.4199    0.9559   -1.8638 H         1 <0>         0.1385
     26 H4         -1.8925   -0.2415    0.4494 H         1 <0>         0.3926
     27 H5          2.1547    1.9586   -2.8640 H         1 <0>         0.3945
     28 H6          8.0256    6.3153   -0.1526 H         1 <0>         0.1174
     29 H7          3.7337    6.1210   -0.2796 H         1 <0>         0.1223
     30 H8          9.1477    4.3612    0.0139 H         1 <0>         0.3841
     31 H9          5.7394   -0.2577    0.2084 H         1 <0>         0.4052
@<TRIPOS>BOND
     1    1    6 ar
     2    1    2 ar
     3    1   23 1
     4    2    3 ar
     5    2   24 1
     6    3    4 ar
     7    3    9 1
     8    4    5 ar
     9    4    8 1
    10    5    6 ar
    11    5   25 1
    12    6    7 1
    13    7   26 1
    14    8   27 1
    15    9   19 1
    16    9   10 2
    17   10   11 1
    18   10   22 1
    19   11   12 2
    20   11   21 1
    21   12   18 1
    22   12   13 1
    23   13   14 2
    24   13   20 1
    25   14   15 1
    26   14   28 1
    27   15   16 2
    28   15   17 1
    29   17   18 2
    30   17   29 1
    31   18   19 1
    32   20   30 1
    33   22   31 1
@<TRIPOS>MOLECULE
ZINC03870412
   51    54     0     0     0
SMALL
USER_CHARGES

@<TRIPOS>ATOM
      1 C1         -0.0167    1.3824    0.0096 C.ar      1 <0>        -0.1232
      2 C2          1.1697    2.0917    0.0021 C.ar      1 <0>        -0.0728
      3 C3          2.3792    1.4226   -0.0135 C.ar      1 <0>        -0.0978
      4 C4          2.4066    0.0362   -0.0217 C.ar      1 <0>         0.0943
      5 C5          1.2160   -0.6806   -0.0137 C.ar      1 <0>         0.0658
      6 C6          0.0021   -0.0041    0.0020 C.ar      1 <0>         0.0986
      7 O1         -1.1658   -0.7009    0.0099 O.3       1 <0>        -0.4875
      8 O2          1.2387   -2.0413   -0.0217 O.3       1 <0>        -0.4804
      9 O3          3.5971   -0.6212   -0.0380 O.3       1 <0>        -0.4833
     10 C7          1.1446    3.5984    0.0105 C.3       1 <0>         0.1463
     11 H1          0.2126    3.9475    0.4550 H         1 <0>         0.1098
     12 C8          1.2611    4.1251   -1.4256 C.3       1 <0>         0.0607
     13 H2          0.4684    3.6972   -2.0393 H         1 <0>         0.1110
     14 C9          1.1215    5.6490   -1.3913 C.3       1 <0>        -0.0887
     15 C10         2.0188    6.2172   -0.3211 C.ar      1 <0>        -0.1934
     16 C11         2.3348    7.5707   -0.3637 C.ar      1 <0>         0.1618
     17 C12         3.1535    8.1275    0.6048 C.ar      1 <0>        -0.1998
     18 C13         3.6597    7.3319    1.6220 C.ar      1 <0>         0.1590
     19 C14         3.3464    5.9836    1.6646 C.ar      1 <0>        -0.1810
     20 C15         2.5265    5.4225    0.6909 C.ar      1 <0>         0.1700
     21 O4          2.2521    4.0938    0.7639 O.3       1 <0>        -0.2919
     22 O5          4.4620    7.8746    2.5751 O.3       1 <0>        -0.4915
     23 O6          1.8385    8.3503   -1.3601 O.3       1 <0>        -0.4908
     24 O7          2.5347    3.7694   -1.9673 O.3       1 <0>        -0.3234
     25 C16         2.6005    3.5753   -3.2991 C.2       1 <0>         0.5152
     26 O8          1.6037    3.7045   -3.9818 O.2       1 <0>        -0.4949
     27 C17         3.8823    3.2060   -3.9281 C.ar      1 <0>        -0.1035
     28 C18         5.0283    3.0514   -3.1432 C.ar      1 <0>        -0.0764
     29 C19         6.2283    2.7053   -3.7353 C.ar      1 <0>         0.0874
     30 C20         6.2961    2.5111   -5.1125 C.ar      1 <0>         0.0957
     31 C21         5.1559    2.6649   -5.8970 C.ar      1 <0>         0.0871
     32 C22         3.9519    3.0043   -5.3093 C.ar      1 <0>        -0.0733
     33 O9          5.2258    2.4749   -7.2418 O.3       1 <0>        -0.4778
     34 O10         7.4772    2.1713   -5.6921 O.3       1 <0>        -0.4725
     35 O11         7.3439    2.5547   -2.9722 O.3       1 <0>        -0.4781
     36 H3         -0.9596    1.9089    0.0260 H         1 <0>         0.1412
     37 H4          3.3040    1.9803   -0.0197 H         1 <0>         0.1453
     38 H5         -1.5123   -0.8977   -0.8712 H         1 <0>         0.3973
     39 H6          1.2542   -2.4396    0.8593 H         1 <0>         0.3921
     40 H7          3.9506   -0.8164    0.8407 H         1 <0>         0.3917
     41 H8          1.4057    6.0611   -2.3595 H         1 <0>         0.0993
     42 H9          0.0865    5.9136   -1.1749 H         1 <0>         0.0973
     43 H10         3.3971    9.1790    0.5682 H         1 <0>         0.1392
     44 H11         3.7408    5.3648    2.4571 H         1 <0>         0.1416
     45 H12         3.9848    8.2124    3.3453 H         1 <0>         0.3966
     46 H13         0.9859    8.7570   -1.1536 H         1 <0>         0.3948
     47 H14         4.9764    3.2026   -2.0751 H         1 <0>         0.1522
     48 H15         3.0669    3.1188   -5.9176 H         1 <0>         0.1531
     49 H16         5.0544    1.5647   -7.5199 H         1 <0>         0.3927
     50 H17         7.6276    1.2177   -5.7487 H         1 <0>         0.3919
     51 H18         7.4749    1.6560   -2.6401 H         1 <0>         0.3928
@<TRIPOS>BOND
     1    1    6 ar
     2    1    2 ar
     3    1   36 1
     4    2    3 ar
     5    2   10 1
     6    3    4 ar
     7    3   37 1
     8    4    5 ar
     9    4    9 1
    10    5    6 ar
    11    5    8 1
    12    6    7 1
    13    7   38 1
    14    8   39 1
    15    9   40 1
    16   10   11 1
    17   10   21 1
    18   10   12 1
    19   12   13 1
    20   12   14 1
    21   12   24 1
    22   14   15 1
    23   14   41 1
    24   14   42 1
    25   15   20 ar
    26   15   16 ar
    27   16   17 ar
    28   16   23 1
    29   17   18 ar
    30   17   43 1
    31   18   19 ar
    32   18   22 1
    33   19   20 ar
    34   19   44 1
    35   20   21 1
    36   22   45 1
    37   23   46 1
    38   24   25 1
    39   25   26 2
    40   25   27 1
    41   27   32 ar
    42   27   28 ar
    43   28   29 ar
    44   28   47 1
    45   29   30 ar
    46   29   35 1
    47   30   31 ar
    48   30   34 1
    49   31   32 ar
    50   31   33 1
    51   32   48 1
    52   33   49 1
    53   34   50 1
    54   35   51 1
@<TRIPOS>MOLECULE
ZINC00039111
   31    33     0     0     0
SMALL
USER_CHARGES

@<TRIPOS>ATOM
      1 C1          0.9742   -0.2756   -0.9644 C.ar      1 <0>        -0.0745
      2 C2          2.1570    0.4328   -0.9701 C.ar      1 <0>        -0.1346
      3 C3          2.3856    1.4156   -0.0177 C.ar      1 <0>         0.1033
      4 C4          1.4202    1.6919    0.9495 C.ar      1 <0>         0.0786
      5 C5          0.2328    0.9864    0.9617 C.ar      1 <0>        -0.0758
      6 C6          0.0021   -0.0041    0.0020 C.ar      1 <0>        -0.0456
      7 C7         -1.2635   -0.7604    0.0100 C.2       1 <0>         0.1403
      8 C8         -2.4368   -0.0754    0.1235 C.2       1 <0>        -0.0467
      9 C9         -3.6626   -0.7880    0.1323 C.2       1 <0>         0.4008
     10 O1         -4.7322   -0.2087    0.2318 O.2       1 <0>        -0.4629
     11 C10        -3.5944   -2.2557    0.0159 C.ar      1 <0>        -0.2366
     12 C11        -4.7512   -3.0365    0.0154 C.ar      1 <0>        -0.0073
     13 C12        -4.6525   -4.3943   -0.0945 C.ar      1 <0>        -0.1753
     14 C13        -3.4042   -5.0031   -0.2055 C.ar      1 <0>         0.1824
     15 C14        -2.2474   -4.2422   -0.2064 C.ar      1 <0>        -0.1738
     16 C15        -2.3310   -2.8613   -0.0960 C.ar      1 <0>         0.1711
     17 O2         -1.2180   -2.0989   -0.1002 O.3       1 <0>        -0.1986
     18 O3         -3.3214   -6.3539   -0.3130 O.3       1 <0>        -0.4899
     19 O4         -2.4315    1.2815    0.2279 O.3       1 <0>        -0.4510
     20 O5          1.6479    2.6559    1.8814 O.3       1 <0>        -0.4836
     21 O6          3.5534    2.1101   -0.0273 O.3       1 <0>        -0.4861
     22 H1          0.7972   -1.0372   -1.7094 H         1 <0>         0.1379
     23 H2          2.9076    0.2220   -1.7175 H         1 <0>         0.1421
     24 H3         -0.5155    1.1990    1.7108 H         1 <0>         0.1431
     25 H4         -5.7208   -2.5688    0.1018 H         1 <0>         0.1490
     26 H5         -5.5471   -4.9994   -0.0951 H         1 <0>         0.1454
     27 H6         -1.2834   -4.7216   -0.2925 H         1 <0>         0.1536
     28 H7         -3.3428   -6.6780   -1.2239 H         1 <0>         0.4038
     29 H8         -3.3122    1.6736    0.3036 H         1 <0>         0.4078
     30 H9          1.3507    3.5371    1.6164 H         1 <0>         0.3905
     31 H10         3.5286    2.9137   -0.5648 H         1 <0>         0.3925
@<TRIPOS>BOND
     1    1    6 ar
     2    1    2 ar
     3    1   22 1
     4    2    3 ar
     5    2   23 1
     6    3    4 ar
     7    3   21 1
     8    4    5 ar
     9    4   20 1
    10    5    6 ar
    11    5   24 1
    12    6    7 1
    13    7   17 1
    14    7    8 2
    15    8    9 1
    16    8   19 1
    17    9   10 2
    18    9   11 1
    19   11   16 ar
    20   11   12 ar
    21   12   13 ar
    22   12   25 1
    23   13   14 ar
    24   13   26 1
    25   14   15 ar
    26   14   18 1
    27   15   16 ar
    28   15   27 1
    29   16   17 1
    30   18   28 1
    31   19   29 1
    32   20   30 1
    33   21   31 1
@<TRIPOS>MOLECULE
ZINC03978503
   50    53     0     0     0
SMALL
USER_CHARGES

@<TRIPOS>ATOM
      1 C1         -0.0167    1.3779    0.0096 C.ar      1 <0>        -0.0710
      2 C2          1.1696    2.0886    0.0021 C.ar      1 <0>        -0.1332
      3 C3          2.3802    1.4154   -0.0130 C.ar      1 <0>         0.0923
      4 C4          2.3990    0.0236   -0.0206 C.ar      1 <0>         0.0809
      5 C5          1.2071   -0.6822   -0.0130 C.ar      1 <0>        -0.1138
      6 C6          0.0021   -0.0041    0.0020 C.ar      1 <0>        -0.0888
      7 C7         -1.2936   -0.7736    0.0102 C.3       1 <0>         0.1463
      8 H1         -1.1302   -1.7631    0.4371 H         1 <0>         0.1070
      9 C8         -1.8224   -0.9103   -1.4233 C.3       1 <0>         0.0610
     10 H2         -1.0636   -1.3761   -2.0520 H         1 <0>         0.1107
     11 C9         -3.0759   -1.7881   -1.3913 C.3       1 <0>        -0.0890
     12 C10        -4.0042   -1.3085   -0.3042 C.ar      1 <0>        -0.1933
     13 C11        -5.3364   -1.7051   -0.3406 C.ar      1 <0>         0.1616
     14 C12        -6.2168   -1.2864    0.6434 C.ar      1 <0>        -0.2002
     15 C13        -5.7673   -0.4690    1.6698 C.ar      1 <0>         0.1586
     16 C14        -4.4409   -0.0726    1.7062 C.ar      1 <0>        -0.1813
     17 C15        -3.5564   -0.4901    0.7171 C.ar      1 <0>         0.1702
     18 O1         -2.2659   -0.0703    0.7846 O.3       1 <0>        -0.2917
     19 O2         -6.6274   -0.0572    2.6380 O.3       1 <0>        -0.4915
     20 O3         -5.7767   -2.5064   -1.3460 O.3       1 <0>        -0.4909
     21 O4         -2.1505    0.3807   -1.9409 O.3       1 <0>        -0.3234
     22 C16        -2.0274    0.5558   -3.2712 C.2       1 <0>         0.5140
     23 O5         -1.6517   -0.3624   -3.9727 O.2       1 <0>        -0.4936
     24 C17        -2.3486    1.8620   -3.8759 C.ar      1 <0>        -0.1023
     25 C18        -2.7754    2.9208   -3.0695 C.ar      1 <0>        -0.0785
     26 C19        -3.0757    4.1438   -3.6389 C.ar      1 <0>         0.0863
     27 C20        -2.9540    4.3216   -5.0146 C.ar      1 <0>         0.0952
     28 C21        -2.5294    3.2683   -5.8204 C.ar      1 <0>         0.0877
     29 C22        -2.2213    2.0451   -5.2556 C.ar      1 <0>        -0.0731
     30 O6         -2.4120    3.4452   -7.1638 O.3       1 <0>        -0.4777
     31 O7         -3.2504    5.5249   -5.5717 O.3       1 <0>        -0.4723
     32 O8         -3.4911    5.1745   -2.8548 O.3       1 <0>        -0.4778
     33 O9          3.5850   -0.6417   -0.0359 O.3       1 <0>        -0.4851
     34 O10         3.5476    2.1129   -0.0209 O.3       1 <0>        -0.4874
     35 H3         -0.9598    1.9038    0.0259 H         1 <0>         0.1390
     36 H4          1.1522    3.1684    0.0077 H         1 <0>         0.1372
     37 H5          1.2190   -1.7621   -0.0189 H         1 <0>         0.1374
     38 H6         -3.5841   -1.7300   -2.3539 H         1 <0>         0.0989
     39 H7         -2.7902   -2.8214   -1.1946 H         1 <0>         0.0968
     40 H8         -7.2509   -1.5961    0.6116 H         1 <0>         0.1390
     41 H9         -4.0917    0.5638    2.5059 H         1 <0>         0.1417
     42 H10        -6.6766   -0.6517    3.3991 H         1 <0>         0.3964
     43 H11        -5.7049   -3.4517   -1.1556 H         1 <0>         0.3947
     44 H12        -2.8707    2.7833   -2.0026 H         1 <0>         0.1528
     45 H13        -1.8875    1.2299   -5.8805 H         1 <0>         0.1534
     46 H14        -1.5394    3.7526   -7.4452 H         1 <0>         0.3929
     47 H15        -2.4976    6.1295   -5.6256 H         1 <0>         0.3917
     48 H16        -2.7726    5.7287   -2.5204 H         1 <0>         0.3921
     49 H17         3.9367   -0.8389    0.8430 H         1 <0>         0.3894
     50 H18         3.8938    2.3101    0.8602 H         1 <0>         0.3905
@<TRIPOS>BOND
     1    1    6 ar
     2    1    2 ar
     3    1   35 1
     4    2    3 ar
     5    2   36 1
     6    3    4 ar
     7    3   34 1
     8    4    5 ar
     9    4   33 1
    10    5    6 ar
    11    5   37 1
    12    6    7 1
    13    7    8 1
    14    7   18 1
    15    7    9 1
    16    9   10 1
    17    9   11 1
    18    9   21 1
    19   11   12 1
    20   11   38 1
    21   11   39 1
    22   12   17 ar
    23   12   13 ar
    24   13   14 ar
    25   13   20 1
    26   14   15 ar
    27   14   40 1
    28   15   16 ar
    29   15   19 1
    30   16   17 ar
    31   16   41 1
    32   17   18 1
    33   19   42 1
    34   20   43 1
    35   21   22 1
    36   22   23 2
    37   22   24 1
    38   24   29 ar
    39   24   25 ar
    40   25   26 ar
    41   25   44 1
    42   26   27 ar
    43   26   32 1
    44   27   28 ar
    45   27   31 1
    46   28   29 ar
    47   28   30 1
    48   29   45 1
    49   30   46 1
    50   31   47 1
    51   32   48 1
    52   33   49 1
    53   34   50 1
@<TRIPOS>MOLECULE
ZINC00517261
   35    37     0     0     0
SMALL
USER_CHARGES

@<TRIPOS>ATOM
      1 C1          2.3589    0.6470    0.7586 C.3       1 <0>         0.0223
      2 O1          1.5806   -0.5228    0.4979 O.3       1 <0>        -0.3046
      3 C2          1.4050   -0.8698   -0.8053 C.ar      1 <0>         0.0999
      4 C3          1.9734   -0.1054   -1.8063 C.ar      1 <0>        -0.1620
      5 C4          1.7913   -0.4653   -3.1446 C.ar      1 <0>        -0.0203
      6 C5          1.0351   -1.5966   -3.4638 C.ar      1 <0>        -0.0846
      7 C6          0.4712   -2.3541   -2.4598 C.ar      1 <0>        -0.1098
      8 C7          0.6567   -1.9995   -1.1308 C.ar      1 <0>         0.0974
      9 O2          0.1029   -2.7528   -0.1448 O.3       1 <0>        -0.4841
     10 C8          2.3950    0.3469   -4.2171 C.2       1 <0>         0.1312
     11 C9          3.0776   -0.2846   -5.2130 C.2       1 <0>        -0.0399
     12 C10         3.6640    0.4829   -6.2526 C.2       1 <0>         0.4007
     13 O3          4.2823   -0.0479   -7.1614 O.2       1 <0>        -0.4475
     14 C11         3.4970    1.9438   -6.1925 C.ar      1 <0>        -0.2690
     15 C12         4.0422    2.7786   -7.1770 C.ar      1 <0>         0.2248
     16 C13         3.8632    4.1461   -7.0855 C.ar      1 <0>        -0.2084
     17 C14         3.1468    4.6876   -6.0232 C.ar      1 <0>         0.1999
     18 C15         2.6052    3.8681   -5.0455 C.ar      1 <0>        -0.1864
     19 C16         2.7735    2.4937   -5.1200 C.ar      1 <0>         0.1873
     20 O4          2.2470    1.6822   -4.1790 O.3       1 <0>        -0.1984
     21 O5          2.9770    6.0321   -5.9430 O.3       1 <0>        -0.4869
     22 O6          4.7412    2.2485   -8.2125 O.3       1 <0>        -0.4726
     23 O7          3.1964   -1.6403   -5.2106 O.3       1 <0>        -0.4473
     24 H1          3.3619    0.5138    0.3533 H         1 <0>         0.0571
     25 H2          1.8879    1.5094    0.2868 H         1 <0>         0.0576
     26 H3          2.4205    0.8101    1.8345 H         1 <0>         0.1047
     27 H4          2.5567    0.7682   -1.5552 H         1 <0>         0.1392
     28 H5          0.8923   -1.8769   -4.4970 H         1 <0>         0.1391
     29 H6         -0.1129   -3.2281   -2.7077 H         1 <0>         0.1457
     30 H7         -0.7889   -2.4767    0.1073 H         1 <0>         0.3912
     31 H8          4.2808    4.7958   -7.8404 H         1 <0>         0.1515
     32 H9          2.0512    4.3003   -4.2253 H         1 <0>         0.1549
     33 H10         2.1822    6.3554   -6.3888 H         1 <0>         0.4051
     34 H11         4.1983    2.0283   -8.9819 H         1 <0>         0.4039
     35 H12         3.6982   -1.9925   -5.9584 H         1 <0>         0.4078
@<TRIPOS>BOND
     1    1    2 1
     2    1   24 1
     3    1   25 1
     4    1   26 1
     5    2    3 1
     6    3    8 ar
     7    3    4 ar
     8    4    5 ar
     9    4   27 1
    10    5    6 ar
    11    5   10 1
    12    6    7 ar
    13    6   28 1
    14    7    8 ar
    15    7   29 1
    16    8    9 1
    17    9   30 1
    18   10   20 1
    19   10   11 2
    20   11   12 1
    21   11   23 1
    22   12   13 2
    23   12   14 1
    24   14   19 ar
    25   14   15 ar
    26   15   16 ar
    27   15   22 1
    28   16   17 ar
    29   16   31 1
    30   17   18 ar
    31   17   21 1
    32   18   19 ar
    33   18   32 1
    34   19   20 1
    35   21   33 1
    36   22   34 1
    37   23   35 1
@<TRIPOS>MOLECULE
ZINC03869685
   32    34     0     0     0
SMALL
USER_CHARGES

@<TRIPOS>ATOM
      1 C1          0.9741   -0.2755   -0.9644 C.ar      1 <0>        -0.0748
      2 C2          2.1569    0.4329   -0.9701 C.ar      1 <0>        -0.1346
      3 C3          2.3856    1.4156   -0.0177 C.ar      1 <0>         0.1032
      4 C4          1.4203    1.6918    0.9495 C.ar      1 <0>         0.0788
      5 C5          0.2328    0.9863    0.9617 C.ar      1 <0>        -0.0762
      6 C6          0.0021   -0.0041    0.0020 C.ar      1 <0>        -0.0447
      7 C7         -1.2637   -0.7605    0.0100 C.2       1 <0>         0.1350
      8 C8         -2.4363   -0.0759    0.1235 C.2       1 <0>        -0.0429
      9 C9         -3.6628   -0.7894    0.1327 C.2       1 <0>         0.4011
     10 O1         -4.7327   -0.2102    0.2323 O.2       1 <0>        -0.4484
     11 C10        -3.5946   -2.2549    0.0170 C.ar      1 <0>        -0.2690
     12 C11        -4.7561   -3.0387    0.0170 C.ar      1 <0>         0.2244
     13 C12        -4.6504   -4.4123   -0.0941 C.ar      1 <0>        -0.2081
     14 C13        -3.3994   -5.0103   -0.2044 C.ar      1 <0>         0.2000
     15 C14        -2.2463   -4.2416   -0.2047 C.ar      1 <0>        -0.1854
     16 C15        -2.3316   -2.8618   -0.0952 C.ar      1 <0>         0.1876
     17 O2         -1.2182   -2.0992   -0.1003 O.3       1 <0>        -0.1970
     18 O3         -3.3070   -6.3605   -0.3125 O.3       1 <0>        -0.4866
     19 O4         -5.9758   -2.4535    0.1257 O.3       1 <0>        -0.4726
     20 O5         -2.4312    1.2810    0.2275 O.3       1 <0>        -0.4502
     21 O6          1.6480    2.6557    1.8815 O.3       1 <0>        -0.4836
     22 O7          3.5534    2.1101   -0.0273 O.3       1 <0>        -0.4861
     23 H1          0.7971   -1.0371   -1.7094 H         1 <0>         0.1379
     24 H2          2.9075    0.2221   -1.7176 H         1 <0>         0.1421
     25 H3         -0.5155    1.1988    1.7108 H         1 <0>         0.1429
     26 H4         -5.5413   -5.0229   -0.0948 H         1 <0>         0.1515
     27 H5         -1.2805   -4.7174   -0.2903 H         1 <0>         0.1559
     28 H6         -3.3257   -6.6843   -1.2235 H         1 <0>         0.4050
     29 H7         -6.3751   -2.2160   -0.7224 H         1 <0>         0.4036
     30 H8         -3.3120    1.6729    0.3033 H         1 <0>         0.4079
     31 H9          1.3508    3.5370    1.6166 H         1 <0>         0.3905
     32 H10         3.5287    2.9137   -0.5647 H         1 <0>         0.3924
@<TRIPOS>BOND
     1    1    6 ar
     2    1    2 ar
     3    1   23 1
     4    2    3 ar
     5    2   24 1
     6    3    4 ar
     7    3   22 1
     8    4    5 ar
     9    4   21 1
    10    5    6 ar
    11    5   25 1
    12    6    7 1
    13    7   17 1
    14    7    8 2
    15    8    9 1
    16    8   20 1
    17    9   10 2
    18    9   11 1
    19   11   16 ar
    20   11   12 ar
    21   12   13 ar
    22   12   19 1
    23   13   14 ar
    24   13   26 1
    25   14   15 ar
    26   14   18 1
    27   15   16 ar
    28   15   27 1
    29   16   17 1
    30   18   28 1
    31   19   29 1
    32   20   30 1
    33   21   31 1
    34   22   32 1
@<TRIPOS>MOLECULE
ZINC03869685
   31    33     0     0     0
SMALL
USER_CHARGES

@<TRIPOS>ATOM
      1 C1          0.1390    1.1246   -0.8120 C.ar      1 <0>        -0.0626
      2 C2          1.3229    1.8301   -0.8179 C.ar      1 <0>        -0.1333
      3 C3          2.3812    1.4233   -0.0172 C.ar      1 <0>         0.0878
      4 C4          2.2522    0.2984    0.7970 C.ar      1 <0>         0.0757
      5 C5          1.0694   -0.4139    0.8086 C.ar      1 <0>        -0.0997
      6 C6          0.0021   -0.0041    0.0020 C.ar      1 <0>        -0.0194
      7 C7         -1.2620   -0.7597    0.0100 C.2       1 <0>         0.1007
      8 C8         -2.4587   -0.0763    0.1245 C.2       1 <0>        -0.0038
      9 C9         -3.6655   -0.7872    0.1324 C.2       1 <0>         0.3349
     10 C10        -3.6167   -2.1939    0.0219 C.2       1 <0>        -0.3331
     11 C11        -4.8018   -2.9593    0.0240 C.2       1 <0>         0.2664
     12 C12        -4.7326   -4.3182   -0.0844 C.2       1 <0>        -0.3749
     13 C13        -3.4871   -4.9570   -0.1979 C.2       1 <0>         0.3648
     14 O1         -3.4307   -6.2860   -0.3033 O.2       1 <0>        -0.6598
     15 C14        -2.3054   -4.2086   -0.2016 C.2       1 <0>        -0.3143
     16 C15        -2.3616   -2.8325   -0.0921 C.2       1 <0>         0.2118
     17 O2         -1.2290   -2.0988   -0.0996 O.3       1 <0>        -0.2018
     18 O3         -6.0073   -2.3463    0.1339 O.3       1 <0>        -0.4482
     19 O4         -4.8484   -0.1420    0.2437 O.3       1 <0>        -0.5747
     20 O5         -2.4638    1.2803    0.2294 O.3       1 <0>        -0.4649
     21 O6          3.2919   -0.0973    1.5794 O.3       1 <0>        -0.4856
     22 O7          3.5458    2.1225   -0.0269 O.3       1 <0>        -0.4881
     23 H1         -0.6843    1.4460   -1.4327 H         1 <0>         0.1397
     24 H2          1.4276    2.7014   -1.4473 H         1 <0>         0.1381
     25 H3          0.9685   -1.2854    1.4384 H         1 <0>         0.1410
     26 H4         -5.6395   -4.9047   -0.0825 H         1 <0>         0.1180
     27 H5         -1.3506   -4.7057   -0.2895 H         1 <0>         0.1230
     28 H6         -6.7597   -2.9537    0.1258 H         1 <0>         0.3847
     29 H7         -3.3475    1.6656    0.3047 H         1 <0>         0.4058
     30 H8          3.2925    0.2977    2.4620 H         1 <0>         0.3855
     31 H9          3.5825    2.8346    0.6263 H         1 <0>         0.3863
@<TRIPOS>BOND
     1    1    6 ar
     2    1    2 ar
     3    1   23 1
     4    2    3 ar
     5    2   24 1
     6    3    4 ar
     7    3   22 1
     8    4    5 ar
     9    4   21 1
    10    5    6 ar
    11    5   25 1
    12    6    7 1
    13    7   17 1
    14    7    8 2
    15    8    9 1
    16    8   20 1
    17    9   10 2
    18    9   19 1
    19   10   16 1
    20   10   11 1
    21   11   12 2
    22   11   18 1
    23   12   13 1
    24   12   26 1
    25   13   14 2
    26   13   15 1
    27   15   16 2
    28   15   27 1
    29   16   17 1
    30   18   28 1
    31   20   29 1
    32   21   30 1
    33   22   31 1
