@<TRIPOS>MOLECULE
ZINC08681494
   50    53     0     0     0
SMALL
USER_CHARGES

@<TRIPOS>ATOM
      1 C1         -0.0167    1.3779    0.0096 C.ar      1 <0>        -0.0832
      2 C2          1.1696    2.0886    0.0021 C.ar      1 <0>        -0.1311
      3 C3          2.3802    1.4154   -0.0130 C.ar      1 <0>         0.0917
      4 C4          2.3990    0.0236   -0.0206 C.ar      1 <0>         0.0803
      5 C5          1.2071   -0.6822   -0.0130 C.ar      1 <0>        -0.1019
      6 C6          0.0021   -0.0041    0.0020 C.ar      1 <0>        -0.0826
      7 C7         -1.2936   -0.7736    0.0102 C.3       1 <0>         0.1441
      8 H1         -1.1201   -1.7884   -0.3479 H         1 <0>         0.0998
      9 C8         -1.8590   -0.8183    1.4356 C.3       1 <0>         0.0656
     10 H2         -2.1191    0.1894    1.7595 H         1 <0>         0.1043
     11 C9         -3.1120   -1.6975    1.4281 C.3       1 <0>        -0.0874
     12 C10        -4.0118   -1.2895    0.2891 C.ar      1 <0>        -0.1903
     13 C11        -5.3448   -1.6839    0.3168 C.ar      1 <0>         0.1635
     14 C12        -6.1992   -1.3308   -0.7146 C.ar      1 <0>        -0.1965
     15 C13        -5.7231   -0.5806   -1.7796 C.ar      1 <0>         0.1599
     16 C14        -4.3960   -0.1855   -1.8071 C.ar      1 <0>        -0.1784
     17 C15        -3.5373   -0.5380   -0.7709 C.ar      1 <0>         0.1588
     18 O1         -2.2452   -0.1223   -0.8323 O.3       1 <0>        -0.2898
     19 O2         -6.5574   -0.2342   -2.7948 O.3       1 <0>        -0.4911
     20 O3         -5.8113   -2.4194    1.3600 O.3       1 <0>        -0.4902
     21 O4         -0.8856   -1.3731    2.3226 O.3       1 <0>        -0.3279
     22 C16        -0.9111   -0.9489    3.6014 C.2       1 <0>         0.5148
     23 O5         -1.7371   -0.1303    3.9536 O.2       1 <0>        -0.4908
     24 C17         0.0636   -1.4782    4.5734 C.ar      1 <0>        -0.1031
     25 C18         1.0179   -2.4155    4.1683 C.ar      1 <0>        -0.0810
     26 C19         1.9301   -2.9098    5.0813 C.ar      1 <0>         0.0863
     27 C20         1.8987   -2.4752    6.4039 C.ar      1 <0>         0.0960
     28 C21         0.9488   -1.5418    6.8103 C.ar      1 <0>         0.0887
     29 C22         0.0384   -1.0391    5.9000 C.ar      1 <0>        -0.0732
     30 O6          0.9207   -1.1198    8.1029 O.3       1 <0>        -0.4774
     31 O7          2.7965   -2.9632    7.2996 O.3       1 <0>        -0.4719
     32 O8          2.8590   -3.8220    4.6878 O.3       1 <0>        -0.4773
     33 O9          3.5850   -0.6417   -0.0359 O.3       1 <0>        -0.4831
     34 O10         3.5476    2.1129   -0.0209 O.3       1 <0>        -0.4863
     35 H3         -0.9598    1.9038    0.0259 H         1 <0>         0.1345
     36 H4          1.1522    3.1684    0.0077 H         1 <0>         0.1380
     37 H5          1.2190   -1.7621   -0.0189 H         1 <0>         0.1388
     38 H6         -2.8221   -2.7410    1.3054 H         1 <0>         0.0963
     39 H7         -3.6445   -1.5781    2.3716 H         1 <0>         0.0930
     40 H8         -7.2339   -1.6393   -0.6898 H         1 <0>         0.1412
     41 H9         -4.0260    0.3985   -2.6368 H         1 <0>         0.1440
     42 H10        -7.0114    0.6089   -2.6604 H         1 <0>         0.3978
     43 H11        -6.1571   -1.8895    2.0913 H         1 <0>         0.3960
     44 H12         1.0423   -2.7535    3.1428 H         1 <0>         0.1535
     45 H13        -0.6951   -0.3115    6.2147 H         1 <0>         0.1537
     46 H14         1.4699   -0.3427    8.2750 H         1 <0>         0.3935
     47 H15         3.6138   -2.4496    7.3568 H         1 <0>         0.3924
     48 H16         3.6850   -3.4309    4.3717 H         1 <0>         0.3924
     49 H17         3.9367   -0.8389    0.8430 H         1 <0>         0.3864
     50 H18         3.8938    2.3101    0.8602 H         1 <0>         0.3891
@<TRIPOS>BOND
     1    1    6 ar
     2    1    2 ar
     3    1   35 1
     4    2    3 ar
     5    2   36 1
     6    3    4 ar
     7    3   34 1
     8    4    5 ar
     9    4   33 1
    10    5    6 ar
    11    5   37 1
    12    6    7 1
    13    7    8 1
    14    7   18 1
    15    7    9 1
    16    9   10 1
    17    9   11 1
    18    9   21 1
    19   11   12 1
    20   11   38 1
    21   11   39 1
    22   12   17 ar
    23   12   13 ar
    24   13   14 ar
    25   13   20 1
    26   14   15 ar
    27   14   40 1
    28   15   16 ar
    29   15   19 1
    30   16   17 ar
    31   16   41 1
    32   17   18 1
    33   19   42 1
    34   20   43 1
    35   21   22 1
    36   22   23 2
    37   22   24 1
    38   24   29 ar
    39   24   25 ar
    40   25   26 ar
    41   25   44 1
    42   26   27 ar
    43   26   32 1
    44   27   28 ar
    45   27   31 1
    46   28   29 ar
    47   28   30 1
    48   29   45 1
    49   30   46 1
    50   31   47 1
    51   32   48 1
    52   33   49 1
    53   34   50 1
@<TRIPOS>MOLECULE
ZINC18847037
   33    35     0     0     0
SMALL
USER_CHARGES

@<TRIPOS>ATOM
      1 C1         -0.0173    1.4248    0.0099 C.3       1 <0>         0.0257
      2 O1          0.0021   -0.0041    0.0020 O.3       1 <0>        -0.3163
      3 C2          0.6259   -0.6184    1.0416 C.ar      1 <0>         0.1346
      4 C3          1.2017    0.1413    2.0505 C.ar      1 <0>        -0.2081
      5 C4          1.8351   -0.4792    3.1070 C.ar      1 <0>        -0.0652
      6 C5          1.8965   -1.8707    3.1609 C.ar      1 <0>        -0.0695
      7 C6          1.3173   -2.6308    2.1463 C.ar      1 <0>        -0.0470
      8 C7          0.6807   -2.0044    1.0951 C.ar      1 <0>        -0.1503
      9 C8          2.5773   -2.5411    4.2955 C.2       1 <0>        -0.2301
     10 C9          2.0898   -2.4416    5.5593 C.2       1 <0>         0.1222
     11 O2          2.6644   -3.0420    6.6041 O.3       1 <0>        -0.2153
     12 C10         3.9203   -3.5262    6.5411 C.ar      1 <0>         0.1758
     13 C11         4.6109   -3.8503    7.7004 C.ar      1 <0>        -0.1825
     14 C12         5.8988   -4.3556    7.6239 C.ar      1 <0>         0.1909
     15 C13         6.5160   -4.5473    6.3921 C.ar      1 <0>        -0.2036
     16 C14         5.8471   -4.2284    5.2249 C.ar      1 <0>         0.2177
     17 C15         4.5483   -3.7100    5.2959 C.ar      1 <0>        -0.2618
     18 C16         3.7998   -3.3401    4.0813 C.2       1 <0>         0.4315
     19 O3          4.1694   -3.6700    2.9673 O.2       1 <0>        -0.4364
     20 O4          6.4443   -4.4158    4.0209 O.3       1 <0>        -0.4758
     21 O5          6.5661   -4.6669    8.7643 O.3       1 <0>        -0.4882
     22 H1          1.0053    1.8021    0.0021 H         1 <0>         0.0568
     23 H2         -0.5445    1.7859   -0.8732 H         1 <0>         0.1019
     24 H3         -0.5275    1.7763    0.9067 H         1 <0>         0.0568
     25 H4          1.1541    1.2194    2.0079 H         1 <0>         0.1317
     26 H5          2.2833    0.1125    3.8915 H         1 <0>         0.1264
     27 H6          1.3632   -3.7091    2.1852 H         1 <0>         0.1304
     28 H7          0.2278   -2.5928    0.3108 H         1 <0>         0.1347
     29 H8          1.2005   -1.8518    5.7260 H         1 <0>         0.2010
     30 H9          4.1439   -3.7080    8.6637 H         1 <0>         0.1535
     31 H10         7.5190   -4.9453    6.3475 H         1 <0>         0.1500
     32 H11         6.2888   -5.2893    3.6365 H         1 <0>         0.4049
     33 H12         6.4352   -5.5781    9.0604 H         1 <0>         0.4038
@<TRIPOS>BOND
     1    1    2 1
     2    1   22 1
     3    1   23 1
     4    1   24 1
     5    2    3 1
     6    3    8 ar
     7    3    4 ar
     8    4    5 ar
     9    4   25 1
    10    5    6 ar
    11    5   26 1
    12    6    7 ar
    13    6    9 1
    14    7    8 ar
    15    7   27 1
    16    8   28 1
    17    9   18 1
    18    9   10 2
    19   10   11 1
    20   10   29 1
    21   11   12 1
    22   12   17 ar
    23   12   13 ar
    24   13   14 ar
    25   13   30 1
    26   14   15 ar
    27   14   21 1
    28   15   16 ar
    29   15   31 1
    30   16   17 ar
    31   16   20 1
    32   17   18 1
    33   18   19 2
    34   20   32 1
    35   21   33 1
@<TRIPOS>MOLECULE
ZINC18185774
   31    33     0     0     0
SMALL
USER_CHARGES

@<TRIPOS>ATOM
      1 C1         -0.0169    1.3929    0.0097 C.ar      1 <0>        -0.0705
      2 C2          1.1675    2.0983    0.0022 C.ar      1 <0>        -0.1309
      3 C3          2.3803    1.4240   -0.0135 C.ar      1 <0>         0.1099
      4 C4          2.4067    0.0300   -0.0212 C.ar      1 <0>         0.0792
      5 C5          1.2240   -0.6832   -0.0138 C.ar      1 <0>        -0.0904
      6 C6          0.0021   -0.0041    0.0020 C.ar      1 <0>        -0.0661
      7 C7         -1.2642   -0.7606    0.0105 C.2       1 <0>         0.2069
      8 C8         -2.4374   -0.0724    0.0203 C.2       1 <0>        -0.3067
      9 C9         -3.6620   -0.7813    0.0286 C.2       1 <0>         0.4226
     10 O1         -4.7331   -0.1964    0.0371 O.2       1 <0>        -0.4521
     11 C10        -3.5935   -2.2524    0.0260 C.ar      1 <0>        -0.2661
     12 C11        -4.7554   -3.0344    0.0332 C.ar      1 <0>         0.2196
     13 C12        -4.6484   -4.4128    0.0300 C.ar      1 <0>        -0.2046
     14 C13        -3.3955   -5.0163    0.0203 C.ar      1 <0>         0.1928
     15 C14        -2.2415   -4.2483    0.0131 C.ar      1 <0>        -0.1829
     16 C15        -2.3286   -2.8648    0.0157 C.ar      1 <0>         0.1832
     17 O2         -1.2147   -2.1022    0.0028 O.3       1 <0>        -0.2181
     18 O3         -3.3016   -6.3705    0.0182 O.3       1 <0>        -0.4872
     19 O4         -5.9771   -2.4436    0.0436 O.3       1 <0>        -0.4722
     20 O5          3.5971   -0.6274   -0.0366 O.3       1 <0>        -0.4831
     21 O6          3.5446    2.1239   -0.0217 O.3       1 <0>        -0.4848
     22 H1         -0.9593    1.9201    0.0260 H         1 <0>         0.1451
     23 H2          1.1515    3.1781    0.0081 H         1 <0>         0.1468
     24 H3          1.2430   -1.7630   -0.0205 H         1 <0>         0.1466
     25 H4         -2.4342    1.0076    0.0222 H         1 <0>         0.1649
     26 H5         -5.5400   -5.0224    0.0355 H         1 <0>         0.1504
     27 H6         -1.2739   -4.7281    0.0059 H         1 <0>         0.1535
     28 H7         -3.2809   -6.7620   -0.8658 H         1 <0>         0.4041
     29 H8         -6.3379   -2.2705   -0.8367 H         1 <0>         0.4034
     30 H9          3.9502   -0.8223    0.8423 H         1 <0>         0.3919
     31 H10         3.8907    2.3221    0.8592 H         1 <0>         0.3948
@<TRIPOS>BOND
     1    1    6 ar
     2    1    2 ar
     3    1   22 1
     4    2    3 ar
     5    2   23 1
     6    3    4 ar
     7    3   21 1
     8    4    5 ar
     9    4   20 1
    10    5    6 ar
    11    5   24 1
    12    6    7 1
    13    7   17 1
    14    7    8 2
    15    8    9 1
    16    8   25 1
    17    9   10 2
    18    9   11 1
    19   11   16 ar
    20   11   12 ar
    21   12   13 ar
    22   12   19 1
    23   13   14 ar
    24   13   26 1
    25   14   15 ar
    26   14   18 1
    27   15   16 ar
    28   15   27 1
    29   16   17 1
    30   18   28 1
    31   19   29 1
    32   20   30 1
    33   21   31 1
@<TRIPOS>MOLECULE
ZINC03874317
   33    35     0     0     0
SMALL
USER_CHARGES

@<TRIPOS>ATOM
      1 C1          2.0732    1.4062   -0.8308 C.ar      1 <0>        -0.0859
      2 C2          1.1849    2.0922    0.0020 C.ar      1 <0>        -0.0258
      3 C3          0.3126    1.3779    0.8279 C.ar      1 <0>        -0.1033
      4 C4          0.3308   -0.0046    0.8189 C.ar      1 <0>         0.0938
      5 C5          1.2167   -0.6850   -0.0116 C.ar      1 <0>         0.0764
      6 C6          2.0867    0.0236   -0.8354 C.ar      1 <0>         0.0966
      7 O1          2.9505   -0.6446   -1.6458 O.3       1 <0>        -0.4863
      8 O2          1.2322   -2.0446   -0.0183 O.3       1 <0>        -0.4787
      9 O3         -0.5174   -0.7003    1.6227 O.3       1 <0>        -0.4812
     10 C7          1.1683    3.5667    0.0096 C.2       1 <0>         0.1312
     11 C8          2.3519    4.2356    0.1004 C.2       1 <0>        -0.0374
     12 C9          2.3527    5.6546    0.1089 C.2       1 <0>         0.4012
     13 O4          3.3933    6.2877    0.1887 O.2       1 <0>        -0.4464
     14 C10         1.0501    6.3331    0.0174 C.ar      1 <0>        -0.2690
     15 C11         0.9572    7.7312    0.0184 C.ar      1 <0>         0.2250
     16 C12        -0.2849    8.3310   -0.0697 C.ar      1 <0>        -0.2079
     17 C13        -1.4331    7.5508   -0.1581 C.ar      1 <0>         0.2004
     18 C14        -1.3490    6.1675   -0.1597 C.ar      1 <0>        -0.1855
     19 C15        -0.1119    5.5470   -0.0726 C.ar      1 <0>         0.1879
     20 O5         -0.0133    4.2011   -0.0789 O.3       1 <0>        -0.1974
     21 O6         -2.6481    8.1504   -0.2432 O.3       1 <0>        -0.4866
     22 O7          2.0786    8.4907    0.1056 O.3       1 <0>        -0.4725
     23 O8          3.5237    3.5485    0.1828 O.3       1 <0>        -0.4491
     24 H1          2.7453    1.9555   -1.4734 H         1 <0>         0.1463
     25 H2         -0.3747    1.9053    1.4728 H         1 <0>         0.1442
     26 H3          3.8063   -0.8341   -1.2374 H         1 <0>         0.3987
     27 H4          0.6310   -2.4417   -0.6632 H         1 <0>         0.3936
     28 H5         -1.3687   -0.9054    1.2124 H         1 <0>         0.3924
     29 H6         -0.3642    9.4081   -0.0694 H         1 <0>         0.1517
     30 H7         -2.2476    5.5724   -0.2288 H         1 <0>         0.1557
     31 H8         -2.9359    8.3293   -1.1489 H         1 <0>         0.4053
     32 H9          2.4687    8.7158   -0.7501 H         1 <0>         0.4040
     33 H10         4.3069    4.1124    0.2436 H         1 <0>         0.4089
@<TRIPOS>BOND
     1    1    6 ar
     2    1    2 ar
     3    1   24 1
     4    2    3 ar
     5    2   10 1
     6    3    4 ar
     7    3   25 1
     8    4    5 ar
     9    4    9 1
    10    5    6 ar
    11    5    8 1
    12    6    7 1
    13    7   26 1
    14    8   27 1
    15    9   28 1
    16   10   20 1
    17   10   11 2
    18   11   12 1
    19   11   23 1
    20   12   13 2
    21   12   14 1
    22   14   19 ar
    23   14   15 ar
    24   15   16 ar
    25   15   22 1
    26   16   17 ar
    27   16   29 1
    28   17   18 ar
    29   17   21 1
    30   18   19 ar
    31   18   30 1
    32   19   20 1
    33   21   31 1
    34   22   32 1
    35   23   33 1
@<TRIPOS>MOLECULE
ZINC03874317
   32    34     0     0     0
SMALL
USER_CHARGES

@<TRIPOS>ATOM
      1 C1          2.0771    1.4053   -0.8287 C.ar      1 <0>        -0.0905
      2 C2          1.1858    2.0921    0.0020 C.ar      1 <0>        -0.0015
      3 C3          0.3103    1.3773    0.8258 C.ar      1 <0>        -0.1070
      4 C4          0.3284   -0.0047    0.8166 C.ar      1 <0>         0.0918
      5 C5          1.2173   -0.6854   -0.0113 C.ar      1 <0>         0.0627
      6 C6          2.0900    0.0232   -0.8331 C.ar      1 <0>         0.0937
      7 O1          2.9560   -0.6454   -1.6409 O.3       1 <0>        -0.4882
      8 O2          1.2332   -2.0446   -0.0173 O.3       1 <0>        -0.4810
      9 O3         -0.5225   -0.7004    1.6174 O.3       1 <0>        -0.4835
     10 C7          1.1696    3.5647    0.0095 C.2       1 <0>         0.0969
     11 C8          2.3645    4.2546    0.1013 C.2       1 <0>         0.0017
     12 C9          2.3581    5.6552    0.1091 C.2       1 <0>         0.3347
     13 C10         1.1162    6.3213    0.0219 C.2       1 <0>        -0.3328
     14 C11         1.0516    7.7306    0.0250 C.2       1 <0>         0.2668
     15 C12        -0.1591    8.3550   -0.0605 C.2       1 <0>        -0.3747
     16 C13        -1.3400    7.6005   -0.1516 C.2       1 <0>         0.3649
     17 O4         -2.5185    8.2209   -0.2352 O.2       1 <0>        -0.6597
     18 C14        -1.2886    6.2026   -0.1556 C.2       1 <0>        -0.3140
     19 C15        -0.0694    5.5584   -0.0695 C.2       1 <0>         0.2123
     20 O5         -0.0059    4.2104   -0.0783 O.3       1 <0>        -0.2019
     21 O6          2.1901    8.4635    0.1132 O.3       1 <0>        -0.4481
     22 O7          3.5130    6.3524    0.1984 O.3       1 <0>        -0.5726
     23 O8          3.5409    3.5760    0.1840 O.3       1 <0>        -0.4646
     24 H1          2.7513    1.9542   -1.4694 H         1 <0>         0.1458
     25 H2         -0.3788    1.9047    1.4687 H         1 <0>         0.1447
     26 H3          3.8105   -0.8352   -1.2299 H         1 <0>         0.3943
     27 H4          0.6340   -2.4421   -0.6639 H         1 <0>         0.3880
     28 H5         -1.3725   -0.9053    1.2042 H         1 <0>         0.3891
     29 H6         -0.2092    9.4338   -0.0579 H         1 <0>         0.1182
     30 H7         -2.2003    5.6280   -0.2254 H         1 <0>         0.1230
     31 H8          2.0440    9.4194    0.1078 H         1 <0>         0.3850
     32 H9          4.3201    4.1455    0.2445 H         1 <0>         0.4068
@<TRIPOS>BOND
     1    1    6 ar
     2    1    2 ar
     3    1   24 1
     4    2    3 ar
     5    2   10 1
     6    3    4 ar
     7    3   25 1
     8    4    5 ar
     9    4    9 1
    10    5    6 ar
    11    5    8 1
    12    6    7 1
    13    7   26 1
    14    8   27 1
    15    9   28 1
    16   10   20 1
    17   10   11 2
    18   11   12 1
    19   11   23 1
    20   12   13 2
    21   12   22 1
    22   13   19 1
    23   13   14 1
    24   14   15 2
    25   14   21 1
    26   15   16 1
    27   15   29 1
    28   16   17 2
    29   16   18 1
    30   18   19 2
    31   18   30 1
    32   19   20 1
    33   21   31 1
    34   23   32 1
@<TRIPOS>MOLECULE
ZINC03870413
   51    54     0     0     0
SMALL
USER_CHARGES

@<TRIPOS>ATOM
      1 C1         -0.0167    1.3824    0.0096 C.ar      1 <0>        -0.1111
      2 C2          1.1697    2.0917    0.0021 C.ar      1 <0>        -0.0659
      3 C3          2.3792    1.4226   -0.0135 C.ar      1 <0>        -0.1117
      4 C4          2.4066    0.0362   -0.0217 C.ar      1 <0>         0.0966
      5 C5          1.2160   -0.6806   -0.0137 C.ar      1 <0>         0.0646
      6 C6          0.0021   -0.0041    0.0020 C.ar      1 <0>         0.0987
      7 O1         -1.1658   -0.7009    0.0099 O.3       1 <0>        -0.4881
      8 O2          1.2387   -2.0413   -0.0217 O.3       1 <0>        -0.4793
      9 O3          3.5971   -0.6212   -0.0380 O.3       1 <0>        -0.4822
     10 C7          1.1446    3.5984    0.0105 C.3       1 <0>         0.1443
     11 H1          0.1709    3.9512   -0.3294 H         1 <0>         0.1023
     12 C8          1.4132    4.1118    1.4309 C.3       1 <0>         0.0650
     13 H2          2.4232    3.8377    1.7358 H         1 <0>         0.1042
     14 C9          1.2714    5.6359    1.4258 C.3       1 <0>        -0.0873
     15 C10         2.0504    6.2145    0.2717 C.ar      1 <0>        -0.1901
     16 C11         2.3697    7.5676    0.2931 C.ar      1 <0>         0.1636
     17 C12         3.0805    8.1340   -0.7521 C.ar      1 <0>        -0.1961
     18 C13         3.4754    7.3482   -1.8246 C.ar      1 <0>         0.1601
     19 C14         3.1596    5.9999   -1.8458 C.ar      1 <0>        -0.1780
     20 C15         2.4473    5.4295   -0.7959 C.ar      1 <0>         0.1584
     21 O4          2.1661    4.1013   -0.8516 O.3       1 <0>        -0.2897
     22 O5          4.1708    7.9004   -2.8533 O.3       1 <0>        -0.4911
     23 O6          1.9825    8.3377    1.3437 O.3       1 <0>        -0.4901
     24 O7          0.4655    3.5421    2.3362 O.3       1 <0>        -0.3276
     25 C16         0.8706    3.3540    3.6075 C.2       1 <0>         0.5158
     26 O8          1.9976    3.6651    3.9384 O.2       1 <0>        -0.4919
     27 C17        -0.0539    2.7705    4.5973 C.ar      1 <0>        -0.1046
     28 C18        -1.3486    2.4069    4.2168 C.ar      1 <0>        -0.0781
     29 C19        -2.2130    1.8604    5.1465 C.ar      1 <0>         0.0876
     30 C20        -1.7950    1.6722    6.4614 C.ar      1 <0>         0.0963
     31 C21        -0.5058    2.0340    6.8434 C.ar      1 <0>         0.0877
     32 C22         0.3649    2.5748    5.9163 C.ar      1 <0>        -0.0735
     33 O9         -0.1010    1.8493    8.1286 O.3       1 <0>        -0.4775
     34 O10        -2.6470    1.1351    7.3735 O.3       1 <0>        -0.4722
     35 O11        -3.4730    1.5063    4.7768 O.3       1 <0>        -0.4781
     36 H3         -0.9596    1.9089    0.0260 H         1 <0>         0.1426
     37 H4          3.3040    1.9803   -0.0197 H         1 <0>         0.1407
     38 H5         -1.5123   -0.8977   -0.8712 H         1 <0>         0.3979
     39 H6          1.2542   -2.4396    0.8593 H         1 <0>         0.3907
     40 H7          3.9506   -0.8164    0.8407 H         1 <0>         0.3909
     41 H8          0.2194    5.9019    1.3230 H         1 <0>         0.0969
     42 H9          1.6571    6.0391    2.3621 H         1 <0>         0.0935
     43 H10         3.3265    9.1854   -0.7322 H         1 <0>         0.1413
     44 H11         3.4673    5.3887   -2.6814 H         1 <0>         0.1441
     45 H12         5.1305    7.8764   -2.7370 H         1 <0>         0.3980
     46 H13         2.6278    8.3752    2.0628 H         1 <0>         0.3962
     47 H14        -1.6735    2.5533    3.1972 H         1 <0>         0.1537
     48 H15         1.3663    2.8508    6.2120 H         1 <0>         0.1533
     49 H16         0.3044    0.9870    8.2932 H         1 <0>         0.3932
     50 H17        -2.6056    0.1706    7.4302 H         1 <0>         0.3925
     51 H18        -3.5492    0.5951    4.4623 H         1 <0>         0.3937
@<TRIPOS>BOND
     1    1    6 ar
     2    1    2 ar
     3    1   36 1
     4    2    3 ar
     5    2   10 1
     6    3    4 ar
     7    3   37 1
     8    4    5 ar
     9    4    9 1
    10    5    6 ar
    11    5    8 1
    12    6    7 1
    13    7   38 1
    14    8   39 1
    15    9   40 1
    16   10   11 1
    17   10   21 1
    18   10   12 1
    19   12   13 1
    20   12   14 1
    21   12   24 1
    22   14   15 1
    23   14   41 1
    24   14   42 1
    25   15   20 ar
    26   15   16 ar
    27   16   17 ar
    28   16   23 1
    29   17   18 ar
    30   17   43 1
    31   18   19 ar
    32   18   22 1
    33   19   20 ar
    34   19   44 1
    35   20   21 1
    36   22   45 1
    37   23   46 1
    38   24   25 1
    39   25   26 2
    40   25   27 1
    41   27   32 ar
    42   27   28 ar
    43   28   29 ar
    44   28   47 1
    45   29   30 ar
    46   29   35 1
    47   30   31 ar
    48   30   34 1
    49   31   32 ar
    50   31   33 1
    51   32   48 1
    52   33   49 1
    53   34   50 1
    54   35   51 1
@<TRIPOS>MOLECULE
ZINC03881558
   32    34     0     0     0
SMALL
USER_CHARGES

@<TRIPOS>ATOM
      1 C1          0.9052   -0.1467    1.0522 C.ar      1 <0>        -0.1565
      2 C2          2.0886    0.5573    1.0482 C.ar      1 <0>        -0.0345
      3 C3          2.3852    1.4179   -0.0128 C.ar      1 <0>        -0.0868
      4 C4          1.4728    1.5594   -1.0699 C.ar      1 <0>         0.1612
      5 C5          0.2873    0.8465   -1.0541 C.ar      1 <0>        -0.1813
      6 C6          0.0026   -0.0050    0.0040 C.ar      1 <0>         0.1466
      7 O1         -1.1619   -0.7032    0.0155 O.3       1 <0>        -0.4954
      8 O2          1.7525    2.3931   -2.1040 O.3       1 <0>        -0.4874
      9 C7          3.6493    2.1731   -0.0211 C.2       1 <0>         0.1454
     10 C8          4.8251    1.4870    0.0631 C.2       1 <0>        -0.0495
     11 C9          6.0501    2.1994    0.0564 C.2       1 <0>         0.4010
     12 O3          7.1217    1.6189    0.1298 O.2       1 <0>        -0.4511
     13 C10         5.9806    3.6663   -0.0431 C.ar      1 <0>        -0.2700
     14 C11         7.1423    4.4494   -0.0571 C.ar      1 <0>         0.2234
     15 C12         7.0356    5.8242   -0.1521 C.ar      1 <0>        -0.2092
     16 C13         5.7833    6.4240   -0.2326 C.ar      1 <0>         0.1991
     17 C14         4.6299    5.6558   -0.2193 C.ar      1 <0>        -0.1847
     18 C15         4.7163    4.2750   -0.1251 C.ar      1 <0>         0.1884
     19 O4          3.6024    3.5130   -0.1169 O.3       1 <0>        -0.1881
     20 O5          5.6898    7.7753   -0.3247 O.3       1 <0>        -0.4870
     21 O6          8.3634    3.8623    0.0225 O.3       1 <0>        -0.4729
     22 O7          4.8218    0.1287    0.1534 O.3       1 <0>        -0.4506
     23 H1          0.6792   -0.8146    1.8703 H         1 <0>         0.1411
     24 H2          2.7870    0.4450    1.8643 H         1 <0>         0.1397
     25 H3         -0.4172    0.9528   -1.8658 H         1 <0>         0.1429
     26 H4         -1.8932   -0.2412    0.4478 H         1 <0>         0.3984
     27 H5          2.1585    1.9544   -2.8642 H         1 <0>         0.3964
     28 H6          7.9268    6.4342   -0.1635 H         1 <0>         0.1509
     29 H7          3.6630    6.1329   -0.2825 H         1 <0>         0.1552
     30 H8          5.6916    8.1087   -1.2324 H         1 <0>         0.4047
     31 H9          8.7464    3.6333   -0.8354 H         1 <0>         0.4032
     32 H10         5.7038   -0.2639    0.2085 H         1 <0>         0.4076
@<TRIPOS>BOND
     1    1    6 ar
     2    1    2 ar
     3    1   23 1
     4    2    3 ar
     5    2   24 1
     6    3    4 ar
     7    3    9 1
     8    4    5 ar
     9    4    8 1
    10    5    6 ar
    11    5   25 1
    12    6    7 1
    13    7   26 1
    14    8   27 1
    15    9   19 1
    16    9   10 2
    17   10   11 1
    18   10   22 1
    19   11   12 2
    20   11   13 1
    21   13   18 ar
    22   13   14 ar
    23   14   15 ar
    24   14   21 1
    25   15   16 ar
    26   15   28 1
    27   16   17 ar
    28   16   20 1
    29   17   18 ar
    30   17   29 1
    31   18   19 1
    32   20   30 1
    33   21   31 1
    34   22   32 1
@<TRIPOS>MOLECULE
ZINC03881558
   31    33     0     0     0
SMALL
USER_CHARGES

@<TRIPOS>ATOM
      1 C1          0.9066   -0.1484    1.0516 C.ar      1 <0>        -0.1572
      2 C2          2.0894    0.5549    1.0479 C.ar      1 <0>        -0.0408
      3 C3          2.3856    1.4179   -0.0130 C.ar      1 <0>        -0.0626
      4 C4          1.4712    1.5611   -1.0698 C.ar      1 <0>         0.1560
      5 C5          0.2858    0.8482   -1.0534 C.ar      1 <0>        -0.1811
      6 C6          0.0026   -0.0049    0.0039 C.ar      1 <0>         0.1305
      7 O1         -1.1617   -0.7029    0.0156 O.3       1 <0>        -0.4978
      8 O2          1.7495    2.3961   -2.1027 O.3       1 <0>        -0.4833
      9 C7          3.6479    2.1718   -0.0213 C.2       1 <0>         0.1128
     10 C8          4.8478    1.4863    0.0634 C.2       1 <0>        -0.0129
     11 C9          6.0531    2.1961    0.0561 C.2       1 <0>         0.3353
     12 C10         6.0031    3.6049   -0.0388 C.2       1 <0>        -0.3332
     13 C11         7.1882    4.3693   -0.0509 C.2       1 <0>         0.2654
     14 C12         7.1183    5.7295   -0.1436 C.2       1 <0>        -0.3752
     15 C13         5.8717    6.3701   -0.2268 C.2       1 <0>         0.3642
     16 O3          5.8143    7.7005   -0.3175 O.2       1 <0>        -0.6621
     17 C14         4.6896    5.6225   -0.2157 C.2       1 <0>        -0.3147
     18 C15         4.7470    4.2452   -0.1223 C.2       1 <0>         0.2123
     19 O4          3.6137    3.5122   -0.1166 O.3       1 <0>        -0.1923
     20 O5          8.3951    3.7542    0.0298 O.3       1 <0>        -0.4485
     21 O6          7.2380    1.5494    0.1382 O.3       1 <0>        -0.5774
     22 O7          4.8545    0.1285    0.1539 O.3       1 <0>        -0.4664
     23 H1          0.6811   -0.8175    1.8688 H         1 <0>         0.1360
     24 H2          2.7885    0.4410    1.8632 H         1 <0>         0.1386
     25 H3         -0.4199    0.9559   -1.8638 H         1 <0>         0.1385
     26 H4         -1.8925   -0.2415    0.4494 H         1 <0>         0.3926
     27 H5          2.1547    1.9586   -2.8640 H         1 <0>         0.3945
     28 H6          8.0256    6.3153   -0.1526 H         1 <0>         0.1174
     29 H7          3.7337    6.1210   -0.2796 H         1 <0>         0.1223
     30 H8          9.1477    4.3612    0.0139 H         1 <0>         0.3841
     31 H9          5.7394   -0.2577    0.2084 H         1 <0>         0.4052
@<TRIPOS>BOND
     1    1    6 ar
     2    1    2 ar
     3    1   23 1
     4    2    3 ar
     5    2   24 1
     6    3    4 ar
     7    3    9 1
     8    4    5 ar
     9    4    8 1
    10    5    6 ar
    11    5   25 1
    12    6    7 1
    13    7   26 1
    14    8   27 1
    15    9   19 1
    16    9   10 2
    17   10   11 1
    18   10   22 1
    19   11   12 2
    20   11   21 1
    21   12   18 1
    22   12   13 1
    23   13   14 2
    24   13   20 1
    25   14   15 1
    26   14   28 1
    27   15   16 2
    28   15   17 1
    29   17   18 2
    30   17   29 1
    31   18   19 1
    32   20   30 1
    33   22   31 1
@<TRIPOS>MOLECULE
ZINC03870412
   51    54     0     0     0
SMALL
USER_CHARGES

@<TRIPOS>ATOM
      1 C1         -0.0167    1.3824    0.0096 C.ar      1 <0>        -0.1232
      2 C2          1.1697    2.0917    0.0021 C.ar      1 <0>        -0.0728
      3 C3          2.3792    1.4226   -0.0135 C.ar      1 <0>        -0.0978
      4 C4          2.4066    0.0362   -0.0217 C.ar      1 <0>         0.0943
      5 C5          1.2160   -0.6806   -0.0137 C.ar      1 <0>         0.0658
      6 C6          0.0021   -0.0041    0.0020 C.ar      1 <0>         0.0986
      7 O1         -1.1658   -0.7009    0.0099 O.3       1 <0>        -0.4875
      8 O2          1.2387   -2.0413   -0.0217 O.3       1 <0>        -0.4804
      9 O3          3.5971   -0.6212   -0.0380 O.3       1 <0>        -0.4833
     10 C7          1.1446    3.5984    0.0105 C.3       1 <0>         0.1463
     11 H1          0.2126    3.9475    0.4550 H         1 <0>         0.1098
     12 C8          1.2611    4.1251   -1.4256 C.3       1 <0>         0.0607
     13 H2          0.4684    3.6972   -2.0393 H         1 <0>         0.1110
     14 C9          1.1215    5.6490   -1.3913 C.3       1 <0>        -0.0887
     15 C10         2.0188    6.2172   -0.3211 C.ar      1 <0>        -0.1934
     16 C11         2.3348    7.5707   -0.3637 C.ar      1 <0>         0.1618
     17 C12         3.1535    8.1275    0.6048 C.ar      1 <0>        -0.1998
     18 C13         3.6597    7.3319    1.6220 C.ar      1 <0>         0.1590
     19 C14         3.3464    5.9836    1.6646 C.ar      1 <0>        -0.1810
     20 C15         2.5265    5.4225    0.6909 C.ar      1 <0>         0.1700
     21 O4          2.2521    4.0938    0.7639 O.3       1 <0>        -0.2919
     22 O5          4.4620    7.8746    2.5751 O.3       1 <0>        -0.4915
     23 O6          1.8385    8.3503   -1.3601 O.3       1 <0>        -0.4908
     24 O7          2.5347    3.7694   -1.9673 O.3       1 <0>        -0.3234
     25 C16         2.6005    3.5753   -3.2991 C.2       1 <0>         0.5152
     26 O8          1.6037    3.7045   -3.9818 O.2       1 <0>        -0.4949
     27 C17         3.8823    3.2060   -3.9281 C.ar      1 <0>        -0.1035
     28 C18         5.0283    3.0514   -3.1432 C.ar      1 <0>        -0.0764
     29 C19         6.2283    2.7053   -3.7353 C.ar      1 <0>         0.0874
     30 C20         6.2961    2.5111   -5.1125 C.ar      1 <0>         0.0957
     31 C21         5.1559    2.6649   -5.8970 C.ar      1 <0>         0.0871
     32 C22         3.9519    3.0043   -5.3093 C.ar      1 <0>        -0.0733
     33 O9          5.2258    2.4749   -7.2418 O.3       1 <0>        -0.4778
     34 O10         7.4772    2.1713   -5.6921 O.3       1 <0>        -0.4725
     35 O11         7.3439    2.5547   -2.9722 O.3       1 <0>        -0.4781
     36 H3         -0.9596    1.9089    0.0260 H         1 <0>         0.1412
     37 H4          3.3040    1.9803   -0.0197 H         1 <0>         0.1453
     38 H5         -1.5123   -0.8977   -0.8712 H         1 <0>         0.3973
     39 H6          1.2542   -2.4396    0.8593 H         1 <0>         0.3921
     40 H7          3.9506   -0.8164    0.8407 H         1 <0>         0.3917
     41 H8          1.4057    6.0611   -2.3595 H         1 <0>         0.0993
     42 H9          0.0865    5.9136   -1.1749 H         1 <0>         0.0973
     43 H10         3.3971    9.1790    0.5682 H         1 <0>         0.1392
     44 H11         3.7408    5.3648    2.4571 H         1 <0>         0.1416
     45 H12         3.9848    8.2124    3.3453 H         1 <0>         0.3966
     46 H13         0.9859    8.7570   -1.1536 H         1 <0>         0.3948
     47 H14         4.9764    3.2026   -2.0751 H         1 <0>         0.1522
     48 H15         3.0669    3.1188   -5.9176 H         1 <0>         0.1531
     49 H16         5.0544    1.5647   -7.5199 H         1 <0>         0.3927
     50 H17         7.6276    1.2177   -5.7487 H         1 <0>         0.3919
     51 H18         7.4749    1.6560   -2.6401 H         1 <0>         0.3928
@<TRIPOS>BOND
     1    1    6 ar
     2    1    2 ar
     3    1   36 1
     4    2    3 ar
     5    2   10 1
     6    3    4 ar
     7    3   37 1
     8    4    5 ar
     9    4    9 1
    10    5    6 ar
    11    5    8 1
    12    6    7 1
    13    7   38 1
    14    8   39 1
    15    9   40 1
    16   10   11 1
    17   10   21 1
    18   10   12 1
    19   12   13 1
    20   12   14 1
    21   12   24 1
    22   14   15 1
    23   14   41 1
    24   14   42 1
    25   15   20 ar
    26   15   16 ar
    27   16   17 ar
    28   16   23 1
    29   17   18 ar
    30   17   43 1
    31   18   19 ar
    32   18   22 1
    33   19   20 ar
    34   19   44 1
    35   20   21 1
    36   22   45 1
    37   23   46 1
    38   24   25 1
    39   25   26 2
    40   25   27 1
    41   27   32 ar
    42   27   28 ar
    43   28   29 ar
    44   28   47 1
    45   29   30 ar
    46   29   35 1
    47   30   31 ar
    48   30   34 1
    49   31   32 ar
    50   31   33 1
    51   32   48 1
    52   33   49 1
    53   34   50 1
    54   35   51 1
@<TRIPOS>MOLECULE
ZINC00039111
   31    33     0     0     0
SMALL
USER_CHARGES

@<TRIPOS>ATOM
      1 C1          0.9742   -0.2756   -0.9644 C.ar      1 <0>        -0.0745
      2 C2          2.1570    0.4328   -0.9701 C.ar      1 <0>        -0.1346
      3 C3          2.3856    1.4156   -0.0177 C.ar      1 <0>         0.1033
      4 C4          1.4202    1.6919    0.9495 C.ar      1 <0>         0.0786
      5 C5          0.2328    0.9864    0.9617 C.ar      1 <0>        -0.0758
      6 C6          0.0021   -0.0041    0.0020 C.ar      1 <0>        -0.0456
      7 C7         -1.2635   -0.7604    0.0100 C.2       1 <0>         0.1403
      8 C8         -2.4368   -0.0754    0.1235 C.2       1 <0>        -0.0467
      9 C9         -3.6626   -0.7880    0.1323 C.2       1 <0>         0.4008
     10 O1         -4.7322   -0.2087    0.2318 O.2       1 <0>        -0.4629
     11 C10        -3.5944   -2.2557    0.0159 C.ar      1 <0>        -0.2366
     12 C11        -4.7512   -3.0365    0.0154 C.ar      1 <0>        -0.0073
     13 C12        -4.6525   -4.3943   -0.0945 C.ar      1 <0>        -0.1753
     14 C13        -3.4042   -5.0031   -0.2055 C.ar      1 <0>         0.1824
     15 C14        -2.2474   -4.2422   -0.2064 C.ar      1 <0>        -0.1738
     16 C15        -2.3310   -2.8613   -0.0960 C.ar      1 <0>         0.1711
     17 O2         -1.2180   -2.0989   -0.1002 O.3       1 <0>        -0.1986
     18 O3         -3.3214   -6.3539   -0.3130 O.3       1 <0>        -0.4899
     19 O4         -2.4315    1.2815    0.2279 O.3       1 <0>        -0.4510
     20 O5          1.6479    2.6559    1.8814 O.3       1 <0>        -0.4836
     21 O6          3.5534    2.1101   -0.0273 O.3       1 <0>        -0.4861
     22 H1          0.7972   -1.0372   -1.7094 H         1 <0>         0.1379
     23 H2          2.9076    0.2220   -1.7175 H         1 <0>         0.1421
     24 H3         -0.5155    1.1990    1.7108 H         1 <0>         0.1431
     25 H4         -5.7208   -2.5688    0.1018 H         1 <0>         0.1490
     26 H5         -5.5471   -4.9994   -0.0951 H         1 <0>         0.1454
     27 H6         -1.2834   -4.7216   -0.2925 H         1 <0>         0.1536
     28 H7         -3.3428   -6.6780   -1.2239 H         1 <0>         0.4038
     29 H8         -3.3122    1.6736    0.3036 H         1 <0>         0.4078
     30 H9          1.3507    3.5371    1.6164 H         1 <0>         0.3905
     31 H10         3.5286    2.9137   -0.5648 H         1 <0>         0.3925
@<TRIPOS>BOND
     1    1    6 ar
     2    1    2 ar
     3    1   22 1
     4    2    3 ar
     5    2   23 1
     6    3    4 ar
     7    3   21 1
     8    4    5 ar
     9    4   20 1
    10    5    6 ar
    11    5   24 1
    12    6    7 1
    13    7   17 1
    14    7    8 2
    15    8    9 1
    16    8   19 1
    17    9   10 2
    18    9   11 1
    19   11   16 ar
    20   11   12 ar
    21   12   13 ar
    22   12   25 1
    23   13   14 ar
    24   13   26 1
    25   14   15 ar
    26   14   18 1
    27   15   16 ar
    28   15   27 1
    29   16   17 1
    30   18   28 1
    31   19   29 1
    32   20   30 1
    33   21   31 1
@<TRIPOS>MOLECULE
ZINC03978503
   50    53     0     0     0
SMALL
USER_CHARGES

@<TRIPOS>ATOM
      1 C1         -0.0167    1.3779    0.0096 C.ar      1 <0>        -0.0710
      2 C2          1.1696    2.0886    0.0021 C.ar      1 <0>        -0.1332
      3 C3          2.3802    1.4154   -0.0130 C.ar      1 <0>         0.0923
      4 C4          2.3990    0.0236   -0.0206 C.ar      1 <0>         0.0809
      5 C5          1.2071   -0.6822   -0.0130 C.ar      1 <0>        -0.1138
      6 C6          0.0021   -0.0041    0.0020 C.ar      1 <0>        -0.0888
      7 C7         -1.2936   -0.7736    0.0102 C.3       1 <0>         0.1463
      8 H1         -1.1302   -1.7631    0.4371 H         1 <0>         0.1070
      9 C8         -1.8224   -0.9103   -1.4233 C.3       1 <0>         0.0610
     10 H2         -1.0636   -1.3761   -2.0520 H         1 <0>         0.1107
     11 C9         -3.0759   -1.7881   -1.3913 C.3       1 <0>        -0.0890
     12 C10        -4.0042   -1.3085   -0.3042 C.ar      1 <0>        -0.1933
     13 C11        -5.3364   -1.7051   -0.3406 C.ar      1 <0>         0.1616
     14 C12        -6.2168   -1.2864    0.6434 C.ar      1 <0>        -0.2002
     15 C13        -5.7673   -0.4690    1.6698 C.ar      1 <0>         0.1586
     16 C14        -4.4409   -0.0726    1.7062 C.ar      1 <0>        -0.1813
     17 C15        -3.5564   -0.4901    0.7171 C.ar      1 <0>         0.1702
     18 O1         -2.2659   -0.0703    0.7846 O.3       1 <0>        -0.2917
     19 O2         -6.6274   -0.0572    2.6380 O.3       1 <0>        -0.4915
     20 O3         -5.7767   -2.5064   -1.3460 O.3       1 <0>        -0.4909
     21 O4         -2.1505    0.3807   -1.9409 O.3       1 <0>        -0.3234
     22 C16        -2.0274    0.5558   -3.2712 C.2       1 <0>         0.5140
     23 O5         -1.6517   -0.3624   -3.9727 O.2       1 <0>        -0.4936
     24 C17        -2.3486    1.8620   -3.8759 C.ar      1 <0>        -0.1023
     25 C18        -2.7754    2.9208   -3.0695 C.ar      1 <0>        -0.0785
     26 C19        -3.0757    4.1438   -3.6389 C.ar      1 <0>         0.0863
     27 C20        -2.9540    4.3216   -5.0146 C.ar      1 <0>         0.0952
     28 C21        -2.5294    3.2683   -5.8204 C.ar      1 <0>         0.0877
     29 C22        -2.2213    2.0451   -5.2556 C.ar      1 <0>        -0.0731
     30 O6         -2.4120    3.4452   -7.1638 O.3       1 <0>        -0.4777
     31 O7         -3.2504    5.5249   -5.5717 O.3       1 <0>        -0.4723
     32 O8         -3.4911    5.1745   -2.8548 O.3       1 <0>        -0.4778
     33 O9          3.5850   -0.6417   -0.0359 O.3       1 <0>        -0.4851
     34 O10         3.5476    2.1129   -0.0209 O.3       1 <0>        -0.4874
     35 H3         -0.9598    1.9038    0.0259 H         1 <0>         0.1390
     36 H4          1.1522    3.1684    0.0077 H         1 <0>         0.1372
     37 H5          1.2190   -1.7621   -0.0189 H         1 <0>         0.1374
     38 H6         -3.5841   -1.7300   -2.3539 H         1 <0>         0.0989
     39 H7         -2.7902   -2.8214   -1.1946 H         1 <0>         0.0968
     40 H8         -7.2509   -1.5961    0.6116 H         1 <0>         0.1390
     41 H9         -4.0917    0.5638    2.5059 H         1 <0>         0.1417
     42 H10        -6.6766   -0.6517    3.3991 H         1 <0>         0.3964
     43 H11        -5.7049   -3.4517   -1.1556 H         1 <0>         0.3947
     44 H12        -2.8707    2.7833   -2.0026 H         1 <0>         0.1528
     45 H13        -1.8875    1.2299   -5.8805 H         1 <0>         0.1534
     46 H14        -1.5394    3.7526   -7.4452 H         1 <0>         0.3929
     47 H15        -2.4976    6.1295   -5.6256 H         1 <0>         0.3917
     48 H16        -2.7726    5.7287   -2.5204 H         1 <0>         0.3921
     49 H17         3.9367   -0.8389    0.8430 H         1 <0>         0.3894
     50 H18         3.8938    2.3101    0.8602 H         1 <0>         0.3905
@<TRIPOS>BOND
     1    1    6 ar
     2    1    2 ar
     3    1   35 1
     4    2    3 ar
     5    2   36 1
     6    3    4 ar
     7    3   34 1
     8    4    5 ar
     9    4   33 1
    10    5    6 ar
    11    5   37 1
    12    6    7 1
    13    7    8 1
    14    7   18 1
    15    7    9 1
    16    9   10 1
    17    9   11 1
    18    9   21 1
    19   11   12 1
    20   11   38 1
    21   11   39 1
    22   12   17 ar
    23   12   13 ar
    24   13   14 ar
    25   13   20 1
    26   14   15 ar
    27   14   40 1
    28   15   16 ar
    29   15   19 1
    30   16   17 ar
    31   16   41 1
    32   17   18 1
    33   19   42 1
    34   20   43 1
    35   21   22 1
    36   22   23 2
    37   22   24 1
    38   24   29 ar
    39   24   25 ar
    40   25   26 ar
    41   25   44 1
    42   26   27 ar
    43   26   32 1
    44   27   28 ar
    45   27   31 1
    46   28   29 ar
    47   28   30 1
    48   29   45 1
    49   30   46 1
    50   31   47 1
    51   32   48 1
    52   33   49 1
    53   34   50 1
@<TRIPOS>MOLECULE
ZINC18825330
   30    32     0     0     0
SMALL
USER_CHARGES

@<TRIPOS>ATOM
      1 C1         -0.0168    1.3897    0.0097 C.ar      1 <0>        -0.0898
      2 C2          1.1691    2.0941    0.0021 C.ar      1 <0>        -0.1444
      3 C3          2.3804    1.4165   -0.0135 C.ar      1 <0>         0.1118
      4 C4          2.4026    0.0286   -0.0217 C.ar      1 <0>        -0.1437
      5 C5          1.2201   -0.6816   -0.0137 C.ar      1 <0>        -0.0707
      6 C6          0.0021   -0.0041    0.0020 C.ar      1 <0>        -0.0391
      7 C7         -1.2713   -0.7647    0.0106 C.2       1 <0>        -0.2383
      8 C8         -2.1308   -0.6985   -1.0391 C.2       1 <0>         0.1275
      9 O1         -3.2790   -1.3788   -1.0759 O.3       1 <0>        -0.2144
     10 C9         -3.8133   -1.9283    0.0323 C.ar      1 <0>         0.1753
     11 C10        -5.1371   -2.3448    0.0457 C.ar      1 <0>        -0.1819
     12 C11        -5.6741   -2.9171    1.1876 C.ar      1 <0>         0.1915
     13 C12        -4.9001   -3.0841    2.3313 C.ar      1 <0>        -0.2030
     14 C13        -3.5799   -2.6737    2.3405 C.ar      1 <0>         0.2179
     15 C14        -3.0336   -2.0875    1.1922 C.ar      1 <0>        -0.2616
     16 C15        -1.6367   -1.6192    1.1574 C.2       1 <0>         0.4330
     17 O2         -0.8325   -1.9156    2.0245 O.2       1 <0>        -0.4372
     18 O3         -2.8202   -2.8370    3.4529 O.3       1 <0>        -0.4757
     19 O4         -6.9707   -3.3190    1.1905 O.3       1 <0>        -0.4879
     20 O5          3.5472    2.1134   -0.0214 O.3       1 <0>        -0.4999
     21 H1         -0.9590    1.9174    0.0260 H         1 <0>         0.1287
     22 H2          1.1551    3.1740    0.0081 H         1 <0>         0.1326
     23 H3          3.3466   -0.4958   -0.0346 H         1 <0>         0.1325
     24 H4          1.2380   -1.7614   -0.0204 H         1 <0>         0.1278
     25 H5         -1.8749   -0.0692   -1.8787 H         1 <0>         0.2021
     26 H6         -5.7497   -2.2223   -0.8352 H         1 <0>         0.1539
     27 H7         -5.3310   -3.5346    3.2132 H         1 <0>         0.1504
     28 H8         -2.3502   -3.6814    3.4877 H         1 <0>         0.4050
     29 H9         -7.0993   -4.2345    0.9070 H         1 <0>         0.4041
     30 H10         3.8936    2.3103    0.8597 H         1 <0>         0.3934
@<TRIPOS>BOND
     1    1    6 ar
     2    1    2 ar
     3    1   21 1
     4    2    3 ar
     5    2   22 1
     6    3    4 ar
     7    3   20 1
     8    4    5 ar
     9    4   23 1
    10    5    6 ar
    11    5   24 1
    12    6    7 1
    13    7   16 1
    14    7    8 2
    15    8    9 1
    16    8   25 1
    17    9   10 1
    18   10   15 ar
    19   10   11 ar
    20   11   12 ar
    21   11   26 1
    22   12   13 ar
    23   12   19 1
    24   13   14 ar
    25   13   27 1
    26   14   15 ar
    27   14   18 1
    28   15   16 1
    29   16   17 2
    30   18   28 1
    31   19   29 1
    32   20   30 1
@<TRIPOS>MOLECULE
ZINC03869685
   32    34     0     0     0
SMALL
USER_CHARGES

@<TRIPOS>ATOM
      1 C1          0.9741   -0.2755   -0.9644 C.ar      1 <0>        -0.0748
      2 C2          2.1569    0.4329   -0.9701 C.ar      1 <0>        -0.1346
      3 C3          2.3856    1.4156   -0.0177 C.ar      1 <0>         0.1032
      4 C4          1.4203    1.6918    0.9495 C.ar      1 <0>         0.0788
      5 C5          0.2328    0.9863    0.9617 C.ar      1 <0>        -0.0762
      6 C6          0.0021   -0.0041    0.0020 C.ar      1 <0>        -0.0447
      7 C7         -1.2637   -0.7605    0.0100 C.2       1 <0>         0.1350
      8 C8         -2.4363   -0.0759    0.1235 C.2       1 <0>        -0.0429
      9 C9         -3.6628   -0.7894    0.1327 C.2       1 <0>         0.4011
     10 O1         -4.7327   -0.2102    0.2323 O.2       1 <0>        -0.4484
     11 C10        -3.5946   -2.2549    0.0170 C.ar      1 <0>        -0.2690
     12 C11        -4.7561   -3.0387    0.0170 C.ar      1 <0>         0.2244
     13 C12        -4.6504   -4.4123   -0.0941 C.ar      1 <0>        -0.2081
     14 C13        -3.3994   -5.0103   -0.2044 C.ar      1 <0>         0.2000
     15 C14        -2.2463   -4.2416   -0.2047 C.ar      1 <0>        -0.1854
     16 C15        -2.3316   -2.8618   -0.0952 C.ar      1 <0>         0.1876
     17 O2         -1.2182   -2.0992   -0.1003 O.3       1 <0>        -0.1970
     18 O3         -3.3070   -6.3605   -0.3125 O.3       1 <0>        -0.4866
     19 O4         -5.9758   -2.4535    0.1257 O.3       1 <0>        -0.4726
     20 O5         -2.4312    1.2810    0.2275 O.3       1 <0>        -0.4502
     21 O6          1.6480    2.6557    1.8815 O.3       1 <0>        -0.4836
     22 O7          3.5534    2.1101   -0.0273 O.3       1 <0>        -0.4861
     23 H1          0.7971   -1.0371   -1.7094 H         1 <0>         0.1379
     24 H2          2.9075    0.2221   -1.7176 H         1 <0>         0.1421
     25 H3         -0.5155    1.1988    1.7108 H         1 <0>         0.1429
     26 H4         -5.5413   -5.0229   -0.0948 H         1 <0>         0.1515
     27 H5         -1.2805   -4.7174   -0.2903 H         1 <0>         0.1559
     28 H6         -3.3257   -6.6843   -1.2235 H         1 <0>         0.4050
     29 H7         -6.3751   -2.2160   -0.7224 H         1 <0>         0.4036
     30 H8         -3.3120    1.6729    0.3033 H         1 <0>         0.4079
     31 H9          1.3508    3.5370    1.6166 H         1 <0>         0.3905
     32 H10         3.5287    2.9137   -0.5647 H         1 <0>         0.3924
@<TRIPOS>BOND
     1    1    6 ar
     2    1    2 ar
     3    1   23 1
     4    2    3 ar
     5    2   24 1
     6    3    4 ar
     7    3   22 1
     8    4    5 ar
     9    4   21 1
    10    5    6 ar
    11    5   25 1
    12    6    7 1
    13    7   17 1
    14    7    8 2
    15    8    9 1
    16    8   20 1
    17    9   10 2
    18    9   11 1
    19   11   16 ar
    20   11   12 ar
    21   12   13 ar
    22   12   19 1
    23   13   14 ar
    24   13   26 1
    25   14   15 ar
    26   14   18 1
    27   15   16 ar
    28   15   27 1
    29   16   17 1
    30   18   28 1
    31   19   29 1
    32   20   30 1
    33   21   31 1
    34   22   32 1
@<TRIPOS>MOLECULE
ZINC03869685
   31    33     0     0     0
SMALL
USER_CHARGES

@<TRIPOS>ATOM
      1 C1          0.1390    1.1246   -0.8120 C.ar      1 <0>        -0.0626
      2 C2          1.3229    1.8301   -0.8179 C.ar      1 <0>        -0.1333
      3 C3          2.3812    1.4233   -0.0172 C.ar      1 <0>         0.0878
      4 C4          2.2522    0.2984    0.7970 C.ar      1 <0>         0.0757
      5 C5          1.0694   -0.4139    0.8086 C.ar      1 <0>        -0.0997
      6 C6          0.0021   -0.0041    0.0020 C.ar      1 <0>        -0.0194
      7 C7         -1.2620   -0.7597    0.0100 C.2       1 <0>         0.1007
      8 C8         -2.4587   -0.0763    0.1245 C.2       1 <0>        -0.0038
      9 C9         -3.6655   -0.7872    0.1324 C.2       1 <0>         0.3349
     10 C10        -3.6167   -2.1939    0.0219 C.2       1 <0>        -0.3331
     11 C11        -4.8018   -2.9593    0.0240 C.2       1 <0>         0.2664
     12 C12        -4.7326   -4.3182   -0.0844 C.2       1 <0>        -0.3749
     13 C13        -3.4871   -4.9570   -0.1979 C.2       1 <0>         0.3648
     14 O1         -3.4307   -6.2860   -0.3033 O.2       1 <0>        -0.6598
     15 C14        -2.3054   -4.2086   -0.2016 C.2       1 <0>        -0.3143
     16 C15        -2.3616   -2.8325   -0.0921 C.2       1 <0>         0.2118
     17 O2         -1.2290   -2.0988   -0.0996 O.3       1 <0>        -0.2018
     18 O3         -6.0073   -2.3463    0.1339 O.3       1 <0>        -0.4482
     19 O4         -4.8484   -0.1420    0.2437 O.3       1 <0>        -0.5747
     20 O5         -2.4638    1.2803    0.2294 O.3       1 <0>        -0.4649
     21 O6          3.2919   -0.0973    1.5794 O.3       1 <0>        -0.4856
     22 O7          3.5458    2.1225   -0.0269 O.3       1 <0>        -0.4881
     23 H1         -0.6843    1.4460   -1.4327 H         1 <0>         0.1397
     24 H2          1.4276    2.7014   -1.4473 H         1 <0>         0.1381
     25 H3          0.9685   -1.2854    1.4384 H         1 <0>         0.1410
     26 H4         -5.6395   -4.9047   -0.0825 H         1 <0>         0.1180
     27 H5         -1.3506   -4.7057   -0.2895 H         1 <0>         0.1230
     28 H6         -6.7597   -2.9537    0.1258 H         1 <0>         0.3847
     29 H7         -3.3475    1.6656    0.3047 H         1 <0>         0.4058
     30 H8          3.2925    0.2977    2.4620 H         1 <0>         0.3855
     31 H9          3.5825    2.8346    0.6263 H         1 <0>         0.3863
@<TRIPOS>BOND
     1    1    6 ar
     2    1    2 ar
     3    1   23 1
     4    2    3 ar
     5    2   24 1
     6    3    4 ar
     7    3   22 1
     8    4    5 ar
     9    4   21 1
    10    5    6 ar
    11    5   25 1
    12    6    7 1
    13    7   17 1
    14    7    8 2
    15    8    9 1
    16    8   20 1
    17    9   10 2
    18    9   19 1
    19   10   16 1
    20   10   11 1
    21   11   12 2
    22   11   18 1
    23   12   13 1
    24   12   26 1
    25   13   14 2
    26   13   15 1
    27   15   16 2
    28   15   27 1
    29   16   17 1
    30   18   28 1
    31   20   29 1
    32   21   30 1
    33   22   31 1
