@<TRIPOS>MOLECULE
ZINC00029121
   29    30     0     0     0
SMALL
USER_CHARGES
4-(2,5-dimethylpyrrol-1-yl)-2-hydroxy-benzoic acid
@<TRIPOS>ATOM
      1 C1          3.3372    3.2078    2.2832 C.3       1 <0>        -0.0861
      2 C2          4.0445    2.9292    0.9820 C.2       1 <0>         0.0203
      3 C3          5.2388    3.4306    0.6083 C.2       1 <0>        -0.1995
      4 C4          5.5280    2.9238   -0.6752 C.2       1 <0>        -0.2003
      5 C5          4.5027    2.1266   -1.0363 C.2       1 <0>         0.0230
      6 N1          3.5880    2.1217   -0.0213 N.pl3     1 <0>        -0.3922
      7 C6          2.3829    1.4133   -0.0131 C.ar      1 <0>         0.1178
      8 C7          2.3969    0.0209   -0.0207 C.ar      1 <0>        -0.1366
      9 C8          1.2260   -0.6813   -0.0133 C.ar      1 <0>        -0.0521
     10 C9          0.0021   -0.0041    0.0020 C.ar      1 <0>        -0.1295
     11 C10        -0.0170    1.3994    0.0097 C.ar      1 <0>         0.1494
     12 C11         1.1773    2.1005    0.0021 C.ar      1 <0>        -0.1554
     13 O1         -1.1987    2.0653    0.0189 O.3       1 <0>        -0.4712
     14 C12        -1.2607   -0.7602    0.0095 C.2       1 <0>         0.4870
     15 O2         -2.3228   -0.1694    0.0224 O.co2     1 <0>        -0.6112
     16 C13         4.3853    1.3717   -2.3353 C.3       1 <0>        -0.0876
     17 H1          3.6418    2.4718    3.0272 H         1 <0>         0.0689
     18 H2          3.5986    4.2068    2.6322 H         1 <0>         0.0769
     19 H3          2.2596    3.1464    2.1314 H         1 <0>         0.0653
     20 H4          5.8585    4.1015    1.1847 H         1 <0>         0.1341
     21 H5          6.4097    3.1358   -1.2618 H         1 <0>         0.1343
     22 H6          3.3393   -0.5065   -0.0322 H         1 <0>         0.1246
     23 H7          1.2448   -1.7611   -0.0196 H         1 <0>         0.1436
     24 H8          1.1704    3.1805    0.0076 H         1 <0>         0.1283
     25 H9         -1.5371    2.2536    0.9050 H         1 <0>         0.3882
     26 H10         3.8810    1.9952   -3.0736 H         1 <0>         0.0689
     27 H11         5.3807    1.1136   -2.6968 H         1 <0>         0.0772
     28 H12         3.8093    0.4603   -2.1751 H         1 <0>         0.0675
     29 O3         -1.2393   -2.1079    0.0021 O.co2     1 <0>        -0.7536
@<TRIPOS>BOND
     1    1    2 1
     2    1   17 1
     3    1   18 1
     4    1   19 1
     5    2    6 1
     6    2    3 2
     7    3    4 1
     8    3   20 1
     9    4    5 2
    10    4   21 1
    11    5    6 1
    12    5   16 1
    13    6    7 1
    14    7   12 ar
    15    7    8 ar
    16    8    9 ar
    17    8   22 1
    18    9   10 ar
    19    9   23 1
    20   10   11 ar
    21   10   14 1
    22   11   12 ar
    23   11   13 1
    24   12   24 1
    25   13   25 1
    26   14   15 2
    27   14   29 1
    28   16   26 1
    29   16   27 1
    30   16   28 1
@<TRIPOS>MOLECULE
ZINC00244550
   32    33     0     0     0
SMALL
USER_CHARGES
2-[4-(2,5-dimethylpyrrol-1-yl)phenyl]sulfanylacetic acid
@<TRIPOS>ATOM
      1 C1         -1.2491    2.2280    0.0203 C.3       1 <0>        -0.0844
      2 C2         -0.0164    1.3611    0.0095 C.2       1 <0>         0.0197
      3 C3          1.2590    1.7998   -0.0003 C.2       1 <0>        -0.1985
      4 C4          2.0959    0.6662   -0.0144 C.2       1 <0>        -0.1985
      5 C5          1.3012   -0.4236   -0.0126 C.2       1 <0>         0.0191
      6 N1          0.0021   -0.0041    0.0020 N.pl3     1 <0>        -0.3924
      7 C6         -1.1271   -0.8379    0.0087 C.ar      1 <0>         0.0857
      8 C7         -1.9732   -0.8513    1.1095 C.ar      1 <0>        -0.0844
      9 C8         -3.0864   -1.6674    1.1147 C.ar      1 <0>        -0.1305
     10 C9         -3.3541   -2.4838    0.0226 C.ar      1 <0>        -0.0804
     11 C10        -2.5040   -2.4738   -1.0766 C.ar      1 <0>        -0.0972
     12 C11        -1.3943   -1.6530   -1.0829 C.ar      1 <0>        -0.0881
     13 S1         -4.7706   -3.5317    0.0317 S.3       1 <0>        -0.0470
     14 C12        -5.5496   -3.2027    1.6366 C.3       1 <0>        -0.1522
     15 C13        -6.7903   -4.0467    1.7752 C.2       1 <0>         0.4809
     16 O1         -7.1157   -4.7935    0.8829 O.co2     1 <0>        -0.6142
     17 C14         1.7668   -1.8568   -0.0252 C.3       1 <0>        -0.0840
     18 H1         -1.5411    2.4314    1.0506 H         1 <0>         0.0688
     19 H2         -1.0368    3.1677   -0.4894 H         1 <0>         0.0774
     20 H3         -2.0608    1.7118   -0.4923 H         1 <0>         0.0640
     21 H4          1.5800    2.8310    0.0022 H         1 <0>         0.1345
     22 H5          3.1759    0.6695   -0.0247 H         1 <0>         0.1345
     23 H6         -1.7624   -0.2202    1.9602 H         1 <0>         0.1263
     24 H7         -3.7467   -1.6747    1.9693 H         1 <0>         0.1331
     25 H8         -2.7117   -3.1079   -1.9259 H         1 <0>         0.1356
     26 H9         -0.7335   -1.6451   -1.9371 H         1 <0>         0.1280
     27 H10        -4.8514   -3.4489    2.4366 H         1 <0>         0.0918
     28 H11        -5.8184   -2.1483    1.7006 H         1 <0>         0.0919
     29 H12         1.8694   -2.1965   -1.0559 H         1 <0>         0.0687
     30 H13         2.7303   -1.9302    0.4791 H         1 <0>         0.0771
     31 H14         1.0376   -2.4803    0.4919 H         1 <0>         0.0641
     32 O2         -7.5340   -3.9687    2.8899 O.co2     1 <0>        -0.7496
@<TRIPOS>BOND
     1    1    2 1
     2    1   18 1
     3    1   19 1
     4    1   20 1
     5    2    6 1
     6    2    3 2
     7    3    4 1
     8    3   21 1
     9    4    5 2
    10    4   22 1
    11    5    6 1
    12    5   17 1
    13    6    7 1
    14    7   12 ar
    15    7    8 ar
    16    8    9 ar
    17    8   23 1
    18    9   10 ar
    19    9   24 1
    20   10   11 ar
    21   10   13 1
    22   11   12 ar
    23   11   25 1
    24   12   26 1
    25   13   14 1
    26   14   15 1
    27   14   27 1
    28   14   28 1
    29   15   16 2
    30   15   32 1
    31   17   29 1
    32   17   30 1
    33   17   31 1
@<TRIPOS>MOLECULE
ZINC13943857
   40    42     0     0     0
SMALL
USER_CHARGES
(5Z)-3-(3-chlorophenyl)-5-[(4-hydroxy-3,5-dimethoxy-phenyl)methylene]-2-thioxo-thiazolidin-4-one
@<TRIPOS>ATOM
      1 C1          6.1251   10.6680    0.1717 C.3       1 <0>         0.0211
      2 O1          4.7979   11.1863    0.2816 O.3       1 <0>        -0.2984
      3 C2          3.7821   10.2823    0.3060 C.ar      1 <0>         0.1410
      4 C3          4.0591    8.9309    0.2261 C.ar      1 <0>        -0.1894
      5 C4          3.0125    8.0011    0.2509 C.ar      1 <0>        -0.0324
      6 C5          1.6886    8.4454    0.3509 C.ar      1 <0>        -0.2058
      7 C6          1.4204    9.7983    0.4362 C.ar      1 <0>         0.1467
      8 C7          2.4642   10.7199    0.4112 C.ar      1 <0>         0.0716
      9 O2          2.1959   12.0503    0.4900 O.3       1 <0>        -0.4688
     10 O3          0.1351   10.2307    0.5389 O.3       1 <0>        -0.2963
     11 C8         -0.8860    9.2312    0.5589 C.3       1 <0>         0.0191
     12 C9          3.3023    6.5641    0.1662 C.2       1 <0>         0.0960
     13 C10         2.4171    5.6627    0.6631 C.2       1 <0>        -0.2378
     14 C11         2.4147    4.1901    0.5585 C.2       1 <0>         0.5443
     15 O4          3.2887    3.5902   -0.0396 O.2       1 <0>        -0.4418
     16 N1          1.4151    3.5557    1.1477 N.am      1 <0>        -0.4775
     17 C12         0.4462    4.2245    1.8053 C.2       1 <0>         0.2569
     18 S1         -0.9201    3.5896    2.6184 S.2       1 <0>        -0.2979
     19 S2          0.9344    5.9325    1.6245 S.3       1 <0>         0.0815
     20 C13         1.3584    2.1571    1.0823 C.ar      1 <0>         0.1023
     21 C14         1.0835    1.5277   -0.1247 C.ar      1 <0>        -0.0813
     22 C15         1.0272    0.1492   -0.1866 C.ar      1 <0>        -0.0938
     23 C16         1.2451   -0.6051    0.9517 C.ar      1 <0>        -0.0864
     24 C17         1.5197    0.0186    2.1561 C.ar      1 <0>        -0.0244
     25 C18         1.5769    1.3983    2.2238 C.ar      1 <0>        -0.0743
     26 Cl1         1.7921   -0.9320    3.5829 Cl        1 <0>        -0.0504
     27 H1          6.8377   11.4927    0.1633 H         1 <0>         0.1075
     28 H2          6.3325   10.0173    1.0212 H         1 <0>         0.0606
     29 H3          6.2173   10.0986   -0.7532 H         1 <0>         0.0604
     30 H4          5.0814    8.5923    0.1442 H         1 <0>         0.1470
     31 H5          0.8782    7.7316    0.3654 H         1 <0>         0.1457
     32 H6          2.0616   12.4760   -0.3678 H         1 <0>         0.3897
     33 H7         -0.7304    8.5698    1.4112 H         1 <0>         0.0616
     34 H8         -1.8615    9.7100    0.6438 H         1 <0>         0.1104
     35 H9         -0.8449    8.6513   -0.3632 H         1 <0>         0.0596
     36 H10         4.2197    6.2243   -0.2913 H         1 <0>         0.1695
     37 H11         0.9138    2.1159   -1.0145 H         1 <0>         0.1331
     38 H12         0.8130   -0.3403   -1.1251 H         1 <0>         0.1469
     39 H13         1.2005   -1.6830    0.9008 H         1 <0>         0.1453
     40 H14         1.7868    1.8851    3.1647 H         1 <0>         0.1388
@<TRIPOS>BOND
     1    1    2 1
     2    1   27 1
     3    1   28 1
     4    1   29 1
     5    2    3 1
     6    3    8 ar
     7    3    4 ar
     8    4    5 ar
     9    4   30 1
    10    5    6 ar
    11    5   12 1
    12    6    7 ar
    13    6   31 1
    14    7    8 ar
    15    7   10 1
    16    8    9 1
    17    9   32 1
    18   10   11 1
    19   11   33 1
    20   11   34 1
    21   11   35 1
    22   12   13 2
    23   12   36 1
    24   13   19 1
    25   13   14 1
    26   14   15 2
    27   14   16 am
    28   16   17 1
    29   16   20 1
    30   17   18 2
    31   17   19 1
    32   20   25 ar
    33   20   21 ar
    34   21   22 ar
    35   21   37 1
    36   22   23 ar
    37   22   38 1
    38   23   24 ar
    39   23   39 1
    40   24   25 ar
    41   24   26 1
    42   25   40 1
@<TRIPOS>MOLECULE
ZINC16156527
   40    42     0     0     0
SMALL
USER_CHARGES
(5Z)-3-(4-chlorophenyl)-5-[(4-hydroxy-3,5-dimethoxy-phenyl)methylene]-2-thioxo-thiazolidin-4-one
@<TRIPOS>ATOM
      1 C1          3.7356    8.2076    0.3266 C.3       1 <0>         0.0211
      2 O1          2.3136    8.2445    0.4626 O.3       1 <0>        -0.2984
      3 C2          1.6612    7.0513    0.4521 C.ar      1 <0>         0.1410
      4 C3          2.3747    5.8760    0.3142 C.ar      1 <0>        -0.1895
      5 C4          1.7021    4.6480    0.3036 C.ar      1 <0>        -0.0325
      6 C5          0.3078    4.6168    0.4269 C.ar      1 <0>        -0.2057
      7 C6         -0.3979    5.7963    0.5697 C.ar      1 <0>         0.1467
      8 C7          0.2749    7.0156    0.5798 C.ar      1 <0>         0.0716
      9 O2         -0.4235    8.1741    0.7152 O.3       1 <0>        -0.4688
     10 O3         -1.7518    5.7667    0.6947 O.3       1 <0>        -0.2963
     11 C8         -2.3771    4.4819    0.6762 C.3       1 <0>         0.0191
     12 C9          2.4564    3.3968    0.1574 C.2       1 <0>         0.0959
     13 C10         1.9352    2.2319    0.6205 C.2       1 <0>        -0.2380
     14 C11         2.4260    0.8495    0.4546 C.2       1 <0>         0.5438
     15 O4          3.4400    0.6019   -0.1717 O.2       1 <0>        -0.4420
     16 N1          1.7085   -0.1062    1.0207 N.am      1 <0>        -0.4778
     17 C12         0.5862    0.1725    1.7144 C.2       1 <0>         0.2583
     18 S1         -0.4678   -0.9148    2.5130 S.2       1 <0>        -0.3004
     19 S2          0.4659    1.9503    1.5990 S.3       1 <0>         0.0806
     20 C13         2.1242   -1.4391    0.8973 C.ar      1 <0>         0.0929
     21 C14         2.6110   -2.1210    2.0044 C.ar      1 <0>        -0.0682
     22 C15         3.0141   -3.4363    1.8816 C.ar      1 <0>        -0.0967
     23 C16         2.9448   -4.0706    0.6536 C.ar      1 <0>        -0.0140
     24 C17         2.4653   -3.3913   -0.4526 C.ar      1 <0>        -0.0987
     25 C18         2.0552   -2.0779   -0.3335 C.ar      1 <0>        -0.0722
     26 Cl1         3.4596   -5.7215    0.5008 Cl        1 <0>        -0.0528
     27 H1          4.1294    9.2237    0.3508 H         1 <0>         0.1076
     28 H2          4.1642    7.6323    1.1472 H         1 <0>         0.0605
     29 H3          3.9979    7.7388   -0.6218 H         1 <0>         0.0604
     30 H4          3.4497    5.9046    0.2145 H         1 <0>         0.1470
     31 H5         -0.2151    3.6719    0.4146 H         1 <0>         0.1457
     32 H6         -0.7078    8.5623   -0.1236 H         1 <0>         0.3898
     33 H7         -1.9937    3.8793    1.4996 H         1 <0>         0.0615
     34 H8         -3.4552    4.6009    0.7844 H         1 <0>         0.1105
     35 H9         -2.1594    3.9855   -0.2694 H         1 <0>         0.0596
     36 H10         3.4258    3.4031   -0.3186 H         1 <0>         0.1695
     37 H11         2.6698   -1.6249    2.9619 H         1 <0>         0.1382
     38 H12         3.3880   -3.9688    2.7436 H         1 <0>         0.1478
     39 H13         2.4115   -3.8888   -1.4097 H         1 <0>         0.1469
     40 H14         1.6807   -1.5483   -1.1970 H         1 <0>         0.1360
@<TRIPOS>BOND
     1    1    2 1
     2    1   27 1
     3    1   28 1
     4    1   29 1
     5    2    3 1
     6    3    8 ar
     7    3    4 ar
     8    4    5 ar
     9    4   30 1
    10    5    6 ar
    11    5   12 1
    12    6    7 ar
    13    6   31 1
    14    7    8 ar
    15    7   10 1
    16    8    9 1
    17    9   32 1
    18   10   11 1
    19   11   33 1
    20   11   34 1
    21   11   35 1
    22   12   13 2
    23   12   36 1
    24   13   19 1
    25   13   14 1
    26   14   15 2
    27   14   16 am
    28   16   17 1
    29   16   20 1
    30   17   18 2
    31   17   19 1
    32   20   25 ar
    33   20   21 ar
    34   21   22 ar
    35   21   37 1
    36   22   23 ar
    37   22   38 1
    38   23   24 ar
    39   23   26 1
    40   24   25 ar
    41   24   39 1
    42   25   40 1
@<TRIPOS>MOLECULE
ZINC33424013
   42    44     0     0     0
SMALL
USER_CHARGES
(5Z)-5-[(4-hydroxy-3,5-dimethoxy-phenyl)methylene]-3-(4-nitrophenyl)-2-thioxo-thiazolidin-4-one
@<TRIPOS>ATOM
      1 C1          3.1981    7.8908    2.0629 C.3       1 <0>         0.0188
      2 O1          1.8602    7.9812    1.5688 O.3       1 <0>        -0.2974
      3 C2          1.3414    6.8682    0.9844 C.ar      1 <0>         0.1172
      4 C3          2.1033    5.7192    0.8904 C.ar      1 <0>        -0.1554
      5 C4          1.5683    4.5740    0.2882 C.ar      1 <0>        -0.0787
      6 C5          0.2645    4.5997   -0.2213 C.ar      1 <0>        -0.1701
      7 C6         -0.4930    5.7509   -0.1182 C.ar      1 <0>         0.0703
      8 C7          0.0430    6.8880    0.4811 C.ar      1 <0>         0.1446
      9 O2         -0.7034    8.0203    0.5755 O.3       1 <0>        -0.4855
     10 O3         -1.7616    5.7752   -0.6077 O.3       1 <0>        -0.3165
     11 C8         -2.2478    4.5738   -1.2095 C.3       1 <0>         0.0242
     12 C9          2.3747    3.3512    0.1858 C.2       1 <0>         0.1127
     13 C10         1.7649    2.1432    0.0754 C.2       1 <0>        -0.2559
     14 C11         2.3502    0.8145   -0.1916 C.2       1 <0>         0.5457
     15 O4          3.5473    0.6637   -0.3521 O.2       1 <0>        -0.4448
     16 N1          1.5083   -0.2038   -0.2471 N.am      1 <0>        -0.4863
     17 C12         0.1827   -0.0324   -0.0683 C.2       1 <0>         0.2530
     18 S1         -1.0562   -1.2135   -0.1020 S.2       1 <0>        -0.3000
     19 S2          0.0325    1.7245    0.2126 S.3       1 <0>         0.0924
     20 C13         2.0049   -1.4900   -0.4970 C.ar      1 <0>         0.1466
     21 C14         1.9931   -2.4477    0.5082 C.ar      1 <0>        -0.0822
     22 C15         2.4789   -3.7161    0.2575 C.ar      1 <0>        -0.0395
     23 C16         2.9864   -4.0295   -0.9901 C.ar      1 <0>        -0.0255
     24 C17         3.0044   -3.0763   -1.9917 C.ar      1 <0>        -0.0410
     25 C18         2.5151   -1.8077   -1.7486 C.ar      1 <0>        -0.0860
     26 N2          3.5110   -5.3882   -1.2541 N.pl3     1 <0>         0.0240
     27 O5          3.9579   -5.6657   -2.3526 O.2       1 <0>        -0.1485
     28 O6          3.4958   -6.2287   -0.3727 O.3       1 <0>        -0.1472
     29 H1          3.4907    8.8536    2.5072 H         1 <0>         0.1080
     30 H2          3.8793    7.6472    1.2343 H         1 <0>         0.0599
     31 H3          3.2540    7.1020    2.8276 H         1 <0>         0.0595
     32 H4          3.1103    5.7047    1.2807 H         1 <0>         0.1490
     33 H5         -0.1502    3.7198   -0.6905 H         1 <0>         0.1431
     34 H6         -1.7291    8.0376    0.1785 H         1 <0>         0.4451
     35 H7         -3.2785    4.7306   -1.5603 H         1 <0>         0.1123
     36 H8         -2.2322    3.7605   -0.4690 H         1 <0>         0.0617
     37 H9         -1.6070    4.3056   -2.0624 H         1 <0>         0.0603
     38 H10         3.4728    3.4138    0.1985 H         1 <0>         0.1729
     39 H11         1.6006   -2.2023    1.4840 H         1 <0>         0.1536
     40 H12         2.4659   -4.4628    1.0376 H         1 <0>         0.1677
     41 H13         3.4010   -3.3241   -2.9652 H         1 <0>         0.1669
     42 H14         2.5291   -1.0638   -2.5314 H         1 <0>         0.1515
@<TRIPOS>BOND
     1    1    2 1
     2    1   29 1
     3    1   30 1
     4    1   31 1
     5    2    3 1
     6    3    8 ar
     7    3    4 ar
     8    4    5 ar
     9    4   32 1
    10    5    6 ar
    11    5   12 1
    12    6    7 ar
    13    6   33 1
    14    7    8 ar
    15    7   10 1
    16    8    9 1
    17    9   34 1
    18   10   11 1
    19   11   35 1
    20   11   36 1
    21   11   37 1
    22   12   13 2
    23   12   38 1
    24   13   19 1
    25   13   14 1
    26   14   15 2
    27   14   16 am
    28   16   17 1
    29   16   20 1
    30   17   18 2
    31   17   19 1
    32   20   25 ar
    33   20   21 ar
    34   21   22 ar
    35   21   39 1
    36   22   23 ar
    37   22   40 1
    38   23   24 ar
    39   23   26 1
    40   24   25 ar
    41   24   41 1
    42   25   42 1
    43   26   27 2
    44   26   28 1
@<TRIPOS>MOLECULE
ZINC01136094
   43    45     0     0     0
SMALL
USER_CHARGES
5-[(4-hydroxy-3,5-dimethoxy-phenyl)methylene]-2-thioxo-3-[3-(trifluoromethyl)phenyl]-thiazolidin-4-one
@<TRIPOS>ATOM
      1 C1          0.4675    1.0236    0.1995 C.3       1 <0>         0.0176
      2 O1         -0.2481    1.4602    1.3568 O.3       1 <0>        -0.2954
      3 C2         -0.3801    2.8025    1.5312 C.ar      1 <0>         0.1475
      4 C3          0.1716    3.6751    0.6126 C.ar      1 <0>        -0.1989
      5 C4          0.0307    5.0568    0.7903 C.ar      1 <0>        -0.0323
      6 C5         -0.6597    5.5487    1.9047 C.ar      1 <0>        -0.1865
      7 C6         -1.2039    4.6695    2.8214 C.ar      1 <0>         0.1414
      8 C7         -1.0660    3.2958    2.6382 C.ar      1 <0>         0.0745
      9 O2         -1.6028    2.4341    3.5423 O.3       1 <0>        -0.4681
     10 O3         -1.8746    5.1462    3.9041 O.3       1 <0>        -0.2978
     11 C8         -1.9782    6.5659    4.0297 C.3       1 <0>         0.0207
     12 C9          0.6109    5.9875   -0.1859 C.2       1 <0>         0.0953
     13 C10         1.1214    5.5166   -1.3524 C.2       1 <0>        -0.2381
     14 C11         1.8627    6.2299   -2.4113 C.2       1 <0>         0.5443
     15 O4          2.1084    7.4192   -2.3294 O.2       1 <0>        -0.4413
     16 N1          2.2496    5.5107   -3.4514 N.am      1 <0>        -0.4774
     17 C12         1.9690    4.1947   -3.5415 C.2       1 <0>         0.2479
     18 S1          2.3726    3.1052   -4.7988 S.2       1 <0>        -0.3024
     19 S2          1.0740    3.8639   -2.0322 S.3       1 <0>         0.0846
     20 C13         2.9618    6.1314   -4.4863 C.ar      1 <0>         0.0893
     21 C14         4.2994    5.8213   -4.6938 C.ar      1 <0>        -0.0492
     22 C15         4.9973    6.4311   -5.7176 C.ar      1 <0>        -0.1041
     23 C16         4.3683    7.3577   -6.5291 C.ar      1 <0>        -0.0467
     24 C17         3.0381    7.6725   -6.3216 C.ar      1 <0>        -0.1731
     25 C18         2.3332    7.0619   -5.3025 C.ar      1 <0>        -0.0378
     26 C19         2.3566    8.6830   -7.2079 C.3       1 <0>         0.5119
     27 F1          2.5032    9.9605   -6.6568 F         1 <0>        -0.1718
     28 F2          2.9377    8.6545   -8.4802 F         1 <0>        -0.1715
     29 F3          0.9964    8.3722   -7.3093 F         1 <0>        -0.1745
     30 H1          0.4991   -0.0658    0.1814 H         1 <0>         0.1122
     31 H2          1.4838    1.4161    0.2312 H         1 <0>         0.0609
     32 H3         -0.0347    1.3875   -0.6969 H         1 <0>         0.0607
     33 H4          0.7072    3.2919   -0.2433 H         1 <0>         0.1401
     34 H5         -0.7670    6.6138    2.0474 H         1 <0>         0.1486
     35 H6         -1.0046    2.1987    4.2646 H         1 <0>         0.3906
     36 H7         -0.9798    6.9992    4.0895 H         1 <0>         0.0607
     37 H8         -2.4984    6.9705    3.1614 H         1 <0>         0.0611
     38 H9         -2.5355    6.8110    4.9338 H         1 <0>         0.1080
     39 H10         0.6316    7.0467    0.0239 H         1 <0>         0.1703
     40 H11         4.7922    5.1008   -4.0578 H         1 <0>         0.1392
     41 H12         6.0364    6.1871   -5.8823 H         1 <0>         0.1513
     42 H13         4.9174    7.8366   -7.3263 H         1 <0>         0.1484
     43 H14         1.2942    7.3084   -5.1407 H         1 <0>         0.1397
@<TRIPOS>BOND
     1    1    2 1
     2    1   30 1
     3    1   31 1
     4    1   32 1
     5    2    3 1
     6    3    8 ar
     7    3    4 ar
     8    4    5 ar
     9    4   33 1
    10    5    6 ar
    11    5   12 1
    12    6    7 ar
    13    6   34 1
    14    7    8 ar
    15    7   10 1
    16    8    9 1
    17    9   35 1
    18   10   11 1
    19   11   36 1
    20   11   37 1
    21   11   38 1
    22   12   13 2
    23   12   39 1
    24   13   19 1
    25   13   14 1
    26   14   15 2
    27   14   16 am
    28   16   17 1
    29   16   20 1
    30   17   18 2
    31   17   19 1
    32   20   25 ar
    33   20   21 ar
    34   21   22 ar
    35   21   40 1
    36   22   23 ar
    37   22   41 1
    38   23   24 ar
    39   23   42 1
    40   24   25 ar
    41   24   26 1
    42   25   43 1
    43   26   27 1
    44   26   28 1
    45   26   29 1
