@<TRIPOS>MOLECULE
ZINC04127238
   17    18     0     0     0
SMALL
USER_CHARGES

@<TRIPOS>ATOM
      1 C1         -0.0168    1.3850    0.0097 C.ar      1 <0>        -0.1128
      2 C2         -1.2006    2.0644    0.0189 C.ar      1 <0>        -0.0267
      3 C3         -2.4059    1.3541    0.0208 C.ar      1 <0>        -0.1431
      4 C4         -3.8125    1.7428    0.0295 C.2       1 <0>         0.0801
      5 N1         -4.5264    0.6535    0.0270 N.2       1 <0>        -0.2235
      6 H1         -3.9888   -1.3916    0.0128 H         1 <0>         0.4481
      7 N2         -3.6911   -0.4684    0.0170 N.pl3     1 <0>        -0.4961
      8 C5         -2.3847   -0.0542    0.0130 C.ar      1 <0>         0.1228
      9 C6         -1.1617   -0.7198    0.0037 C.ar      1 <0>        -0.0667
     10 C7          0.0021   -0.0041    0.0020 C.ar      1 <0>         0.0043
     11 N3          1.2988   -0.7174   -0.0142 N.pl3     1 <0>         0.0298
     12 O1          2.3331   -0.0913   -0.0207 O.2       1 <0>        -0.1439
     13 O2          1.3238   -1.9261   -0.0209 O.3       1 <0>        -0.1558
     14 H2          0.9141    1.9326    0.0037 H         1 <0>         0.1589
     15 H3         -1.2069    3.1444    0.0252 H         1 <0>         0.1558
     16 H4         -4.1935    2.7534    0.0373 H         1 <0>         0.2100
     17 H5         -1.1331   -1.7994   -0.0025 H         1 <0>         0.1588
@<TRIPOS>BOND
     1    1   10 ar
     2    1   14 1
     3    1    2 ar
     4    2   15 1
     5    2    3 ar
     6    3    8 ar
     7    3    4 1
     8    4    5 2
     9    4   16 1
    10    5    7 1
    11    6    7 1
    12    7    8 1
    13    8    9 ar
    14    9   17 1
    15    9   10 ar
    16   10   11 1
    17   11   12 2
    18   11   13 1
