@<TRIPOS>MOLECULE
ZINC03805769
   48    51     0     0     0
SMALL
USER_CHARGES
2-[2-(4-chlorophenyl)-6,6-dimethyl-1-phenyl-5,7-dihydropyrrolizin-3-yl]acetic acid
@<TRIPOS>ATOM
      1 C1         -2.2532   -1.4002    4.0865 C.3       1 <0>        -0.1356
      2 C2         -3.1452   -0.5402    3.1888 C.3       1 <0>        -0.0760
      3 C3         -3.2276    0.9088    3.7180 C.3       1 <0>        -0.0445
      4 C4         -2.1209    1.6373    2.9823 C.2       1 <0>         0.0128
      5 C5         -1.3852    2.7825    3.0385 C.2       1 <0>        -0.1130
      6 C6         -0.4588    2.7332    1.8996 C.2       1 <0>        -0.1371
      7 C7         -0.7181    1.5718    1.2479 C.2       1 <0>         0.1342
      8 N1         -1.7212    0.9110    1.9042 N.pl3     1 <0>        -0.4574
      9 C8         -2.5000   -0.3374    1.8023 C.3       1 <0>         0.1145
     10 C9         -0.0127    1.0858    0.0080 C.3       1 <0>        -0.1077
     11 C10        -0.7416    1.5850   -1.2129 C.2       1 <0>         0.4690
     12 O1         -1.7322    2.2656   -1.0889 O.co2     1 <0>        -0.6251
     13 C11         0.5559    3.7511    1.5337 C.ar      1 <0>         0.0222
     14 C12         1.6305    4.0046    2.3845 C.ar      1 <0>        -0.0994
     15 C13         2.5740    4.9499    2.0376 C.ar      1 <0>        -0.1175
     16 C14         2.4497    5.6526    0.8513 C.ar      1 <0>        -0.0415
     17 C15         1.3816    5.4080    0.0051 C.ar      1 <0>        -0.1098
     18 C16         0.4351    4.4616    0.3408 C.ar      1 <0>        -0.0837
     19 Cl1         3.6368    6.8449    0.4236 Cl        1 <0>        -0.0888
     20 C17        -1.4938    3.8609    4.0508 C.ar      1 <0>         0.0167
     21 C18        -2.6573    4.6233    4.1386 C.ar      1 <0>        -0.1100
     22 C19        -2.7549    5.6217    5.0864 C.ar      1 <0>        -0.1213
     23 C20        -1.6964    5.8743    5.9403 C.ar      1 <0>        -0.1330
     24 C21        -0.5371    5.1245    5.8539 C.ar      1 <0>        -0.1217
     25 C22        -0.4306    4.1195    4.9142 C.ar      1 <0>        -0.1079
     26 C23        -4.5402   -1.1550    3.0589 C.3       1 <0>        -0.1351
     27 H1         -2.6778   -1.4401    5.0895 H         1 <0>         0.0616
     28 H2         -2.1911   -2.4088    3.6778 H         1 <0>         0.0589
     29 H3         -1.2551   -0.9643    4.1315 H         1 <0>         0.0594
     30 H4         -3.0508    0.9328    4.7933 H         1 <0>         0.0822
     31 H5         -4.1967    1.3472    3.4800 H         1 <0>         0.0828
     32 H6         -3.2715   -0.2386    1.0387 H         1 <0>         0.0850
     33 H7         -1.8417   -1.1737    1.5673 H         1 <0>         0.0816
     34 H8          0.0021   -0.0041    0.0020 H         1 <0>         0.0691
     35 H9          1.0099    1.4631    0.0003 H         1 <0>         0.0873
     36 H10         1.7264    3.4596    3.3119 H         1 <0>         0.1261
     37 H11         3.4087    5.1449    2.6947 H         1 <0>         0.1267
     38 H12         1.2889    5.9591   -0.9191 H         1 <0>         0.1296
     39 H13        -0.3982    4.2720   -0.3197 H         1 <0>         0.1433
     40 H14        -3.4826    4.4299    3.4694 H         1 <0>         0.1189
     41 H15        -3.6578    6.2099    5.1585 H         1 <0>         0.1166
     42 H16        -1.7755    6.6596    6.6775 H         1 <0>         0.1145
     43 H17         0.2860    5.3259    6.5234 H         1 <0>         0.1165
     44 H18         0.4747    3.5343    4.8481 H         1 <0>         0.1185
     45 H19        -5.1436   -0.5474    2.3844 H         1 <0>         0.0621
     46 H20        -4.4561   -2.1659    2.6602 H         1 <0>         0.0612
     47 H21        -5.0148   -1.1895    4.0395 H         1 <0>         0.0640
     48 O2         -0.2903    1.2736   -2.4381 O.co2     1 <0>        -0.7691
@<TRIPOS>BOND
     1    1    2 1
     2    1   27 1
     3    1   28 1
     4    1   29 1
     5    2    9 1
     6    2    3 1
     7    2   26 1
     8    3    4 1
     9    3   30 1
    10    3   31 1
    11    4    8 1
    12    4    5 2
    13    5    6 1
    14    5   20 1
    15    6    7 2
    16    6   13 1
    17    7    8 1
    18    7   10 1
    19    8    9 1
    20    9   32 1
    21    9   33 1
    22   10   11 1
    23   10   34 1
    24   10   35 1
    25   11   12 2
    26   11   48 1
    27   13   18 ar
    28   13   14 ar
    29   14   15 ar
    30   14   36 1
    31   15   16 ar
    32   15   37 1
    33   16   17 ar
    34   16   19 1
    35   17   18 ar
    36   17   38 1
    37   18   39 1
    38   20   25 ar
    39   20   21 ar
    40   21   22 ar
    41   21   40 1
    42   22   23 ar
    43   22   41 1
    44   23   24 ar
    45   23   42 1
    46   24   25 ar
    47   24   43 1
    48   25   44 1
    49   26   45 1
    50   26   46 1
    51   26   47 1
@<TRIPOS>MOLECULE
ZINC00001630
   38    39     0     0     0
SMALL
USER_CHARGES
(4-acetoxy-6-chloro-2,3-dimethoxy-1-naphthyl) acetate
@<TRIPOS>ATOM
      1 C1          2.5619   -2.2892   -1.7152 C.3       1 <0>        -0.1415
      2 C2          2.4710   -0.8003   -1.5004 C.2       1 <0>         0.4543
      3 O1          2.2841   -0.0622   -2.4435 O.2       1 <0>        -0.4858
      4 O2          2.5970   -0.2917   -0.2649 O.3       1 <0>        -0.2816
      5 C3          2.5049    1.0595   -0.1411 C.ar      1 <0>         0.0978
      6 C4          1.2533    1.6652    0.0860 C.ar      1 <0>        -0.0393
      7 C5          0.0828    0.8949    0.1889 C.ar      1 <0>        -0.0799
      8 C6         -1.1126    1.5096    0.4029 C.ar      1 <0>        -0.0965
      9 C7         -1.1934    2.8958    0.5326 C.ar      1 <0>        -0.0170
     10 C8         -0.0792    3.6741    0.4383 C.ar      1 <0>        -0.0880
     11 C9          1.1712    3.0745    0.2125 C.ar      1 <0>        -0.0275
     12 C10         2.3419    3.8513    0.1088 C.ar      1 <0>         0.0974
     13 C11         3.5549    3.2339   -0.1132 C.ar      1 <0>         0.1016
     14 C12         3.6361    1.8423   -0.2378 C.ar      1 <0>         0.1011
     15 O3          4.8438    1.2555   -0.4571 O.3       1 <0>        -0.3234
     16 C13         5.5992    0.8755    0.6949 C.3       1 <0>         0.0357
     17 O4          4.6844    3.9856   -0.2126 O.3       1 <0>        -0.3189
     18 C14         5.1136    4.3408   -1.5285 C.3       1 <0>         0.0306
     19 O5          2.2761    5.2045    0.2273 O.3       1 <0>        -0.2751
     20 C15         2.0790    5.9059   -0.8998 C.2       1 <0>         0.4499
     21 O6          1.9684    5.3299   -1.9606 O.2       1 <0>        -0.4895
     22 C16         1.9951    7.4096   -0.8467 C.3       1 <0>        -0.1436
     23 Cl1        -2.7363    3.6407    0.8122 Cl        1 <0>        -0.0541
     24 H1          2.7311   -2.7845   -0.7591 H         1 <0>         0.0956
     25 H2          1.6311   -2.6507   -2.1521 H         1 <0>         0.1113
     26 H3          3.3894   -2.5091   -2.3898 H         1 <0>         0.1117
     27 H4          0.1308   -0.1798    0.0941 H         1 <0>         0.1427
     28 H5         -2.0111    0.9149    0.4770 H         1 <0>         0.1454
     29 H6         -0.1567    4.7468    0.5364 H         1 <0>         0.1434
     30 H7          5.0616    0.1016    1.2427 H         1 <0>         0.0540
     31 H8          6.5702    0.4913    0.3822 H         1 <0>         0.1011
     32 H9          5.7420    1.7436    1.3384 H         1 <0>         0.0557
     33 H10         5.3692    3.4381   -2.0834 H         1 <0>         0.0582
     34 H11         4.3101    4.8682   -2.0428 H         1 <0>         0.0506
     35 H12         5.9888    4.9872   -1.4632 H         1 <0>         0.1022
     36 H13         2.1162    7.7441    0.1837 H         1 <0>         0.0973
     37 H14         2.7844    7.8396   -1.4633 H         1 <0>         0.1117
     38 H15         1.0241    7.7329   -1.2219 H         1 <0>         0.1122
@<TRIPOS>BOND
     1    1    2 1
     2    1   24 1
     3    1   25 1
     4    1   26 1
     5    2    3 2
     6    2    4 1
     7    4    5 1
     8    5   14 ar
     9    5    6 ar
    10    6   11 ar
    11    6    7 ar
    12    7    8 ar
    13    7   27 1
    14    8    9 ar
    15    8   28 1
    16    9   10 ar
    17    9   23 1
    18   10   11 ar
    19   10   29 1
    20   11   12 ar
    21   12   13 ar
    22   12   19 1
    23   13   14 ar
    24   13   17 1
    25   14   15 1
    26   15   16 1
    27   16   30 1
    28   16   31 1
    29   16   32 1
    30   17   18 1
    31   18   33 1
    32   18   34 1
    33   18   35 1
    34   19   20 1
    35   20   21 2
    36   20   22 1
    37   22   36 1
    38   22   37 1
    39   22   38 1
@<TRIPOS>MOLECULE
ZINC00012342
   44    45     0     0     0
SMALL
USER_CHARGES

@<TRIPOS>ATOM
      1 C1         -0.0187    1.5258    0.0104 C.3       1 <0>        -0.1561
      2 C2          0.0021   -0.0041    0.0020 C.3       1 <0>        -0.0796
      3 H1          0.5293   -0.3651    0.8851 H         1 <0>         0.0729
      4 C3          0.7182   -0.4975   -1.2568 C.3       1 <0>        -0.0804
      5 C4          2.1652   -0.0794   -1.2080 C.ar      1 <0>        -0.0687
      6 C5          2.5498    1.1377   -1.7391 C.ar      1 <0>        -0.1081
      7 C6          3.8760    1.5258   -1.6968 C.ar      1 <0>        -0.1282
      8 C7          4.8231    0.6944   -1.1208 C.ar      1 <0>         0.0741
      9 C8          4.4359   -0.5305   -0.5858 C.ar      1 <0>         0.0830
     10 C9          3.1042   -0.9112   -0.6272 C.ar      1 <0>        -0.1289
     11 O1          5.3617   -1.3499   -0.0194 O.3       1 <0>        -0.4885
     12 O2          6.1281    1.0745   -1.0788 O.3       1 <0>        -0.4888
     13 C10        -1.4333   -0.5336    0.0129 C.3       1 <0>        -0.0796
     14 H2         -1.9605   -0.1726   -0.8702 H         1 <0>         0.0741
     15 C11        -1.4126   -2.0635    0.0045 C.3       1 <0>        -0.1556
     16 C12        -2.1494   -0.0402    1.2717 C.3       1 <0>        -0.0803
     17 C13        -3.5965   -0.4583    1.2229 C.ar      1 <0>        -0.0689
     18 C14        -4.5346    0.3711    0.6369 C.ar      1 <0>        -0.1099
     19 C15        -5.8633   -0.0079    0.5896 C.ar      1 <0>        -0.1274
     20 C16        -6.2571   -1.2216    1.1299 C.ar      1 <0>         0.0740
     21 C17        -5.3128   -2.0566    1.7193 C.ar      1 <0>         0.0821
     22 C18        -3.9819   -1.6728    1.7591 C.ar      1 <0>        -0.1267
     23 O3         -5.6945   -3.2487    2.2510 O.3       1 <0>        -0.4883
     24 O4         -7.5638   -1.5957    1.0847 O.3       1 <0>        -0.4888
     25 H3          1.0039    1.9031    0.0027 H         1 <0>         0.0591
     26 H4         -0.5459    1.8868   -0.8726 H         1 <0>         0.0559
     27 H5         -0.5289    1.8773    0.9072 H         1 <0>         0.0587
     28 H6          0.6556   -1.5845   -1.3079 H         1 <0>         0.0790
     29 H7          0.2444   -0.0644   -2.1377 H         1 <0>         0.0758
     30 H8          1.8126    1.7866   -2.1884 H         1 <0>         0.1297
     31 H9          4.1739    2.4768   -2.1131 H         1 <0>         0.1330
     32 H10         2.8006   -1.8597   -0.2093 H         1 <0>         0.1318
     33 H11         5.4917   -1.2014    0.9273 H         1 <0>         0.3874
     34 H12         6.3681    1.5701   -0.2838 H         1 <0>         0.3869
     35 H13        -0.9024   -2.4150   -0.8923 H         1 <0>         0.0589
     36 H14        -0.8854   -2.4246    0.8875 H         1 <0>         0.0553
     37 H15        -2.4352   -2.4408    0.0122 H         1 <0>         0.0575
     38 H16        -1.6756   -0.4733    2.1526 H         1 <0>         0.0744
     39 H17        -2.0868    1.0468    1.3228 H         1 <0>         0.0805
     40 H18        -4.2289    1.3173    0.2154 H         1 <0>         0.1294
     41 H19        -6.5943    0.6421    0.1319 H         1 <0>         0.1330
     42 H20        -3.2464   -2.3207    2.2126 H         1 <0>         0.1323
     43 H21        -5.6653   -3.9856    1.6255 H         1 <0>         0.3872
     44 H22        -7.8025   -2.0960    0.2923 H         1 <0>         0.3869
@<TRIPOS>BOND
     1    1    2 1
     2    1   25 1
     3    1   26 1
     4    1   27 1
     5    2    3 1
     6    2    4 1
     7    2   13 1
     8    4    5 1
     9    4   28 1
    10    4   29 1
    11    5   10 ar
    12    5    6 ar
    13    6    7 ar
    14    6   30 1
    15    7    8 ar
    16    7   31 1
    17    8    9 ar
    18    8   12 1
    19    9   10 ar
    20    9   11 1
    21   10   32 1
    22   11   33 1
    23   12   34 1
    24   13   14 1
    25   13   15 1
    26   13   16 1
    27   15   35 1
    28   15   36 1
    29   15   37 1
    30   16   17 1
    31   16   38 1
    32   16   39 1
    33   17   22 ar
    34   17   18 ar
    35   18   19 ar
    36   18   40 1
    37   19   20 ar
    38   19   41 1
    39   20   21 ar
    40   20   24 1
    41   21   22 ar
    42   21   23 1
    43   22   42 1
    44   23   43 1
    45   24   44 1
@<TRIPOS>MOLECULE
ZINC00056472
   44    45     0     0     0
SMALL
USER_CHARGES

@<TRIPOS>ATOM
      1 C1         -0.0187    1.5258    0.0104 C.3       1 <0>        -0.1531
      2 C2          0.0021   -0.0041    0.0020 C.3       1 <0>        -0.0796
      3 H1          0.5293   -0.3651    0.8851 H         1 <0>         0.0740
      4 C3         -1.4333   -0.5336    0.0129 C.3       1 <0>        -0.0824
      5 C4         -2.1001   -0.1511    1.3091 C.ar      1 <0>        -0.0689
      6 C5         -2.0198   -0.9949    2.4013 C.ar      1 <0>        -0.1099
      7 C6         -2.6297   -0.6485    3.5925 C.ar      1 <0>        -0.1273
      8 C7         -3.3231    0.5469    3.6939 C.ar      1 <0>         0.0740
      9 C8         -3.4036    1.3964    2.5947 C.ar      1 <0>         0.0820
     10 C9         -2.7858    1.0454    1.4050 C.ar      1 <0>        -0.1267
     11 O1         -4.0829    2.5707    2.6892 O.3       1 <0>        -0.4883
     12 O2         -3.9241    0.8890    4.8649 O.3       1 <0>        -0.4888
     13 C10         0.7182   -0.4975   -1.2568 C.3       1 <0>        -0.0796
     14 H2          0.1910   -0.1364   -2.1398 H         1 <0>         0.0740
     15 C11         2.1536    0.0321   -1.2676 C.3       1 <0>        -0.1531
     16 C12         0.7390   -2.0273   -1.2652 C.3       1 <0>        -0.0824
     17 C13         1.3339   -2.5145   -2.5613 C.ar      1 <0>        -0.0689
     18 C14         0.5162   -2.7441   -3.6522 C.ar      1 <0>        -0.1099
     19 C15         1.0571   -3.1910   -4.8433 C.ar      1 <0>        -0.1273
     20 C16         2.4216   -3.4095   -4.9459 C.ar      1 <0>         0.0740
     21 C17         3.2446   -3.1780   -3.8479 C.ar      1 <0>         0.0820
     22 C18         2.6966   -2.7254   -2.6584 C.ar      1 <0>        -0.1267
     23 O3          4.5844   -3.3909   -3.9436 O.3       1 <0>        -0.4884
     24 O4          2.9552   -3.8496   -6.1168 O.3       1 <0>        -0.4888
     25 H3          1.0039    1.9031    0.0027 H         1 <0>         0.0586
     26 H4         -0.5459    1.8868   -0.8726 H         1 <0>         0.0549
     27 H5         -0.5289    1.8773    0.9072 H         1 <0>         0.0570
     28 H6         -1.9862   -0.1019   -0.8214 H         1 <0>         0.0754
     29 H7         -1.4207   -1.6194   -0.0826 H         1 <0>         0.0803
     30 H8         -1.4796   -1.9269    2.3236 H         1 <0>         0.1296
     31 H9         -2.5661   -1.3097    4.4441 H         1 <0>         0.1331
     32 H10        -2.8436    1.7047    0.5515 H         1 <0>         0.1323
     33 H11        -3.5398    3.3172    2.9769 H         1 <0>         0.3871
     34 H12        -3.3584    1.3947    5.4643 H         1 <0>         0.3869
     35 H13         2.1388    1.1220   -1.2617 H         1 <0>         0.0587
     36 H14         2.6808   -0.3290   -0.3846 H         1 <0>         0.0549
     37 H15         2.6638   -0.3194   -2.1644 H         1 <0>         0.0570
     38 H16         1.3413   -2.3871   -0.4310 H         1 <0>         0.0754
     39 H17        -0.2789   -2.4050   -1.1679 H         1 <0>         0.0803
     40 H18        -0.5474   -2.5742   -3.5736 H         1 <0>         0.1296
     41 H19         0.4161   -3.3703   -5.6939 H         1 <0>         0.1331
     42 H20         3.3337   -2.5414   -1.8059 H         1 <0>         0.1323
     43 H21         5.0860   -2.6165   -4.2331 H         1 <0>         0.3871
     44 H22         3.2237   -3.1410   -6.7176 H         1 <0>         0.3869
@<TRIPOS>BOND
     1    1    2 1
     2    1   25 1
     3    1   26 1
     4    1   27 1
     5    2    3 1
     6    2    4 1
     7    2   13 1
     8    4    5 1
     9    4   28 1
    10    4   29 1
    11    5   10 ar
    12    5    6 ar
    13    6    7 ar
    14    6   30 1
    15    7    8 ar
    16    7   31 1
    17    8    9 ar
    18    8   12 1
    19    9   10 ar
    20    9   11 1
    21   10   32 1
    22   11   33 1
    23   12   34 1
    24   13   14 1
    25   13   15 1
    26   13   16 1
    27   15   35 1
    28   15   36 1
    29   15   37 1
    30   16   17 1
    31   16   38 1
    32   16   39 1
    33   17   22 ar
    34   17   18 ar
    35   18   19 ar
    36   18   40 1
    37   19   20 ar
    38   19   41 1
    39   20   21 ar
    40   20   24 1
    41   21   22 ar
    42   21   23 1
    43   22   42 1
    44   23   43 1
    45   24   44 1
@<TRIPOS>MOLECULE
ZINC00056474
   44    45     0     0     0
SMALL
USER_CHARGES

@<TRIPOS>ATOM
      1 C1         -0.0187    1.5258    0.0104 C.3       1 <0>        -0.1537
      2 C2          0.0021   -0.0041    0.0020 C.3       1 <0>        -0.0795
      3 H1          0.5293   -0.3651    0.8851 H         1 <0>         0.0731
      4 C3          0.7182   -0.4975   -1.2568 C.3       1 <0>        -0.0826
      5 C4          2.1652   -0.0794   -1.2080 C.ar      1 <0>        -0.0685
      6 C5          2.5498    1.1377   -1.7391 C.ar      1 <0>        -0.1081
      7 C6          3.8760    1.5258   -1.6968 C.ar      1 <0>        -0.1282
      8 C7          4.8231    0.6944   -1.1208 C.ar      1 <0>         0.0741
      9 C8          4.4359   -0.5305   -0.5858 C.ar      1 <0>         0.0831
     10 C9          3.1042   -0.9112   -0.6272 C.ar      1 <0>        -0.1290
     11 O1          5.3617   -1.3499   -0.0194 O.3       1 <0>        -0.4884
     12 O2          6.1281    1.0745   -1.0788 O.3       1 <0>        -0.4888
     13 C10        -1.4333   -0.5336    0.0129 C.3       1 <0>        -0.0794
     14 H2         -1.9605   -0.1726   -0.8702 H         1 <0>         0.0731
     15 C11        -2.1494   -0.0402    1.2717 C.3       1 <0>        -0.1537
     16 C12        -1.4126   -2.0635    0.0045 C.3       1 <0>        -0.0827
     17 C13        -2.8221   -2.5844   -0.1087 C.ar      1 <0>        -0.0685
     18 C14        -3.5623   -2.8252    1.0339 C.ar      1 <0>        -0.1081
     19 C15        -4.8557   -3.3030    0.9354 C.ar      1 <0>        -0.1282
     20 C16        -5.4133   -3.5412   -0.3106 C.ar      1 <0>         0.0741
     21 C17        -4.6685   -3.2984   -1.4606 C.ar      1 <0>         0.0831
     22 C18        -3.3742   -2.8149   -1.3550 C.ar      1 <0>        -0.1289
     23 O3         -5.2113   -3.5306   -2.6858 O.3       1 <0>        -0.4884
     24 O4         -6.6854   -4.0117   -0.4092 O.3       1 <0>        -0.4888
     25 H3          1.0039    1.9031    0.0027 H         1 <0>         0.0588
     26 H4         -0.5459    1.8868   -0.8726 H         1 <0>         0.0549
     27 H5         -0.5289    1.8773    0.9072 H         1 <0>         0.0586
     28 H6          0.6556   -1.5845   -1.3079 H         1 <0>         0.0790
     29 H7          0.2444   -0.0644   -2.1377 H         1 <0>         0.0763
     30 H8          1.8126    1.7866   -2.1884 H         1 <0>         0.1296
     31 H9          4.1739    2.4768   -2.1131 H         1 <0>         0.1329
     32 H10         2.8006   -1.8597   -0.2093 H         1 <0>         0.1321
     33 H11         5.4917   -1.2014    0.9273 H         1 <0>         0.3874
     34 H12         6.3681    1.5701   -0.2838 H         1 <0>         0.3869
     35 H13        -3.1720   -0.4175    1.2794 H         1 <0>         0.0588
     36 H14        -1.6223   -0.4013    2.1547 H         1 <0>         0.0549
     37 H15        -2.1642    1.0497    1.2777 H         1 <0>         0.0586
     38 H16        -0.8263   -2.4142   -0.8449 H         1 <0>         0.0790
     39 H17        -0.9645   -2.4259    0.9297 H         1 <0>         0.0763
     40 H18        -3.1289   -2.6399    2.0056 H         1 <0>         0.1296
     41 H19        -5.4316   -3.4910    1.8295 H         1 <0>         0.1329
     42 H20        -2.7953   -2.6221   -2.2461 H         1 <0>         0.1322
     43 H21        -5.6728   -2.7688   -3.0623 H         1 <0>         0.3874
     44 H22        -7.3582   -3.3189   -0.4598 H         1 <0>         0.3869
@<TRIPOS>BOND
     1    1    2 1
     2    1   25 1
     3    1   26 1
     4    1   27 1
     5    2    3 1
     6    2    4 1
     7    2   13 1
     8    4    5 1
     9    4   28 1
    10    4   29 1
    11    5   10 ar
    12    5    6 ar
    13    6    7 ar
    14    6   30 1
    15    7    8 ar
    16    7   31 1
    17    8    9 ar
    18    8   12 1
    19    9   10 ar
    20    9   11 1
    21   10   32 1
    22   11   33 1
    23   12   34 1
    24   13   14 1
    25   13   15 1
    26   13   16 1
    27   15   35 1
    28   15   36 1
    29   15   37 1
    30   16   17 1
    31   16   38 1
    32   16   39 1
    33   17   22 ar
    34   17   18 ar
    35   18   19 ar
    36   18   40 1
    37   19   20 ar
    38   19   41 1
    39   20   21 ar
    40   20   24 1
    41   21   22 ar
    42   21   23 1
    43   22   42 1
    44   23   43 1
    45   24   44 1
