@<TRIPOS>MOLECULE
ZINC02576349
   43    46     0     0     0
SMALL
USER_CHARGES
7-(1-naphthyl)-9-tert-butyl-2,4,8,9-tetrazabicyclo[4.3.0]nona-1,3,5,7-tetraen-5-amine
@<TRIPOS>ATOM
      1 C1         -2.2648    1.4156   -1.1798 C.3       1 <0>        -0.1444
      2 C2         -1.0921    2.2875   -0.7266 C.3       1 <0>         0.1895
      3 C3         -1.4339    2.9467    0.6111 C.3       1 <0>        -0.1619
      4 C4         -0.8260    3.3695   -1.7751 C.3       1 <0>        -0.1623
      5 N1          0.1032    1.4552   -0.5696 N.pl3     1 <0>        -0.3674
      6 C5          1.3308    1.9052   -0.1828 C.ar      1 <0>         0.3804
      7 C6          2.1889    0.7898   -0.1661 C.ar      1 <0>        -0.3265
      8 C7          1.3808   -0.3606   -0.5722 C.2       1 <0>         0.1648
      9 N2          0.1635    0.0765   -0.7990 N.2       1 <0>        -0.2277
     10 C8          1.8488   -1.7584   -0.7026 C.ar      1 <0>        -0.0125
     11 C9          2.9319   -2.0612   -1.5103 C.ar      1 <0>        -0.0976
     12 C10         3.3811   -3.3708   -1.6324 C.ar      1 <0>        -0.1175
     13 C11         2.7643   -4.3918   -0.9743 C.ar      1 <0>        -0.0881
     14 C12         1.6574   -4.1307   -0.1487 C.ar      1 <0>        -0.0497
     15 C13         1.1904   -2.8012   -0.0075 C.ar      1 <0>        -0.0279
     16 C14         0.0864   -2.5419    0.8173 C.ar      1 <0>        -0.1006
     17 C15        -0.5230   -3.5696    1.4714 C.ar      1 <0>        -0.1104
     18 C16        -0.0653   -4.8782    1.3334 C.ar      1 <0>        -0.1109
     19 C17         1.0037   -5.1664    0.5416 C.ar      1 <0>        -0.1058
     20 C18         3.5302    0.9803    0.2031 C.ar      1 <0>         0.5194
     21 N3          3.9291    2.2083    0.5206 N.ar      1 <0>        -0.6077
     22 C19         3.0891    3.2274    0.4913 C.ar      1 <0>         0.3852
     23 N4          1.8252    3.0965    0.1525 N.ar      1 <0>        -0.5722
     24 N5          4.4132   -0.0817    0.2360 N.pl3     1 <0>        -0.8244
     25 H1         -2.4544    0.6447   -0.4329 H         1 <0>         0.0672
     26 H2         -3.1541    2.0348   -1.2967 H         1 <0>         0.0758
     27 H3         -2.0213    0.9459   -2.1329 H         1 <0>         0.0677
     28 H4         -0.5984    3.5679    0.9340 H         1 <0>         0.0772
     29 H5         -2.3232    3.5660    0.4943 H         1 <0>         0.0800
     30 H6         -1.6235    2.1759    1.3581 H         1 <0>         0.0594
     31 H7         -0.5825    2.8999   -2.7281 H         1 <0>         0.0596
     32 H8         -1.7154    3.9888   -1.8919 H         1 <0>         0.0799
     33 H9          0.0094    3.9907   -1.4522 H         1 <0>         0.0773
     34 H10         3.4359   -1.2709   -2.0469 H         1 <0>         0.1296
     35 H11         4.2309   -3.5835   -2.2641 H         1 <0>         0.1329
     36 H12         3.1262   -5.4030   -1.0874 H         1 <0>         0.1333
     37 H13        -0.2792   -1.5323    0.9330 H         1 <0>         0.1262
     38 H14        -1.3729   -3.3671    2.1063 H         1 <0>         0.1247
     39 H15        -0.5658   -5.6756    1.8626 H         1 <0>         0.1263
     40 H16         1.3482   -6.1854    0.4444 H         1 <0>         0.1313
     41 H17         3.4552    4.2081    0.7568 H         1 <0>         0.2041
     42 H18         4.0875   -0.9872    0.1138 H         1 <0>         0.4127
     43 H19         5.3589    0.0781    0.3813 H         1 <0>         0.4111
@<TRIPOS>BOND
     1    1    2 1
     2    1   25 1
     3    1   26 1
     4    1   27 1
     5    2    3 1
     6    2    4 1
     7    2    5 1
     8    3   28 1
     9    3   29 1
    10    3   30 1
    11    4   31 1
    12    4   32 1
    13    4   33 1
    14    5    9 1
    15    5    6 1
    16    6   23 ar
    17    6    7 ar
    18    7    8 1
    19    7   20 ar
    20    8    9 2
    21    8   10 1
    22   10   15 ar
    23   10   11 ar
    24   11   12 ar
    25   11   34 1
    26   12   13 ar
    27   12   35 1
    28   13   14 ar
    29   13   36 1
    30   14   19 ar
    31   14   15 ar
    32   15   16 ar
    33   16   17 ar
    34   16   37 1
    35   17   18 ar
    36   17   38 1
    37   18   19 ar
    38   18   39 1
    39   19   40 1
    40   20   21 ar
    41   20   24 1
    42   21   22 ar
    43   22   23 ar
    44   22   41 1
    45   24   42 1
    46   24   43 1
@<TRIPOS>MOLECULE
ZINC13132888
   46    49     0     0     0
SMALL
USER_CHARGES

@<TRIPOS>ATOM
      1 C1         -0.4024    1.4640   -0.2596 C.3       1 <0>        -0.1435
      2 C2         -0.2022   -0.0486   -0.1459 C.3       1 <0>         0.1912
      3 C3          0.5317   -0.3694    1.1577 C.3       1 <0>        -0.1615
      4 C4         -1.5645   -0.7450   -0.1490 C.3       1 <0>        -0.1622
      5 N1          0.5913   -0.5229   -1.2824 N.pl3     1 <0>        -0.3634
      6 C5          0.9612   -1.8141   -1.5150 C.ar      1 <0>         0.3746
      7 C6          1.7077   -1.8088   -2.7096 C.ar      1 <0>        -0.3278
      8 C7          1.7573   -0.4719   -3.1602 C.2       1 <0>         0.1297
      9 N2          1.0952    0.2715   -2.3201 N.2       1 <0>        -0.2391
     10 C8          2.4532    0.0125   -4.4060 C.3       1 <0>        -0.0064
     11 C9          1.4787    0.0187   -5.5556 C.ar      1 <0>        -0.0714
     12 C10         1.4067   -1.0488   -6.3972 C.ar      1 <0>        -0.1084
     13 C11         0.5121   -1.0612   -7.4653 C.ar      1 <0>        -0.1155
     14 C12        -0.3156   -0.0059   -7.6985 C.ar      1 <0>        -0.1014
     15 C13        -0.2700    1.1138   -6.8511 C.ar      1 <0>        -0.0506
     16 C14         0.6357    1.1238   -5.7608 C.ar      1 <0>        -0.0393
     17 C15         0.6771    2.2415   -4.9097 C.ar      1 <0>        -0.0979
     18 C16        -0.1547    3.2939   -5.1394 C.ar      1 <0>        -0.1148
     19 C17        -1.0498    3.2813   -6.2077 C.ar      1 <0>        -0.1134
     20 C18        -1.1085    2.2222   -7.0604 C.ar      1 <0>        -0.1091
     21 C19         2.2169   -3.0332   -3.1834 C.ar      1 <0>         0.5199
     22 N3          1.9692   -4.1339   -2.4817 N.ar      1 <0>        -0.6092
     23 C20         1.2632   -4.0896   -1.3658 C.ar      1 <0>         0.3850
     24 N4          0.7670   -2.9710   -0.8841 N.ar      1 <0>        -0.5722
     25 N5          2.9554   -3.0885   -4.3491 N.pl3     1 <0>        -0.8266
     26 H1          0.5681    1.9601   -0.2574 H         1 <0>         0.0677
     27 H2         -0.9252    1.6925   -1.1883 H         1 <0>         0.0677
     28 H3         -0.9928    1.8169    0.5860 H         1 <0>         0.0748
     29 H4         -0.0587   -0.0165    2.0033 H         1 <0>         0.0794
     30 H5          0.6743   -1.4470    1.2387 H         1 <0>         0.0761
     31 H6          1.5022    0.1268    1.1599 H         1 <0>         0.0599
     32 H7         -2.0873   -0.5165   -1.0777 H         1 <0>         0.0592
     33 H8         -1.4218   -1.8226   -0.0681 H         1 <0>         0.0763
     34 H9         -2.1548   -0.3922    0.6966 H         1 <0>         0.0794
     35 H10         2.8290    1.0226   -4.2429 H         1 <0>         0.1038
     36 H11         3.2855   -0.6517   -4.6388 H         1 <0>         0.0893
     37 H12         2.0530   -1.8987   -6.2348 H         1 <0>         0.1192
     38 H13         0.4751   -1.9207   -8.1182 H         1 <0>         0.1252
     39 H14        -1.0035   -0.0292   -8.5308 H         1 <0>         0.1280
     40 H15         1.3650    2.2650   -4.0775 H         1 <0>         0.1310
     41 H16        -0.1208    4.1515   -4.4839 H         1 <0>         0.1230
     42 H17        -1.6992    4.1294   -6.3675 H         1 <0>         0.1230
     43 H18        -1.8067    2.2268   -7.8844 H         1 <0>         0.1269
     44 H19         1.0860   -5.0091   -0.8278 H         1 <0>         0.2029
     45 H20         3.2072   -2.2692   -4.8032 H         1 <0>         0.4085
     46 H21         3.2222   -3.9468   -4.7139 H         1 <0>         0.4119
@<TRIPOS>BOND
     1    1    2 1
     2    1   26 1
     3    1   27 1
     4    1   28 1
     5    2    3 1
     6    2    4 1
     7    2    5 1
     8    3   29 1
     9    3   30 1
    10    3   31 1
    11    4   32 1
    12    4   33 1
    13    4   34 1
    14    5    9 1
    15    5    6 1
    16    6   24 ar
    17    6    7 ar
    18    7    8 1
    19    7   21 ar
    20    8    9 2
    21    8   10 1
    22   10   11 1
    23   10   35 1
    24   10   36 1
    25   11   16 ar
    26   11   12 ar
    27   12   13 ar
    28   12   37 1
    29   13   14 ar
    30   13   38 1
    31   14   15 ar
    32   14   39 1
    33   15   20 ar
    34   15   16 ar
    35   16   17 ar
    36   17   18 ar
    37   17   40 1
    38   18   19 ar
    39   18   41 1
    40   19   20 ar
    41   19   42 1
    42   20   43 1
    43   21   22 ar
    44   21   25 1
    45   22   23 ar
    46   23   24 ar
    47   23   44 1
    48   25   45 1
    49   25   46 1
