@<TRIPOS>MOLECULE
ZINC01492232
   21    21     0     0     0
SMALL
USER_CHARGES
2-(hydroxymethyl)pyrrolidine-3,4-diol
@<TRIPOS>ATOM
      1 C1         -0.5542    3.3830   -2.7634 C.3       1 <0>        -0.0436
      2 C2          0.3498    2.2534   -3.3178 C.3       1 <0>         0.0535
      3 H1          1.4012    2.4765   -3.1361 H         1 <0>         0.1035
      4 C3         -0.1003    1.0191   -2.5031 C.3       1 <0>         0.0995
      5 H2          0.7606    0.4037   -2.2419 H         1 <0>         0.1078
      6 C4         -0.7527    1.5927   -1.2315 C.3       1 <0>         0.0322
      7 H3         -1.8013    1.2989   -1.1838 H         1 <0>         0.1621
      8 C5         -0.0127    1.0858    0.0080 C.3       1 <0>         0.0584
      9 O1         -0.6816    1.5467    1.1837 O.3       1 <0>        -0.5763
     10 O2         -1.0510    0.2539   -3.2464 O.3       1 <0>        -0.5386
     11 O3          0.1110    2.0533   -4.7125 O.3       1 <0>        -0.5335
     12 H4         -1.5399    3.3496   -3.2274 H         1 <0>         0.1460
     13 H5         -0.0893    4.3572   -2.9150 H         1 <0>         0.1467
     14 H6          0.0021   -0.0041    0.0020 H         1 <0>         0.1000
     15 H7          1.0099    1.4631    0.0003 H         1 <0>         0.0760
     16 H8         -0.2663    1.2624    2.0094 H         1 <0>         0.4122
     17 H9         -0.6961   -0.1324   -4.0587 H         1 <0>         0.4114
     18 H10         0.3040    2.8269   -5.2596 H         1 <0>         0.4040
     19 N1         -0.6456    3.0489   -1.3347 N.4       1 <0>        -0.5021
     20 H11        -1.4755    3.4919   -0.9231 H         1 <0>         0.4465
     21 H12         0.1952    3.3747   -0.8436 H         1 <0>         0.4345
@<TRIPOS>BOND
     1    1    2 1
     2    1   12 1
     3    1   13 1
     4    1   19 1
     5    2    3 1
     6    2    4 1
     7    2   11 1
     8    4    5 1
     9    4    6 1
    10    4   10 1
    11    6    7 1
    12    6    8 1
    13    6   19 1
    14    8    9 1
    15    8   14 1
    16    8   15 1
    17    9   16 1
    18   10   17 1
    19   11   18 1
    20   19   20 1
    21   19   21 1
