@<TRIPOS>MOLECULE
ZINC19798521
   56    59     0     0     0
SMALL
USER_CHARGES

@<TRIPOS>ATOM
      1 C1         -2.3494    0.8230    2.7952 C.ar      1 <0>        -0.1500
      2 C2         -3.4970    1.3826    3.3217 C.ar      1 <0>        -0.0302
      3 C3         -4.7248    0.7880    3.0951 C.ar      1 <0>        -0.0722
      4 C4         -4.8078   -0.3685    2.3415 C.ar      1 <0>        -0.0341
      5 C5         -3.6640   -0.9335    1.8126 C.ar      1 <0>        -0.1294
      6 C6         -2.4293   -0.3383    2.0375 C.ar      1 <0>         0.2166
      7 N1         -1.2693   -0.9072    1.5026 N.pl3     1 <0>        -0.6220
      8 C7         -1.1996   -2.2720    1.2996 C.ar      1 <0>         0.6502
      9 N2         -2.2848   -3.0238    1.4571 N.ar      1 <0>        -0.6613
     10 C8         -2.2177   -4.3369    1.2617 C.ar      1 <0>         0.6587
     11 N3         -1.0655   -4.8985    0.9088 N.ar      1 <0>        -0.6540
     12 C9          0.0195   -4.1468    0.7513 C.ar      1 <0>         0.6578
     13 N4         -0.0489   -2.8327    0.9414 N.ar      1 <0>        -0.6523
     14 N5          1.2168   -4.7303    0.3847 N.pl3     1 <0>        -0.6203
     15 C10         2.4087   -4.0052    0.4876 C.ar      1 <0>         0.1600
     16 C11         2.3901   -2.6195    0.3966 C.ar      1 <0>        -0.1257
     17 C12         3.5683   -1.9062    0.4986 C.ar      1 <0>        -0.0915
     18 C13         4.7667   -2.5710    0.6912 C.ar      1 <0>        -0.0532
     19 C14         4.7881   -3.9517    0.7818 C.ar      1 <0>        -0.0886
     20 C15         3.6120   -4.6695    0.6867 C.ar      1 <0>        -0.1359
     21 Cl1         6.2458   -1.6712    0.8189 Cl        1 <0>        -0.0706
     22 N6         -3.3441   -5.1174    1.4257 N.pl3     1 <0>        -0.6794
     23 C16        -3.2702   -6.5646    1.2104 C.3       1 <0>         0.1373
     24 C17        -4.6459   -7.1876    1.4557 C.3       1 <0>         0.0417
     25 N7         -4.5718   -8.6388    1.2398 N.3       1 <0>        -0.5317
     26 C18        -4.3017   -8.9483   -0.1718 C.3       1 <0>         0.0118
     27 C19        -4.1734  -10.4645   -0.3407 C.3       1 <0>         0.0628
     28 O1         -5.3668  -11.0945    0.1330 O.3       1 <0>        -0.3844
     29 C20        -5.6599  -10.8150    1.5046 C.3       1 <0>         0.0628
     30 C21        -5.8032   -9.3023    1.6922 C.3       1 <0>         0.0183
     31 N8         -5.9527    1.3905    3.6609 N.pl3     1 <0>         0.0370
     32 O2         -5.8816    2.4013    4.3203 O.2       1 <0>        -0.1629
     33 O3         -7.0268    0.8717    3.4637 O.3       1 <0>        -0.1627
     34 H1         -1.3913    1.2903    2.9688 H         1 <0>         0.1506
     35 H2         -3.4355    2.2854    3.9112 H         1 <0>         0.1575
     36 H3         -5.7682   -0.8307    2.1667 H         1 <0>         0.1549
     37 H4         -3.7294   -1.8371    1.2247 H         1 <0>         0.1816
     38 H5         -0.5136   -0.3437    1.2741 H         1 <0>         0.4329
     39 H6          1.2310   -5.6427    0.0558 H         1 <0>         0.4295
     40 H7          1.4552   -2.1003    0.2460 H         1 <0>         0.1784
     41 H8          3.5545   -0.8286    0.4276 H         1 <0>         0.1356
     42 H9          5.7248   -4.4680    0.9314 H         1 <0>         0.1379
     43 H10         3.6287   -5.7467    0.7626 H         1 <0>         0.1355
     44 H11        -4.1847   -4.7077    1.6835 H         1 <0>         0.4183
     45 H12        -2.9587   -6.7639    0.1850 H         1 <0>         0.0732
     46 H13        -2.5467   -6.9981    1.9007 H         1 <0>         0.0830
     47 H14        -4.9575   -6.9883    2.4810 H         1 <0>         0.0859
     48 H15        -5.3695   -6.7541    0.7653 H         1 <0>         0.0454
     49 H16        -5.1224   -8.5815   -0.7883 H         1 <0>         0.0461
     50 H17        -3.3725   -8.4680   -0.4784 H         1 <0>         0.0904
     51 H18        -4.0300  -10.7025   -1.3947 H         1 <0>         0.1000
     52 H19        -3.3196  -10.8238    0.2337 H         1 <0>         0.0619
     53 H20        -6.5915  -11.3064    1.7852 H         1 <0>         0.1009
     54 H21        -4.8492  -11.1844    2.1327 H         1 <0>         0.0619
     55 H22        -5.9701   -9.0805    2.7463 H         1 <0>         0.0894
     56 H23        -6.6479   -8.9412    1.1055 H         1 <0>         0.0465
@<TRIPOS>BOND
     1    1    6 ar
     2    1    2 ar
     3    1   34 1
     4    2    3 ar
     5    2   35 1
     6    3    4 ar
     7    3   31 1
     8    4    5 ar
     9    4   36 1
    10    5    6 ar
    11    5   37 1
    12    6    7 1
    13    7    8 1
    14    7   38 1
    15    8   13 ar
    16    8    9 ar
    17    9   10 ar
    18   10   11 ar
    19   10   22 1
    20   11   12 ar
    21   12   13 ar
    22   12   14 1
    23   14   15 1
    24   14   39 1
    25   15   20 ar
    26   15   16 ar
    27   16   17 ar
    28   16   40 1
    29   17   18 ar
    30   17   41 1
    31   18   19 ar
    32   18   21 1
    33   19   20 ar
    34   19   42 1
    35   20   43 1
    36   22   23 1
    37   22   44 1
    38   23   24 1
    39   23   45 1
    40   23   46 1
    41   24   25 1
    42   24   47 1
    43   24   48 1
    44   25   30 1
    45   25   26 1
    46   26   27 1
    47   26   49 1
    48   26   50 1
    49   27   28 1
    50   27   51 1
    51   27   52 1
    52   28   29 1
    53   29   30 1
    54   29   53 1
    55   29   54 1
    56   30   55 1
    57   30   56 1
    58   31   32 2
    59   31   33 1
