@<TRIPOS>MOLECULE
ZINC05759588
   52    52     0     0     0
SMALL
USER_CHARGES
3-[[1-(4-guanidinobutylcarbamoyl)-3-methyl-butyl]carbamoyl]oxirane-2-carboxylic acid
@<TRIPOS>ATOM
      1 C1          3.5266    0.5645    2.2064 C.3       1 <0>        -0.1557
      2 C2          4.3294   -0.7378    2.2162 C.3       1 <0>        -0.1021
      3 C3          4.7762   -1.0508    3.6456 C.3       1 <0>        -0.1462
      4 C4          3.4555   -1.8798    1.6935 C.3       1 <0>        -0.1266
      5 C5          3.1521   -1.6524    0.2112 C.3       1 <0>         0.1292
      6 H1          2.7110   -0.6646    0.0779 H         1 <0>         0.1115
      7 C6          4.4298   -1.7432   -0.5827 C.2       1 <0>         0.5163
      8 O1          4.6954   -2.7588   -1.1901 O.2       1 <0>        -0.5160
      9 N1          5.2774   -0.6959   -0.6176 N.am      1 <0>        -0.7338
     10 C7          6.4655   -0.7432   -1.4735 C.3       1 <0>         0.1172
     11 C8          7.2511    0.5616   -1.3281 C.3       1 <0>        -0.1324
     12 C9          8.4918    0.5121   -2.2219 C.3       1 <0>        -0.1388
     13 C10         9.2775    1.8169   -2.0764 C.3       1 <0>         0.1007
     14 C11        10.7018    2.5743   -3.9372 C.cat     1 <0>         0.7394
     15 N2          9.8633    3.6376   -4.1750 N.pl3     1 <0>        -0.8061
     16 N3         11.7860    2.3578   -4.7544 N.pl3     1 <0>        -0.8144
     17 N4          2.2125   -2.6740   -0.2573 N.am      1 <0>        -0.7101
     18 H2          2.5407   -3.4544   -0.7307 H         1 <0>         0.4209
     19 C12         0.8913   -2.5270   -0.0352 C.2       1 <0>         0.5462
     20 O2          0.4716   -1.5099    0.4751 O.2       1 <0>        -0.5297
     21 C13        -0.0646   -3.6264   -0.4208 C.3       1 <0>        -0.0353
     22 H3         -0.1239   -4.4661    0.2717 H         1 <0>         0.1541
     23 C14        -0.2549   -3.9154   -1.9112 C.3       1 <0>        -0.0074
     24 H4          0.3100   -3.3120   -2.6217 H         1 <0>         0.1201
     25 O3         -1.2523   -3.2594   -1.1255 O.3       1 <0>        -0.3178
     26 C15        -0.5114   -5.3422   -2.3227 C.2       1 <0>         0.4766
     27 O4         -1.5701   -5.6468   -2.8191 O.co2     1 <0>        -0.6097
     28 H5          3.1469    0.7497    1.2016 H         1 <0>         0.0558
     29 H6          2.6906    0.4813    2.9010 H         1 <0>         0.0649
     30 H7          4.1701    1.3904    2.5096 H         1 <0>         0.0554
     31 H8          5.2057   -0.6293    1.5772 H         1 <0>         0.0704
     32 H9          5.3483   -1.9787    3.6527 H         1 <0>         0.0556
     33 H10         5.3989   -0.2374    4.0181 H         1 <0>         0.0553
     34 H11         3.8999   -1.1594    4.2847 H         1 <0>         0.0597
     35 H12         2.5217   -1.9090    2.2552 H         1 <0>         0.0884
     36 H13         3.9826   -2.8260    1.8156 H         1 <0>         0.0764
     37 H14         5.1007    0.0893   -0.0761 H         1 <0>         0.4036
     38 H15         7.0950   -1.5816   -1.1752 H         1 <0>         0.0732
     39 H16         6.1601   -0.8697   -2.5121 H         1 <0>         0.0707
     40 H17         6.6216    1.3999   -1.6264 H         1 <0>         0.0778
     41 H18         7.5564    0.6879   -0.2893 H         1 <0>         0.0807
     42 H19         9.1214   -0.3263   -1.9236 H         1 <0>         0.0866
     43 H20         8.1866    0.3856   -3.2606 H         1 <0>         0.0813
     44 H21         8.6481    2.6552   -2.3747 H         1 <0>         0.1010
     45 H22         9.5828    1.9433   -1.0377 H         1 <0>         0.1107
     46 H23         9.1615    3.8530   -3.5410 H         1 <0>         0.4367
     47 H24         9.9736    4.1724   -4.9767 H         1 <0>         0.4397
     48 H25        12.3776    1.6076   -4.5867 H         1 <0>         0.4380
     49 H26        11.9593    2.9551   -5.4987 H         1 <0>         0.4363
     50 N5         10.5169    1.7214   -2.9222 N.pl3     1 <0>        -0.6838
     51 H27        11.2214    1.0021   -2.7212 H         1 <0>         0.4548
     52 O5          0.4362   -6.2747   -2.1378 O.co2     1 <0>        -0.7395
@<TRIPOS>BOND
     1    1    2 1
     2    1   28 1
     3    1   29 1
     4    1   30 1
     5    2    3 1
     6    2    4 1
     7    2   31 1
     8    3   32 1
     9    3   33 1
    10    3   34 1
    11    4    5 1
    12    4   35 1
    13    4   36 1
    14    5    6 1
    15    5    7 1
    16    5   17 1
    17    7    8 2
    18    7    9 am
    19    9   10 1
    20    9   37 1
    21   10   11 1
    22   10   38 1
    23   10   39 1
    24   11   12 1
    25   11   40 1
    26   11   41 1
    27   12   13 1
    28   12   42 1
    29   12   43 1
    30   13   44 1
    31   13   45 1
    32   13   50 1
    33   14   15 1
    34   14   16 1
    35   14   50 2
    36   15   46 1
    37   15   47 1
    38   16   48 1
    39   16   49 1
    40   17   18 1
    41   17   19 am
    42   19   20 2
    43   19   21 1
    44   21   22 1
    45   21   25 1
    46   21   23 1
    47   23   24 1
    48   23   25 1
    49   23   26 1
    50   26   27 2
    51   26   52 1
    52   50   51 1
