@<TRIPOS>MOLECULE
ZINC01664886
   24    24     0     0     0
SMALL
USER_CHARGES
4-methylcyclohexanamine
@<TRIPOS>ATOM
      1 C1          0.0111    1.0724    2.5063 C.3       1 <0>        -0.1565
      2 C2         -0.7288    1.5792    1.2668 C.3       1 <0>        -0.0979
      3 C3         -0.0127    1.0858    0.0080 C.3       1 <0>        -0.1167
      4 C4         -0.7527    1.5927   -1.2315 C.3       1 <0>        -0.1414
      5 C5         -0.7734    3.1225   -1.2231 C.3       1 <0>         0.0374
      6 C6         -1.4896    3.6159    0.0357 C.3       1 <0>        -0.1414
      7 C7         -0.7496    3.1091    1.2752 C.3       1 <0>        -0.1167
      8 N1         -1.4839    3.6091   -2.4132 N.4       1 <0>        -0.6882
      9 H1          0.0260   -0.0275    2.5002 H         1 <0>         0.0624
     10 H2         -0.5038    1.4271    3.4113 H         1 <0>         0.0624
     11 H3          1.0431    1.4532    2.4985 H         1 <0>         0.0594
     12 H4         -1.7607    1.1983    1.2746 H         1 <0>         0.0763
     13 H5          1.0193    1.4665    0.0002 H         1 <0>         0.0748
     14 H6          0.0022   -0.0141    0.0019 H         1 <0>         0.0846
     15 H7         -0.2379    1.2379   -2.1365 H         1 <0>         0.0863
     16 H8         -1.7847    1.2120   -1.2237 H         1 <0>         0.0862
     17 H9          0.2502    3.5228   -1.2670 H         1 <0>         0.1328
     18 H10        -1.5046    4.7158    0.0417 H         1 <0>         0.0863
     19 H11        -2.5216    3.2351    0.0435 H         1 <0>         0.0862
     20 H12        -1.2645    3.4638    2.1802 H         1 <0>         0.0846
     21 H13         0.2824    3.4899    1.2674 H         1 <0>         0.0748
     22 H14        -1.4988    4.7090   -2.4072 H         1 <0>         0.4564
     23 H15        -2.5159    3.2284   -2.4053 H         1 <0>         0.4516
     24 H16        -0.9690    3.2543   -3.3182 H         1 <0>         0.4564
@<TRIPOS>BOND
     1    1    2 1
     2    1    9 1
     3    1   10 1
     4    1   11 1
     5    2    7 1
     6    2    3 1
     7    2   12 1
     8    3    4 1
     9    3   13 1
    10    3   14 1
    11    4    5 1
    12    4   15 1
    13    4   16 1
    14    5    6 1
    15    5    8 1
    16    5   17 1
    17    6    7 1
    18    6   18 1
    19    6   19 1
    20    7   20 1
    21    7   21 1
    22    8   22 1
    23    8   23 1
    24    8   24 1
