@<TRIPOS>MOLECULE
ZINC03875041
   28    29     0     0     0
SMALL
USER_CHARGES

@<TRIPOS>ATOM
      1 C1         -0.0188    1.5321    0.0105 C.3       1 <0>        -0.1450
      2 C2          1.4030    2.0927   -0.0001 C.3       1 <0>        -0.1775
      3 C3          2.2119    1.4924   -1.1609 C.3       1 <0>         0.1055
      4 H1          1.7723    1.7919   -2.1124 H         1 <0>         0.0895
      5 C4          2.1574   -0.0227   -1.0201 C.3       1 <0>         0.0429
      6 H2          2.5491   -0.3363   -0.0524 H         1 <0>         0.1609
      7 C5          2.8582   -0.7742   -2.1651 C.3       1 <0>         0.1044
      8 H3          3.9230   -0.8880   -1.9619 H         1 <0>         0.1209
      9 C6          2.1374   -2.1504   -2.1360 C.3       1 <0>         0.0557
     10 H4          2.7220   -2.8724   -1.5659 H         1 <0>         0.1104
     11 C7          0.7846   -1.8786   -1.4336 C.3       1 <0>        -0.0388
     12 N1          0.7372   -0.4335   -1.1785 N.4       1 <0>        -0.3840
     13 C8          0.0021   -0.0041    0.0020 C.3       1 <0>        -0.0060
     14 O1          1.9220   -2.6264   -3.4661 O.3       1 <0>        -0.5417
     15 O2          2.6473   -0.1129   -3.4141 O.3       1 <0>        -0.5454
     16 O3          3.5673    1.9395   -1.0904 O.3       1 <0>        -0.5451
     17 H5         -0.5347    1.8791    0.9057 H         1 <0>         0.1192
     18 H6         -0.5517    1.8886   -0.8710 H         1 <0>         0.0908
     19 H7          1.3613    3.1760   -0.1134 H         1 <0>         0.0999
     20 H8          1.8924    1.8491    0.9429 H         1 <0>         0.0915
     21 H9         -0.0409   -2.1785   -2.0791 H         1 <0>         0.1421
     22 H10         0.7376   -2.4177   -0.4874 H         1 <0>         0.1373
     23 H11         0.4990   -0.3713    0.9000 H         1 <0>         0.1318
     24 H12        -1.0177   -0.3867   -0.0389 H         1 <0>         0.1356
     25 H13         1.4749   -3.4828   -3.5097 H         1 <0>         0.4012
     26 H14         3.0699   -0.5492   -4.1665 H         1 <0>         0.4114
     27 H15         3.6680    2.8998   -1.1437 H         1 <0>         0.4039
     28 H16         0.3480    0.0267   -1.9877 H         1 <0>         0.4285
@<TRIPOS>BOND
     1    1   13 1
     2    1    2 1
     3    1   17 1
     4    1   18 1
     5    2    3 1
     6    2   19 1
     7    2   20 1
     8    3    4 1
     9    3    5 1
    10    3   16 1
    11    5    6 1
    12    5   12 1
    13    5    7 1
    14    7    8 1
    15    7    9 1
    16    7   15 1
    17    9   10 1
    18    9   11 1
    19    9   14 1
    20   11   12 1
    21   11   21 1
    22   11   22 1
    23   12   13 1
    24   12   28 1
    25   13   23 1
    26   13   24 1
    27   14   25 1
    28   15   26 1
    29   16   27 1
