@<TRIPOS>MOLECULE
ZINC03871092
   38    38     0     0     0
SMALL
USER_CHARGES

@<TRIPOS>ATOM
      1 C1         -3.0841    0.6293    1.7834 C.3       1 <0>        -0.1757
      2 C2         -1.8088    0.7053    0.9414 C.3       1 <0>         0.1415
      3 N1         -1.5929   -0.5763    0.2653 N.pl3     1 <0>        -0.6508
      4 C3         -2.2297   -0.8416   -0.9354 C.ar      1 <0>         0.4451
      5 C4         -1.5755   -0.5822   -2.1456 C.ar      1 <0>         0.0472
      6 N2         -2.1757   -0.8328   -3.2890 N.ar      1 <0>        -0.3320
      7 C5         -3.4098   -1.3350   -3.2994 C.ar      1 <0>        -0.0501
      8 C6         -4.0684   -1.5961   -2.0883 C.ar      1 <0>         0.4230
      9 N3         -3.4565   -1.3462   -0.9369 N.ar      1 <0>        -0.5098
     10 N4         -5.3504   -2.1172   -2.0940 N.pl3     1 <0>        -0.8125
     11 C7         -4.0835   -1.6157   -4.5833 C.2       1 <0>         0.5935
     12 O1         -5.2481   -1.9744   -4.5947 O.2       1 <0>        -0.5412
     13 N5         -3.4136   -1.4760   -5.7366 N.2       1 <0>        -0.6714
     14 C8         -3.8643   -0.6503   -6.6680 C.2       1 <0>         0.7042
     15 N6         -4.9457    0.1409   -6.4126 N.pl3     1 <0>        -0.8658
     16 N7         -3.2474   -0.5907   -7.8831 N.pl3     1 <0>        -0.8241
     17 Cl1         0.0323    0.0725   -2.1374 Cl        1 <0>        -0.0122
     18 C9         -0.7032   -1.5771    0.8594 C.3       1 <0>         0.1703
     19 C10         0.7032   -0.9910    0.9985 C.3       1 <0>        -0.1673
     20 C11        -1.2300   -1.9720    2.2406 C.3       1 <0>        -0.1640
     21 H1         -3.2447    1.5828    2.2864 H         1 <0>         0.0570
     22 H2         -3.9341    0.4120    1.1366 H         1 <0>         0.0567
     23 H3         -2.9819   -0.1611    2.5270 H         1 <0>         0.0615
     24 H4         -1.9110    1.4957    0.1978 H         1 <0>         0.0607
     25 H5         -0.9588    0.9226    1.5882 H         1 <0>         0.0815
     26 H6         -5.8256   -2.2272   -2.9324 H         1 <0>         0.4270
     27 H7         -5.7739   -2.3725   -1.2594 H         1 <0>         0.4032
     28 H8         -5.3383    0.1543   -5.5256 H         1 <0>         0.4171
     29 H9         -5.3222    0.6902   -7.1179 H         1 <0>         0.4036
     30 H10        -2.4784   -1.1533   -8.0647 H         1 <0>         0.4271
     31 H11        -3.5776    0.0144   -8.5655 H         1 <0>         0.4116
     32 H12        -0.6680   -2.4581    0.2185 H         1 <0>         0.0743
     33 H13         1.0785   -0.7097    0.0145 H         1 <0>         0.0642
     34 H14         0.6679   -0.1100    1.6394 H         1 <0>         0.0596
     35 H15         1.3651   -1.7357    1.4405 H         1 <0>         0.0644
     36 H16        -2.2320   -2.3896    2.1415 H         1 <0>         0.0591
     37 H17        -0.5681   -2.7167    2.6826 H         1 <0>         0.0621
     38 H18        -1.2652   -1.0911    2.8815 H         1 <0>         0.0610
@<TRIPOS>BOND
     1    1    2 1
     2    1   21 1
     3    1   22 1
     4    1   23 1
     5    2    3 1
     6    2   24 1
     7    2   25 1
     8    3    4 1
     9    3   18 1
    10    4    9 ar
    11    4    5 ar
    12    5    6 ar
    13    5   17 1
    14    6    7 ar
    15    7    8 ar
    16    7   11 1
    17    8    9 ar
    18    8   10 1
    19   10   26 1
    20   10   27 1
    21   11   12 2
    22   11   13 1
    23   13   14 2
    24   14   15 1
    25   14   16 1
    26   15   28 1
    27   15   29 1
    28   16   30 1
    29   16   31 1
    30   18   19 1
    31   18   20 1
    32   18   32 1
    33   19   33 1
    34   19   34 1
    35   19   35 1
    36   20   36 1
    37   20   37 1
    38   20   38 1
