@<TRIPOS>MOLECULE
ZINC09224016
   25    26     0     0     0
SMALL
USER_CHARGES

@<TRIPOS>ATOM
      1 C1         -0.0184    1.5028    0.0103 C.3       1 <0>        -0.1391
      2 C2          0.0021   -0.0041    0.0020 C.2       1 <0>         0.2276
      3 C3         -1.1906   -0.6918    0.0041 C.2       1 <0>        -0.1838
      4 C4         -1.1990   -2.0975   -0.0031 C.2       1 <0>         0.0727
      5 C5          0.0161   -2.7742   -0.0126 C.2       1 <0>        -0.1606
      6 C6          1.2525   -1.9900   -0.0149 C.2       1 <0>         0.5412
      7 N1          1.1865   -0.6449   -0.0127 N.am      1 <0>        -0.5906
      8 O1          2.3345   -2.5509   -0.0232 O.2       1 <0>        -0.5158
      9 C7          0.0570   -4.2056   -0.0197 C.1       1 <0>         0.2716
     10 N2          0.0895   -5.3411   -0.0253 N.1       1 <0>        -0.4064
     11 C8         -2.4728    0.0540    0.0144 C.ar      1 <0>         0.0158
     12 C9         -2.8306    0.8519    1.1050 C.ar      1 <0>        -0.1625
     13 C10        -4.0319    1.5289    1.0733 C.ar      1 <0>         0.1042
     14 N3         -4.8375    1.4306    0.0329 N.ar      1 <0>        -0.4835
     15 C11        -4.5375    0.6886   -1.0161 C.ar      1 <0>         0.1054
     16 C12        -3.3536   -0.0172   -1.0689 C.ar      1 <0>        -0.1591
     17 H1          1.0042    1.8801    0.0026 H         1 <0>         0.0841
     18 H2         -0.5455    1.8639   -0.8728 H         1 <0>         0.1024
     19 H3         -0.5286    1.8543    0.9071 H         1 <0>         0.1042
     20 H4         -2.1318   -2.6419   -0.0008 H         1 <0>         0.1516
     21 H5         -2.1762    0.9367    1.9600 H         1 <0>         0.1377
     22 H6         -4.3172    2.1475    1.9114 H         1 <0>         0.1588
     23 H7         -5.2263    0.6366   -1.8464 H         1 <0>         0.1591
     24 H8         -3.1125   -0.6192   -1.9325 H         1 <0>         0.1389
     25 H9          2.0073   -0.1280   -0.0178 H         1 <0>         0.4261
@<TRIPOS>BOND
     1    1    2 1
     2    1   17 1
     3    1   18 1
     4    1   19 1
     5    2    7 1
     6    2    3 2
     7    3    4 1
     8    3   11 1
     9    4    5 2
    10    4   20 1
    11    5    6 1
    12    5    9 1
    13    6    7 am
    14    6    8 2
    15    7   25 1
    16    9   10 3
    17   11   16 ar
    18   11   12 ar
    19   12   13 ar
    20   12   21 1
    21   13   14 ar
    22   13   22 1
    23   14   15 ar
    24   15   16 ar
    25   15   23 1
    26   16   24 1
@<TRIPOS>MOLECULE
ZINC00056555
   46    48     0     0     0
SMALL
USER_CHARGES

@<TRIPOS>ATOM
      1 C1         -0.0173    1.4248    0.0099 C.3       1 <0>         0.0258
      2 O1          0.0021   -0.0041    0.0020 O.3       1 <0>        -0.3063
      3 C2          0.6262   -0.6188    1.0422 C.ar      1 <0>         0.0999
      4 C3          1.2021    0.1367    2.0510 C.ar      1 <0>        -0.1710
      5 C4          1.8358   -0.4897    3.1079 C.ar      1 <0>        -0.1122
      6 C5          1.8971   -1.8699    3.1612 C.ar      1 <0>        -0.0760
      7 C6          1.3251   -2.6295    2.1578 C.ar      1 <0>        -0.1547
      8 C7          0.6830   -2.0080    1.0988 C.ar      1 <0>         0.1015
      9 O2          0.1145   -2.7540    0.1140 O.3       1 <0>        -0.3064
     10 C8          0.2115   -4.1743    0.2380 C.3       1 <0>         0.0255
     11 C9          2.5896   -2.5476    4.3154 C.3       1 <0>        -0.0305
     12 C10         1.5954   -2.8002    5.4194 C.ar      1 <0>         0.1803
     13 C11         1.3868   -1.8306    6.4126 C.ar      1 <0>        -0.0927
     14 C12         2.0813   -0.6102    6.4178 C.ar      1 <0>        -0.1656
     15 C13         1.8397    0.2976    7.4073 C.ar      1 <0>         0.1202
     16 C14         0.9067    0.0284    8.4207 C.ar      1 <0>         0.1418
     17 C15         0.2161   -1.1496    8.4419 C.ar      1 <0>        -0.1891
     18 C16         0.4428   -2.1015    7.4380 C.ar      1 <0>        -0.0102
     19 C17        -0.2384   -3.3323    7.4069 C.ar      1 <0>        -0.1601
     20 C18         0.0362   -4.2060    6.3992 C.ar      1 <0>         0.0826
     21 N1          0.9194   -3.9252    5.4505 N.ar      1 <0>        -0.4840
     22 O3          0.6880    0.9516    9.3935 O.3       1 <0>        -0.3019
     23 C19        -0.2734    0.6206   10.3977 C.3       1 <0>         0.0223
     24 O4          2.5122    1.4790    7.4120 O.3       1 <0>        -0.3019
     25 C20         3.4494    1.6962    6.3553 C.3       1 <0>         0.0208
     26 H1          1.0053    1.8021    0.0021 H         1 <0>         0.0553
     27 H2         -0.5445    1.7859   -0.8732 H         1 <0>         0.1013
     28 H3         -0.5275    1.7763    0.9067 H         1 <0>         0.0545
     29 H4          1.1562    1.2150    2.0113 H         1 <0>         0.1358
     30 H5          2.2842    0.1003    3.8935 H         1 <0>         0.1221
     31 H6          1.3747   -3.7075    2.2017 H         1 <0>         0.1401
     32 H7          1.2614   -4.4664    0.2576 H         1 <0>         0.0558
     33 H8         -0.2714   -4.4922    1.1620 H         1 <0>         0.0564
     34 H9         -0.2815   -4.6476   -0.6111 H         1 <0>         0.1010
     35 H10         3.0097   -3.4961    3.9808 H         1 <0>         0.0985
     36 H11         3.3894   -1.9067    4.6863 H         1 <0>         0.0913
     37 H12         2.8023   -0.3917    5.6438 H         1 <0>         0.1473
     38 H13        -0.4993   -1.3466    9.2266 H         1 <0>         0.1459
     39 H14        -0.9645   -3.5793    8.1673 H         1 <0>         0.1371
     40 H15        -0.4831   -5.1525    6.3692 H         1 <0>         0.1540
     41 H16        -0.3511    1.4413   11.1107 H         1 <0>         0.1057
     42 H17        -1.2436    0.4521    9.9304 H         1 <0>         0.0589
     43 H18         0.0414   -0.2840   10.9179 H         1 <0>         0.0591
     44 H19         4.2164    0.9223    6.3853 H         1 <0>         0.0590
     45 H20         2.9316    1.6577    5.3969 H         1 <0>         0.0571
     46 H21         3.9148    2.6741    6.4778 H         1 <0>         0.1062
@<TRIPOS>BOND
     1    1    2 1
     2    1   26 1
     3    1   27 1
     4    1   28 1
     5    2    3 1
     6    3    8 ar
     7    3    4 ar
     8    4    5 ar
     9    4   29 1
    10    5    6 ar
    11    5   30 1
    12    6    7 ar
    13    6   11 1
    14    7    8 ar
    15    7   31 1
    16    8    9 1
    17    9   10 1
    18   10   32 1
    19   10   33 1
    20   10   34 1
    21   11   12 1
    22   11   35 1
    23   11   36 1
    24   12   21 ar
    25   12   13 ar
    26   13   18 ar
    27   13   14 ar
    28   14   15 ar
    29   14   37 1
    30   15   16 ar
    31   15   24 1
    32   16   17 ar
    33   16   22 1
    34   17   18 ar
    35   17   38 1
    36   18   19 ar
    37   19   20 ar
    38   19   39 1
    39   20   21 ar
    40   20   40 1
    41   22   23 1
    42   23   41 1
    43   23   42 1
    44   23   43 1
    45   24   25 1
    46   25   44 1
    47   25   45 1
    48   25   46 1
@<TRIPOS>MOLECULE
ZINC01537820
   46    49     0     0     0
SMALL
USER_CHARGES
N-(benzo[1,3]dioxol-5-ylmethyl)-6,7,8-trimethoxy-quinazolin-4-amine
@<TRIPOS>ATOM
      1 C1         -0.1990    0.8421    0.1000 C.3       1 <0>         0.0214
      2 O1         -0.7713    1.3787    1.2944 O.3       1 <0>        -0.3002
      3 C2         -0.8313    2.7334    1.3956 C.ar      1 <0>         0.1161
      4 C3         -0.3483    3.5087    0.3784 C.ar      1 <0>        -0.1701
      5 C4         -0.4135    4.9036    0.4767 C.ar      1 <0>        -0.1528
      6 C5         -0.9679    5.5053    1.6332 C.ar      1 <0>         0.1544
      7 C6         -1.4530    4.6909    2.6689 C.ar      1 <0>         0.1233
      8 C7         -1.3815    3.3174    2.5425 C.ar      1 <0>         0.1005
      9 O2         -1.8500    2.5243    3.5429 O.3       1 <0>        -0.3187
     10 C8         -3.2225    2.1328    3.4716 C.3       1 <0>         0.0387
     11 O3         -1.9893    5.2498    3.7869 O.3       1 <0>        -0.3100
     12 C9         -1.0933    5.5366    4.8626 C.3       1 <0>         0.0423
     13 N1         -1.0127    6.8448    1.7051 N.ar      1 <0>        -0.5310
     14 C10        -0.5512    7.5791    0.7215 C.ar      1 <0>         0.3411
     15 N2         -0.0247    7.0615   -0.3777 N.ar      1 <0>        -0.5866
     16 C11         0.0680    5.7500   -0.5506 C.ar      1 <0>         0.4705
     17 N3          0.6186    5.2244   -1.7016 N.pl3     1 <0>        -0.6944
     18 C12         1.1109    6.1185   -2.7526 C.3       1 <0>         0.1752
     19 C13         1.6588    5.2996   -3.8929 C.ar      1 <0>        -0.1080
     20 C14         2.9931    4.9379   -3.9036 C.ar      1 <0>        -0.0856
     21 C15         3.4990    4.1820   -4.9446 C.ar      1 <0>        -0.1023
     22 C16         2.6717    3.7952   -5.9865 C.ar      1 <0>         0.0441
     23 C17         1.3288    4.1641   -5.9783 C.ar      1 <0>         0.0302
     24 C18         0.8273    4.9166   -4.9287 C.ar      1 <0>        -0.0799
     25 O4          0.7329    3.6666   -7.1011 O.3       1 <0>        -0.3070
     26 C19         1.8122    3.3394   -7.9963 C.3       1 <0>         0.2126
     27 O5          2.9172    3.0666   -7.1144 O.3       1 <0>        -0.3071
     28 H1         -0.2123   -0.2468    0.1481 H         1 <0>         0.1069
     29 H2          0.8298    1.1889    0.0025 H         1 <0>         0.0584
     30 H3         -0.7778    1.1749   -0.7616 H         1 <0>         0.0575
     31 H4          0.0779    3.0466   -0.4998 H         1 <0>         0.1382
     32 H5         -3.8519    3.0215    3.4258 H         1 <0>         0.0525
     33 H6         -3.3819    1.5282    2.5787 H         1 <0>         0.0489
     34 H7         -3.4804    1.5499    4.3558 H         1 <0>         0.0987
     35 H8         -0.6562    4.6077    5.2288 H         1 <0>         0.0496
     36 H9         -0.3010    6.1966    4.5094 H         1 <0>         0.0494
     37 H10        -1.6394    6.0243    5.6701 H         1 <0>         0.0982
     38 H11        -0.6028    8.6541    0.8121 H         1 <0>         0.1975
     39 H12         0.6798    4.2630   -1.8148 H         1 <0>         0.4111
     40 H13         0.2920    6.7411   -3.1129 H         1 <0>         0.0850
     41 H14         1.8998    6.7534   -2.3493 H         1 <0>         0.0875
     42 H15         3.6406    5.2429   -3.0948 H         1 <0>         0.1422
     43 H16         4.5408    3.8974   -4.9484 H         1 <0>         0.1402
     44 H17        -0.2136    5.2043   -4.9199 H         1 <0>         0.1385
     45 H18         2.0403    4.1842   -8.6461 H         1 <0>         0.0881
     46 H19         1.5661    2.4565   -8.5864 H         1 <0>         0.1351
@<TRIPOS>BOND
     1    1    2 1
     2    1   28 1
     3    1   29 1
     4    1   30 1
     5    2    3 1
     6    3    8 ar
     7    3    4 ar
     8    4    5 ar
     9    4   31 1
    10    5   16 ar
    11    5    6 ar
    12    6    7 ar
    13    6   13 ar
    14    7    8 ar
    15    7   11 1
    16    8    9 1
    17    9   10 1
    18   10   32 1
    19   10   33 1
    20   10   34 1
    21   11   12 1
    22   12   35 1
    23   12   36 1
    24   12   37 1
    25   13   14 ar
    26   14   15 ar
    27   14   38 1
    28   15   16 ar
    29   16   17 1
    30   17   18 1
    31   17   39 1
    32   18   19 1
    33   18   40 1
    34   18   41 1
    35   19   24 ar
    36   19   20 ar
    37   20   21 ar
    38   20   42 1
    39   21   22 ar
    40   21   43 1
    41   22   27 1
    42   22   23 ar
    43   23   24 ar
    44   23   25 1
    45   24   44 1
    46   25   26 1
    47   26   27 1
    48   26   45 1
    49   26   46 1
