@<TRIPOS>MOLECULE
ZINC01047806
   44    47     0     0     0
SMALL
USER_CHARGES
N-(3,5-dichlorophenyl)-2-[4-(2-phenylthiazol-4-yl)pyrimidin-2-yl]sulfanyl-acetamide
@<TRIPOS>ATOM
      1 C1         -7.5443    0.5111    0.0945 C.ar      1 <0>        -0.0969
      2 C2         -7.3560    1.8818    0.0925 C.ar      1 <0>        -0.1171
      3 C3         -6.0797    2.4058    0.0817 C.ar      1 <0>        -0.0900
      4 C4         -4.9776    1.5501    0.0731 C.ar      1 <0>        -0.0214
      5 C5         -5.1743    0.1686    0.0702 C.ar      1 <0>        -0.0691
      6 C6         -6.4557   -0.3427    0.0860 C.ar      1 <0>        -0.1203
      7 C7         -3.6067    2.1050    0.0609 C.2       1 <0>         0.1640
      8 N1         -2.4472    1.4694    0.0516 N.2       1 <0>        -0.4848
      9 C8         -1.3027    2.1283    0.0409 C.2       1 <0>         0.0777
     10 C9         -1.3174    3.5007    0.0446 C.2       1 <0>        -0.1337
     11 S1         -3.0782    3.8125    0.0542 S.3       1 <0>         0.0416
     12 C10        -0.0167    1.3940    0.0311 C.ar      1 <0>         0.2603
     13 C11         0.0025   -0.0050    0.0327 C.ar      1 <0>        -0.2011
     14 C12         1.2266   -0.6469    0.0176 C.ar      1 <0>         0.1647
     15 N2          2.3369    0.0747    0.0021 N.ar      1 <0>        -0.5321
     16 C13         2.2901    1.3996    0.0010 C.ar      1 <0>         0.2848
     17 N3          1.1393    2.0550    0.0152 N.ar      1 <0>        -0.4958
     18 S2          3.7974    2.3119   -0.0205 S.3       1 <0>         0.0986
     19 C14         4.9891    0.9496   -0.0347 C.3       1 <0>        -0.1551
     20 C15         6.3891    1.5071   -0.0543 C.2       1 <0>         0.5347
     21 O1          6.5639    2.7073   -0.0582 O.2       1 <0>        -0.4965
     22 N4          7.4468    0.6719   -0.0674 N.am      1 <0>        -0.6645
     23 C16         8.7429    1.1863   -0.1832 C.ar      1 <0>         0.1703
     24 C17         9.7102    0.4823   -0.8880 C.ar      1 <0>        -0.1311
     25 C18        10.9885    0.9952   -1.0053 C.ar      1 <0>        -0.0051
     26 C19        11.3075    2.2038   -0.4117 C.ar      1 <0>        -0.1152
     27 C20        10.3469    2.9047    0.2961 C.ar      1 <0>        -0.0049
     28 C21         9.0656    2.3989    0.4115 C.ar      1 <0>        -0.1094
     29 Cl1        10.7512    4.4206    1.0392 Cl        1 <0>        -0.0459
     30 Cl2        12.1965    0.1191   -1.8924 Cl        1 <0>        -0.0479
     31 H1         -8.5453    0.1059    0.1030 H         1 <0>         0.1300
     32 H2         -8.2099    2.5429    0.0992 H         1 <0>         0.1330
     33 H3         -5.9341    3.4759    0.0801 H         1 <0>         0.1279
     34 H4         -4.3253   -0.4989    0.0595 H         1 <0>         0.1356
     35 H5         -6.6093   -1.4117    0.0880 H         1 <0>         0.1324
     36 H6         -0.4936    4.1991    0.0414 H         1 <0>         0.2118
     37 H7         -0.9177   -0.5702    0.0458 H         1 <0>         0.1585
     38 H8          1.2769   -1.7257    0.0186 H         1 <0>         0.1767
     39 H9          4.8536    0.3390    0.8580 H         1 <0>         0.1317
     40 H10         4.8297    0.3367   -0.9218 H         1 <0>         0.1319
     41 H11         7.3096   -0.2857    0.0034 H         1 <0>         0.4200
     42 H12         9.4629   -0.4632   -1.3477 H         1 <0>         0.1455
     43 H13        12.3080    2.6007   -0.5008 H         1 <0>         0.1477
     44 H14         8.3161    2.9466    0.9634 H         1 <0>         0.1583
@<TRIPOS>BOND
     1    1    6 ar
     2    1    2 ar
     3    1   31 1
     4    2    3 ar
     5    2   32 1
     6    3    4 ar
     7    3   33 1
     8    4    5 ar
     9    4    7 1
    10    5    6 ar
    11    5   34 1
    12    6   35 1
    13    7   11 1
    14    7    8 2
    15    8    9 1
    16    9   10 2
    17    9   12 1
    18   10   11 1
    19   10   36 1
    20   12   17 ar
    21   12   13 ar
    22   13   14 ar
    23   13   37 1
    24   14   15 ar
    25   14   38 1
    26   15   16 ar
    27   16   17 ar
    28   16   18 1
    29   18   19 1
    30   19   20 1
    31   19   39 1
    32   19   40 1
    33   20   21 2
    34   20   22 am
    35   22   23 1
    36   22   41 1
    37   23   28 ar
    38   23   24 ar
    39   24   25 ar
    40   24   42 1
    41   25   26 ar
    42   25   30 1
    43   26   27 ar
    44   26   43 1
    45   27   28 ar
    46   27   29 1
    47   28   44 1
@<TRIPOS>MOLECULE
ZINC08626709
   35    36     0     0     0
SMALL
USER_CHARGES
1,5-dichloro-2-[2,6-dinitro-4-(trifluoromethyl)phenyl]sulfonyl-4-methyl-benzene
@<TRIPOS>ATOM
      1 C1          0.5927   -0.2302    9.0659 C.3       1 <0>        -0.1271
      2 C2          1.3654    0.0621    7.8055 C.ar      1 <0>        -0.0702
      3 C3          2.4384   -0.7347    7.4521 C.ar      1 <0>        -0.0262
      4 C4          3.1471   -0.4675    6.2962 C.ar      1 <0>        -0.6598
      5 C5          2.7863    0.6011    5.4944 C.ar      1 <0>         0.0699
      6 C6          1.7096    1.3955    5.8447 C.ar      1 <0>        -0.1017
      7 C7          1.0005    1.1275    7.0020 C.ar      1 <0>         0.0300
      8 Cl1        -0.3474    2.1277    7.4456 Cl        1 <0>        -0.0224
      9 Cl2         3.6812    0.9410    4.0462 Cl        1 <0>        -0.0104
     10 S1          4.5149   -1.4833    5.8470 S.o2      1 <0>         2.5369
     11 O1          5.6811   -0.8318    6.3316 O.2       1 <0>        -0.8722
     12 O2          4.3416   -1.8149    4.4761 O.2       1 <0>        -0.8387
     13 C8          4.3658   -2.9879    6.7518 C.ar      1 <0>        -0.5652
     14 C9          3.2804   -3.8172    6.5399 C.ar      1 <0>         0.0629
     15 C10         3.1608   -4.9950    7.2535 C.ar      1 <0>         0.0005
     16 C11         4.1289   -5.3457    8.1759 C.ar      1 <0>        -0.1149
     17 C12         5.2170   -4.5189    8.3840 C.ar      1 <0>         0.0007
     18 C13         5.3368   -3.3413    7.6700 C.ar      1 <0>         0.0662
     19 N1          6.5017   -2.4558    7.8932 N.pl3     1 <0>        -0.0029
     20 O3          7.2279   -2.1583    6.9616 O.2       1 <0>        -0.0462
     21 O4          6.7313   -2.0206    9.0074 O.3       1 <0>        -0.1169
     22 C14         3.9982   -6.6295    8.9542 C.3       1 <0>         0.5197
     23 F1          3.2920   -6.3877   10.1375 F         1 <0>        -0.1544
     24 F2          3.3096   -7.5733    8.1847 F         1 <0>        -0.1578
     25 F3          5.2718   -7.1192    9.2631 F         1 <0>        -0.1576
     26 N2          2.2436   -3.4415    5.5526 N.pl3     1 <0>        -0.0221
     27 O5          1.0718   -3.4070    5.8832 O.2       1 <0>        -0.1121
     28 O6          2.5621   -3.1669    4.4095 O.3       1 <0>        -0.0466
     29 H1          1.0373    0.3141    9.8991 H         1 <0>         0.0889
     30 H2         -0.4432    0.0839    8.9381 H         1 <0>         0.0868
     31 H3          0.6252   -1.3000    9.2721 H         1 <0>         0.0794
     32 H4          2.7231   -1.5661    8.0798 H         1 <0>         0.1379
     33 H5          1.4253    2.2274    5.2173 H         1 <0>         0.1660
     34 H6          2.3108   -5.6412    7.0907 H         1 <0>         0.1898
     35 H7          5.9733   -4.7928    9.1046 H         1 <0>         0.1900
@<TRIPOS>BOND
     1    1    2 1
     2    1   29 1
     3    1   30 1
     4    1   31 1
     5    2    7 ar
     6    2    3 ar
     7    3    4 ar
     8    3   32 1
     9    4    5 ar
    10    4   10 1
    11    5    6 ar
    12    5    9 1
    13    6    7 ar
    14    6   33 1
    15    7    8 1
    16   10   11 2
    17   10   12 2
    18   10   13 1
    19   13   18 ar
    20   13   14 ar
    21   14   15 ar
    22   14   26 1
    23   15   16 ar
    24   15   34 1
    25   16   17 ar
    26   16   22 1
    27   17   18 ar
    28   17   35 1
    29   18   19 1
    30   19   20 2
    31   19   21 1
    32   22   23 1
    33   22   24 1
    34   22   25 1
    35   26   27 2
    36   26   28 1
@<TRIPOS>MOLECULE
ZINC02155429
   39    40     0     0     0
SMALL
USER_CHARGES
[4-[4-(2,3,3-trichloroprop-2-enoyloxy)phenyl]sulfonylphenyl] 2,3,3-trichloroprop-2-enoate
@<TRIPOS>ATOM
      1 C1         -0.0253   -0.0014    0.2182 C.ar      1 <0>        -0.1349
      2 C2         -0.0280    1.3798    0.1939 C.ar      1 <0>        -0.0036
      3 C3          1.1544    2.0715    0.0062 C.ar      1 <0>        -0.6570
      4 C4          2.3423    1.3831   -0.1577 C.ar      1 <0>        -0.0050
      5 C5          2.3504    0.0019   -0.1343 C.ar      1 <0>        -0.1312
      6 C6          1.1653   -0.6945    0.0539 C.ar      1 <0>         0.1387
      7 O1          1.1708   -2.0534    0.0778 O.3       1 <0>        -0.2766
      8 C7          0.6737   -2.6869   -1.0043 C.2       1 <0>         0.5117
      9 O2          0.1767   -2.0449   -1.9096 O.2       1 <0>        -0.4448
     10 C8          0.7327   -4.1479   -1.0889 C.2       1 <0>        -0.1011
     11 C9          0.2395   -4.7765   -2.1627 C.2       1 <0>         0.0467
     12 Cl1        -0.4701   -3.8602   -3.4552 Cl        1 <0>         0.0501
     13 Cl2         0.3094   -6.5082   -2.2630 Cl        1 <0>         0.0295
     14 Cl3         1.4423   -5.0643    0.2036 Cl        1 <0>         0.0116
     15 S1          1.1474    3.8332   -0.0247 S.o2      1 <0>         2.5845
     16 O3          2.2969    4.2311   -0.7591 O.2       1 <0>        -0.9267
     17 O4         -0.1669    4.2276   -0.3941 O.2       1 <0>        -0.9266
     18 C10         1.3918    4.3843    1.6310 C.ar      1 <0>        -0.6571
     19 C11         0.3022    4.6039    2.4533 C.ar      1 <0>        -0.0042
     20 C12         0.4914    5.0305    3.7535 C.ar      1 <0>        -0.1306
     21 C13         1.7757    5.2495    4.2304 C.ar      1 <0>         0.1404
     22 C14         2.8672    5.0338    3.4015 C.ar      1 <0>        -0.1382
     23 C15         2.6728    4.6018    2.1039 C.ar      1 <0>        -0.0031
     24 O5          1.9643    5.6742    5.5076 O.3       1 <0>        -0.2774
     25 C16         2.2690    6.9766    5.6812 C.2       1 <0>         0.5119
     26 O6          2.2584    7.7354    4.7310 O.2       1 <0>        -0.4444
     27 C17         2.6127    7.4769    7.0142 C.2       1 <0>        -0.1014
     28 C18         2.9150    8.7694    7.1864 C.2       1 <0>         0.0466
     29 Cl4         2.8999    9.8526    5.8300 Cl        1 <0>         0.0501
     30 Cl5         3.3223    9.3625    8.7663 Cl        1 <0>         0.0294
     31 Cl6         2.6278    6.3937    8.3707 Cl        1 <0>         0.0117
     32 H1         -0.9492   -0.5413    0.3645 H         1 <0>         0.1432
     33 H2         -0.9552    1.9197    0.3172 H         1 <0>         0.1540
     34 H3          3.2645    1.9256   -0.3045 H         1 <0>         0.1554
     35 H4          3.2786   -0.5354   -0.2620 H         1 <0>         0.1479
     36 H5         -0.6976    4.4378    2.0800 H         1 <0>         0.1553
     37 H6         -0.3598    5.1973    4.3969 H         1 <0>         0.1474
     38 H7          3.8679    5.2039    3.7703 H         1 <0>         0.1434
     39 H8          3.5221    4.4334    1.4584 H         1 <0>         0.1543
@<TRIPOS>BOND
     1    1    6 ar
     2    1    2 ar
     3    1   32 1
     4    2    3 ar
     5    2   33 1
     6    3    4 ar
     7    3   15 1
     8    4    5 ar
     9    4   34 1
    10    5    6 ar
    11    5   35 1
    12    6    7 1
    13    7    8 1
    14    8    9 2
    15    8   10 1
    16   10   11 2
    17   10   14 1
    18   11   12 1
    19   11   13 1
    20   15   16 2
    21   15   17 2
    22   15   18 1
    23   18   23 ar
    24   18   19 ar
    25   19   20 ar
    26   19   36 1
    27   20   21 ar
    28   20   37 1
    29   21   22 ar
    30   21   24 1
    31   22   23 ar
    32   22   38 1
    33   23   39 1
    34   24   25 1
    35   25   26 2
    36   25   27 1
    37   27   28 2
    38   27   31 1
    39   28   29 1
    40   28   30 1
@<TRIPOS>MOLECULE
ZINC00165976
   27    28     0     0     0
SMALL
USER_CHARGES

@<TRIPOS>ATOM
      1 C1          0.5340    1.4191   -0.3366 C.ar      1 <0>        -0.0178
      2 C2          1.6884    2.1391   -0.5796 C.ar      1 <0>        -0.1262
      3 C3          2.8255    1.4917   -1.0291 C.ar      1 <0>         0.0178
      4 C4          2.8062    0.1238   -1.2351 C.ar      1 <0>        -0.1273
      5 C5          1.6511   -0.5952   -0.9918 C.ar      1 <0>        -0.0022
      6 C6          0.5153    0.0522   -0.5427 C.ar      1 <0>        -0.6622
      7 S1         -0.9567   -0.8651   -0.2323 S.o2      1 <0>         2.6028
      8 O1         -0.5485   -2.1746    0.1389 O.2       1 <0>        -0.9300
      9 O2         -1.7712   -0.0552    0.6044 O.2       1 <0>        -0.9380
     10 C7         -1.8081   -1.0192   -1.7672 C.ar      1 <0>        -0.8836
     11 C8         -1.9882   -2.2566   -2.3539 C.ar      1 <0>         0.3210
     12 N1         -2.6331   -2.3390   -3.5083 N.ar      1 <0>        -0.6026
     13 C9         -3.1051   -1.2534   -4.1037 C.ar      1 <0>         0.6380
     14 N2         -2.9530   -0.0489   -3.5745 N.ar      1 <0>        -0.6293
     15 C10        -2.3211    0.1063   -2.4153 C.ar      1 <0>         0.5636
     16 N3         -2.1686    1.3668   -1.8613 N.pl3     1 <0>        -0.8287
     17 N4         -3.7732   -1.3814   -5.3089 N.pl3     1 <0>        -0.8048
     18 Cl1         4.2757    2.3956   -1.3350 Cl        1 <0>        -0.0488
     19 H1         -0.3524    1.9237    0.0186 H         1 <0>         0.1476
     20 H2          1.7028    3.2070   -0.4189 H         1 <0>         0.1479
     21 H3          3.6934   -0.3821   -1.5864 H         1 <0>         0.1481
     22 H4          1.6358   -1.6630   -1.1530 H         1 <0>         0.1541
     23 H5         -1.6071   -3.1475   -1.8769 H         1 <0>         0.1900
     24 H6         -1.8037    1.4630   -0.9677 H         1 <0>         0.4125
     25 H7         -2.4268    2.1533   -2.3669 H         1 <0>         0.4179
     26 H8         -3.8911   -2.2579   -5.7074 H         1 <0>         0.4212
     27 H9         -4.1236   -0.5947   -5.7551 H         1 <0>         0.4187
@<TRIPOS>BOND
     1    1    6 ar
     2    1    2 ar
     3    1   19 1
     4    2    3 ar
     5    2   20 1
     6    3    4 ar
     7    3   18 1
     8    4    5 ar
     9    4   21 1
    10    5    6 ar
    11    5   22 1
    12    6    7 1
    13    7    8 2
    14    7    9 2
    15    7   10 1
    16   10   15 ar
    17   10   11 ar
    18   11   12 ar
    19   11   23 1
    20   12   13 ar
    21   13   14 ar
    22   13   17 1
    23   14   15 ar
    24   15   16 1
    25   16   24 1
    26   16   25 1
    27   17   26 1
    28   17   27 1
@<TRIPOS>MOLECULE
ZINC04419293
   21    22     0     0     0
SMALL
USER_CHARGES

@<TRIPOS>ATOM
      1 C1         -0.0216    1.3364   -0.0505 C.2       1 <0>        -0.2285
      2 C2          1.3123    1.7709   -0.0758 C.2       1 <0>        -0.0913
      3 C3          2.0915    0.6486   -0.0530 C.2       1 <0>        -0.0743
      4 O1          1.2752   -0.4252   -0.0155 O.3       1 <0>        -0.1502
      5 C4          0.0005   -0.0146   -0.0138 C.2       1 <0>         0.0198
      6 C5          3.5556    0.6167   -0.0669 C.2       1 <0>         0.5535
      7 O2          4.1862    1.6563   -0.1016 O.2       1 <0>        -0.4650
      8 O3          4.2049   -0.5655   -0.0411 O.3       1 <0>        -0.2774
      9 C6          5.5589   -0.5526   -0.1586 C.ar      1 <0>         0.0460
     10 C7          6.3576   -0.1992    0.9244 C.ar      1 <0>        -0.0668
     11 C8          7.7338   -0.2012    0.7563 C.ar      1 <0>        -0.0756
     12 C9          8.2631   -0.5519   -0.4733 C.ar      1 <0>         0.1216
     13 N1          7.4769   -0.8816   -1.4790 N.ar      1 <0>        -0.4469
     14 C10         6.1642   -0.8972   -1.3583 C.ar      1 <0>         0.1155
     15 Cl1         8.7803    0.2315    2.0721 Cl        1 <0>        -0.0372
     16 H1         -0.9007    1.9636   -0.0548 H         1 <0>         0.1655
     17 H2          1.6565    2.7941   -0.1072 H         1 <0>         0.1677
     18 H3         -0.8671   -0.6572    0.0128 H         1 <0>         0.2189
     19 H4          5.9164    0.0704    1.8726 H         1 <0>         0.1536
     20 H5          9.3343   -0.5551   -0.6110 H         1 <0>         0.1764
     21 H6          5.5533   -1.1774   -2.2037 H         1 <0>         0.1746
@<TRIPOS>BOND
     1    1    5 2
     2    1    2 1
     3    1   16 1
     4    2    3 2
     5    2   17 1
     6    3    4 1
     7    3    6 1
     8    4    5 1
     9    5   18 1
    10    6    7 2
    11    6    8 1
    12    8    9 1
    13    9   14 ar
    14    9   10 ar
    15   10   11 ar
    16   10   19 1
    17   11   12 ar
    18   11   15 1
    19   12   13 ar
    20   12   20 1
    21   13   14 ar
    22   14   21 1
@<TRIPOS>MOLECULE
ZINC00092950
   27    29     0     0     0
SMALL
USER_CHARGES
(5-chloro-3-pyridyl) benzothiophene-2-carboxylate
@<TRIPOS>ATOM
      1 C1          1.1366    3.1546    0.1047 C.ar      1 <0>        -0.1278
      2 C2          1.1689    1.7662    0.0496 C.ar      1 <0>        -0.0693
      3 C3         -0.0158    1.0592    0.0216 C.ar      1 <0>        -0.0860
      4 C4         -1.2143    1.7404    0.0435 C.ar      1 <0>        -0.0989
      5 C5         -1.2775    3.1529    0.1043 C.ar      1 <0>        -0.1175
      6 C6         -0.0356    3.8390    0.1320 C.ar      1 <0>        -0.0530
      7 C7         -2.5736    3.6978    0.1260 C.2       1 <0>        -0.0285
      8 C8         -3.6563    2.8749    0.0934 C.2       1 <0>        -0.2004
      9 S1         -2.9205    1.2506    0.0289 S.3       1 <0>         0.1137
     10 C9         -5.0797    3.2347    0.1077 C.2       1 <0>         0.5524
     11 O1         -5.4109    4.4037    0.1541 O.2       1 <0>        -0.4686
     12 O2         -6.0198    2.2686    0.0694 O.3       1 <0>        -0.2751
     13 C10        -7.3150    2.6629    0.1890 C.ar      1 <0>         0.0444
     14 C11        -7.9774    3.2450   -0.8872 C.ar      1 <0>        -0.0648
     15 C12        -9.2999    3.6258   -0.7186 C.ar      1 <0>        -0.0761
     16 C13        -9.9087    3.4261    0.5079 C.ar      1 <0>         0.1225
     17 N1         -9.2497    2.8764    1.5088 N.ar      1 <0>        -0.4471
     18 C14        -7.9934    2.4958    1.3875 C.ar      1 <0>         0.1165
     19 Cl1       -10.1790    4.3508   -2.0283 Cl        1 <0>        -0.0371
     20 H1          2.0670    3.7026    0.1261 H         1 <0>         0.1338
     21 H2          2.1143    1.2445    0.0285 H         1 <0>         0.1408
     22 H3         -0.0042   -0.0199   -0.0216 H         1 <0>         0.1382
     23 H4         -0.0228    4.9181    0.1748 H         1 <0>         0.1322
     24 H5         -2.7093    4.7684    0.1688 H         1 <0>         0.1511
     25 H6         -7.4751    3.3929   -1.8317 H         1 <0>         0.1536
     26 H7        -10.9372    3.7250    0.6472 H         1 <0>         0.1765
     27 H8         -7.4867    2.0494    2.2303 H         1 <0>         0.1746
@<TRIPOS>BOND
     1    1    6 ar
     2    1    2 ar
     3    1   20 1
     4    2    3 ar
     5    2   21 1
     6    3    4 ar
     7    3   22 1
     8    4    9 1
     9    4    5 ar
    10    5    6 ar
    11    5    7 1
    12    6   23 1
    13    7    8 2
    14    7   24 1
    15    8    9 1
    16    8   10 1
    17   10   11 2
    18   10   12 1
    19   12   13 1
    20   13   18 ar
    21   13   14 ar
    22   14   15 ar
    23   14   25 1
    24   15   16 ar
    25   15   19 1
    26   16   17 ar
    27   16   26 1
    28   17   18 ar
    29   18   27 1
@<TRIPOS>MOLECULE
ZINC01038692
   48    51     0     0     0
SMALL
USER_CHARGES
N-(4-chlorophenyl)-2-[4-[5-[1-methyl-5-(trifluoromethyl)pyrazol-3-yl]-2-thienyl]pyrimidin-2-yl]sulfanyl-acetamide
@<TRIPOS>ATOM
      1 C1         -7.4070   -5.3784    0.0737 C.3       1 <0>         0.0864
      2 N1         -5.9961   -4.9840    0.0645 N.pl3     1 <0>        -0.3334
      3 C2         -4.9386   -5.8243    0.0587 C.2       1 <0>        -0.0112
      4 C3         -3.8127   -5.0793    0.0510 C.2       1 <0>        -0.1835
      5 C4         -4.1932   -3.7210    0.0520 C.2       1 <0>         0.1489
      6 N2         -5.5104   -3.6702    0.0659 N.2       1 <0>        -0.2290
      7 C5         -3.2775   -2.5606    0.0451 C.2       1 <0>        -0.0803
      8 C6         -3.5837   -1.2128    0.0457 C.2       1 <0>        -0.1265
      9 C7         -2.5574   -0.3039    0.0388 C.2       1 <0>        -0.0888
     10 C8         -1.2564   -0.7711    0.0316 C.2       1 <0>        -0.1447
     11 S1         -1.4926   -2.5405    0.0267 S.3       1 <0>         0.1571
     12 C9          0.0029   -0.0046    0.0235 C.ar      1 <0>         0.2825
     13 C10         1.2391   -0.6656    0.0173 C.ar      1 <0>        -0.2278
     14 C11         2.3919    0.0953    0.0103 C.ar      1 <0>         0.1749
     15 N3          2.2973    1.4168    0.0096 N.ar      1 <0>        -0.5353
     16 C12         1.1155    2.0178    0.0156 C.ar      1 <0>         0.2903
     17 N4         -0.0154    1.3293    0.0224 N.ar      1 <0>        -0.4913
     18 S2          1.0482    3.7785    0.0144 S.3       1 <0>         0.1026
     19 C13         2.8174    4.1607    0.0043 C.3       1 <0>        -0.1563
     20 C14         3.0084    5.6555    0.0019 C.2       1 <0>         0.5336
     21 O1          2.0434    6.3902    0.0066 O.2       1 <0>        -0.5002
     22 N5          4.2516    6.1760   -0.0054 N.am      1 <0>        -0.6662
     23 C15         4.4300    7.5607   -0.1053 C.ar      1 <0>         0.1461
     24 C16         5.5147    8.0736   -0.8044 C.ar      1 <0>        -0.1296
     25 C17         5.6857    9.4403   -0.9055 C.ar      1 <0>        -0.0911
     26 C18         4.7832   10.2984   -0.3020 C.ar      1 <0>        -0.0475
     27 C19         3.7043    9.7898    0.3997 C.ar      1 <0>        -0.0904
     28 C20         3.5258    8.4239    0.4994 C.ar      1 <0>        -0.1077
     29 Cl1         5.0045   12.0158   -0.4259 Cl        1 <0>        -0.0672
     30 C21        -5.0041   -7.3299    0.0611 C.3       1 <0>         0.5421
     31 F1         -3.7109   -7.8527    0.1684 F         1 <0>        -0.1563
     32 F2         -5.7731   -7.7616    1.1471 F         1 <0>        -0.1675
     33 F3         -5.5889   -7.7731   -1.1300 F         1 <0>        -0.1669
     34 H1         -7.7505   -5.4752    1.1036 H         1 <0>         0.0915
     35 H2         -7.9997   -4.6197   -0.4372 H         1 <0>         0.1058
     36 H3         -7.5205   -6.3339   -0.4385 H         1 <0>         0.0945
     37 H4         -2.8006   -5.4562    0.0454 H         1 <0>         0.1692
     38 H5         -4.6118   -0.8821    0.0511 H         1 <0>         0.1489
     39 H6         -2.7614    0.7566    0.0387 H         1 <0>         0.1525
     40 H7          1.2890   -1.7445    0.0184 H         1 <0>         0.1508
     41 H8          3.3606   -0.3821    0.0058 H         1 <0>         0.1783
     42 H9          3.2859    3.7360    0.8921 H         1 <0>         0.1309
     43 H10         3.2761    3.7344   -0.8878 H         1 <0>         0.1310
     44 H11         5.0227    5.5911    0.0586 H         1 <0>         0.4168
     45 H12         6.2216    7.4043   -1.2721 H         1 <0>         0.1370
     46 H13         6.5267    9.8398   -1.4529 H         1 <0>         0.1392
     47 H14         3.0012   10.4616    0.8695 H         1 <0>         0.1387
     48 H15         2.6834    8.0275    1.0468 H         1 <0>         0.1495
@<TRIPOS>BOND
     1    1    2 1
     2    1   34 1
     3    1   35 1
     4    1   36 1
     5    2    6 1
     6    2    3 1
     7    3    4 2
     8    3   30 1
     9    4    5 1
    10    4   37 1
    11    5    6 2
    12    5    7 1
    13    7   11 1
    14    7    8 2
    15    8    9 1
    16    8   38 1
    17    9   10 2
    18    9   39 1
    19   10   11 1
    20   10   12 1
    21   12   17 ar
    22   12   13 ar
    23   13   14 ar
    24   13   40 1
    25   14   15 ar
    26   14   41 1
    27   15   16 ar
    28   16   17 ar
    29   16   18 1
    30   18   19 1
    31   19   20 1
    32   19   42 1
    33   19   43 1
    34   20   21 2
    35   20   22 am
    36   22   23 1
    37   22   44 1
    38   23   28 ar
    39   23   24 ar
    40   24   25 ar
    41   24   45 1
    42   25   26 ar
    43   25   46 1
    44   26   27 ar
    45   26   29 1
    46   27   28 ar
    47   27   47 1
    48   28   48 1
    49   30   31 1
    50   30   32 1
    51   30   33 1
