@<TRIPOS>MOLECULE
ZINC12732673
   64    66     0     0     0
SMALL
USER_CHARGES

@<TRIPOS>ATOM
      1 C1         -1.0379    1.4210    0.6770 C.3       1 <0>        -0.1244
      2 C2         -0.6757   -0.0417    0.6621 C.ar      1 <0>        -0.0490
      3 C3          0.4954   -0.4551    0.0518 C.ar      1 <0>        -0.1252
      4 C4          0.8330   -1.7923    0.0345 C.ar      1 <0>        -0.0472
      5 C5         -0.0101   -2.7298    0.6349 C.ar      1 <0>        -0.1469
      6 C6         -1.1904   -2.3057    1.2491 C.ar      1 <0>        -0.0857
      7 C7         -1.5130   -0.9647    1.2639 C.ar      1 <0>        -0.1292
      8 C8          0.3448   -4.1639    0.6200 C.2       1 <0>         0.5613
      9 O1          1.3721   -4.5299    0.0845 O.2       1 <0>        -0.5055
     10 N1         -0.4712   -5.0660    1.2003 N.am      1 <0>        -0.6570
     11 C9         -0.1932   -6.3852    1.1093 C.2       1 <0>         0.0469
     12 C10        -0.0210   -7.1469    2.2729 C.2       1 <0>        -0.0063
     13 C11        -0.1279   -6.5449    3.5179 C.2       1 <0>        -0.0030
     14 C12        -0.0950   -7.2262    4.8213 C.2       1 <0>        -0.1419
     15 C13        -0.2324   -6.2573    5.7619 C.2       1 <0>        -0.1483
     16 C14        -0.3473   -5.0176    5.0845 C.2       1 <0>        -0.0051
     17 O2         -0.2755   -5.2236    3.7584 O.3       1 <0>        -0.0997
     18 C15        -0.5075   -3.7556    5.7090 C.ar      1 <0>         0.0421
     19 C16        -1.4948   -3.5732    6.6968 C.ar      1 <0>        -0.0915
     20 C17        -1.6399   -2.3527    7.2924 C.ar      1 <0>        -0.0610
     21 C18        -0.8197   -1.2946    6.9273 C.ar      1 <0>        -0.1056
     22 C19         0.1557   -1.4627    5.9553 C.ar      1 <0>        -0.0520
     23 C20         0.3229   -2.6764    5.3507 C.ar      1 <0>         0.0071
     24 N2          1.3688   -2.8544    4.3182 N.pl3     1 <0>        -0.0221
     25 O3          2.1441   -1.8432    3.9850 O.2       1 <0>        -0.1705
     26 O4          1.5239   -4.0239    3.7327 O.3       1 <0>        -0.1450
     27 C21        -0.0699   -7.0296   -0.2272 C.2       1 <0>         0.5727
     28 O5          0.2688   -8.1922   -0.3116 O.2       1 <0>        -0.5222
     29 N3         -0.3342   -6.3220   -1.3434 N.am      1 <0>        -0.7262
     30 C22        -0.2994   -6.9788   -2.6525 C.3       1 <0>         0.1266
     31 C23        -0.6337   -5.9595   -3.7435 C.3       1 <0>        -0.1651
     32 C24        -0.5973   -6.6455   -5.1106 C.3       1 <0>        -0.0063
     33 N4         -0.9184   -5.6669   -6.1582 N.4       1 <0>        -0.3867
     34 C25         0.1328   -4.6419   -6.2095 C.3       1 <0>        -0.0541
     35 C26        -1.0011   -6.3489   -7.4566 C.3       1 <0>        -0.0473
     36 H1         -0.6174    1.8905    1.5663 H         1 <0>         0.0793
     37 H2         -0.6356    1.9040   -0.2135 H         1 <0>         0.0727
     38 H3         -2.1227    1.5266    0.6889 H         1 <0>         0.0711
     39 H4          1.1463    0.2710   -0.4125 H         1 <0>         0.1331
     40 H5          1.7471   -2.1137   -0.4425 H         1 <0>         0.1371
     41 H6         -1.8470   -3.0255    1.7150 H         1 <0>         0.1193
     42 H7         -2.4233   -0.6347    1.7424 H         1 <0>         0.1290
     43 H8         -1.2579   -4.7683    1.6833 H         1 <0>         0.4070
     44 H9          0.1948   -8.2026    2.2002 H         1 <0>         0.1768
     45 H10         0.0160   -8.2863    4.9952 H         1 <0>         0.1684
     46 H11        -0.2513   -6.4042    6.8316 H         1 <0>         0.1626
     47 H12        -2.1347   -4.3951    6.9820 H         1 <0>         0.1558
     48 H13        -2.3962   -2.2104    8.0501 H         1 <0>         0.1535
     49 H14        -0.9418   -0.3329    7.4033 H         1 <0>         0.1544
     50 H15         0.7880   -0.6321    5.6784 H         1 <0>         0.1588
     51 H16        -0.5475   -5.3779   -1.2800 H         1 <0>         0.3995
     52 H17         0.6964   -7.3858   -2.8284 H         1 <0>         0.0808
     53 H18        -1.0310   -7.7865   -2.6733 H         1 <0>         0.0795
     54 H19        -1.6295   -5.5525   -3.5676 H         1 <0>         0.0931
     55 H20         0.0979   -5.1518   -3.7227 H         1 <0>         0.0958
     56 H21         0.3984   -7.0525   -5.2865 H         1 <0>         0.1356
     57 H22        -1.3289   -7.4532   -5.1315 H         1 <0>         0.1361
     58 H23        -0.1055   -3.9158   -6.9867 H         1 <0>         0.1256
     59 H24         0.1942   -4.1359   -5.2460 H         1 <0>         0.1240
     60 H25         1.0895   -5.1136   -6.4338 H         1 <0>         0.1244
     61 H26        -1.7810   -7.1094   -7.4185 H         1 <0>         0.1243
     62 H27        -1.2393   -5.6228   -8.2339 H         1 <0>         0.1252
     63 H28        -0.0444   -6.8205   -7.6809 H         1 <0>         0.1232
     64 H29        -1.8040   -5.2303   -5.9505 H         1 <0>         0.4268
@<TRIPOS>BOND
     1    1    2 1
     2    1   36 1
     3    1   37 1
     4    1   38 1
     5    2    7 ar
     6    2    3 ar
     7    3    4 ar
     8    3   39 1
     9    4    5 ar
    10    4   40 1
    11    5    6 ar
    12    5    8 1
    13    6    7 ar
    14    6   41 1
    15    7   42 1
    16    8    9 2
    17    8   10 am
    18   10   11 1
    19   10   43 1
    20   11   12 2
    21   11   27 1
    22   12   13 1
    23   12   44 1
    24   13   17 1
    25   13   14 2
    26   14   15 1
    27   14   45 1
    28   15   16 2
    29   15   46 1
    30   16   17 1
    31   16   18 1
    32   18   23 ar
    33   18   19 ar
    34   19   20 ar
    35   19   47 1
    36   20   21 ar
    37   20   48 1
    38   21   22 ar
    39   21   49 1
    40   22   23 ar
    41   22   50 1
    42   23   24 1
    43   24   25 2
    44   24   26 1
    45   27   28 2
    46   27   29 am
    47   29   30 1
    48   29   51 1
    49   30   31 1
    50   30   52 1
    51   30   53 1
    52   31   32 1
    53   31   54 1
    54   31   55 1
    55   32   33 1
    56   32   56 1
    57   32   57 1
    58   33   34 1
    59   33   35 1
    60   33   64 1
    61   34   58 1
    62   34   59 1
    63   34   60 1
    64   35   61 1
    65   35   62 1
    66   35   63 1
@<TRIPOS>MOLECULE
ZINC12732678
   64    66     0     0     0
SMALL
USER_CHARGES

@<TRIPOS>ATOM
      1 C1          1.2076    1.5917    0.2908 C.3       1 <0>        -0.1275
      2 C2          1.1966    0.0861    0.3539 C.ar      1 <0>        -0.0449
      3 C3          2.3112   -0.6283   -0.0490 C.ar      1 <0>        -0.1271
      4 C4          2.3080   -2.0065    0.0062 C.ar      1 <0>        -0.0488
      5 C5          1.1765   -2.6809    0.4700 C.ar      1 <0>        -0.1568
      6 C6          0.0552   -1.9537    0.8750 C.ar      1 <0>        -0.0854
      7 C7          0.0741   -0.5756    0.8199 C.ar      1 <0>        -0.1246
      8 C8          1.1656   -4.1569    0.5315 C.2       1 <0>         0.5536
      9 O1          2.1023   -4.7904    0.0870 O.2       1 <0>        -0.5075
     10 N1          0.1166   -4.8008    1.0805 N.am      1 <0>        -0.6644
     11 C9          0.1496   -6.1436    1.2275 C.2       1 <0>         0.0437
     12 C10         0.0489   -6.7113    2.5046 C.2       1 <0>         0.0026
     13 C11         0.0377   -5.8963    3.6269 C.2       1 <0>        -0.0173
     14 C12         0.0782   -4.4258    3.6370 C.2       1 <0>        -0.1530
     15 C13         0.0492   -4.0522    4.9415 C.2       1 <0>        -0.1666
     16 C14        -0.0072   -5.2333    5.7229 C.2       1 <0>         0.0420
     17 O2         -0.0184   -6.3058    4.9132 O.3       1 <0>        -0.1240
     18 C15        -0.0504   -5.2765    7.1388 C.ar      1 <0>        -0.0274
     19 C16        -0.1534   -4.0845    7.8820 C.ar      1 <0>        -0.0400
     20 C17        -0.1946   -4.1381    9.2462 C.ar      1 <0>        -0.1069
     21 C18        -0.1355   -5.3607    9.8999 C.ar      1 <0>        -0.0413
     22 C19        -0.0336   -6.5409    9.1781 C.ar      1 <0>         0.0060
     23 C20         0.0035   -6.5117    7.8127 C.ar      1 <0>        -0.0394
     24 N2          0.0295   -7.8372    9.8898 N.pl3     1 <0>        -0.0276
     25 O3         -0.1120   -7.8775   11.1985 O.2       1 <0>        -0.1511
     26 O4          0.2270   -8.9504    9.2142 O.3       1 <0>        -0.1593
     27 C21         0.2931   -7.0200    0.0324 C.2       1 <0>         0.5733
     28 O5          0.3376   -8.2257    0.1658 O.2       1 <0>        -0.5218
     29 N3          0.3736   -6.4746   -1.1974 N.am      1 <0>        -0.7230
     30 C22         0.4040   -7.3376   -2.3809 C.3       1 <0>         0.1259
     31 C23         0.4968   -6.4734   -3.6400 C.3       1 <0>        -0.1641
     32 C24         0.5286   -7.3747   -4.8760 C.3       1 <0>        -0.0067
     33 N4          0.6176   -6.5450   -6.0849 N.4       1 <0>        -0.3869
     34 C25         0.7686   -7.4101   -7.2625 C.3       1 <0>        -0.0475
     35 C26        -0.6060   -5.7433   -6.2199 C.3       1 <0>        -0.0533
     36 H1          1.5851    1.9921    1.2317 H         1 <0>         0.0811
     37 H2          1.8514    1.9164   -0.5266 H         1 <0>         0.0734
     38 H3          0.1942    1.9556    0.1216 H         1 <0>         0.0735
     39 H4          3.1855   -0.1055   -0.4078 H         1 <0>         0.1341
     40 H5          3.1784   -2.5628   -0.3089 H         1 <0>         0.1376
     41 H6         -0.8233   -2.4690    1.2344 H         1 <0>         0.1253
     42 H7         -0.7908   -0.0117    1.1369 H         1 <0>         0.1340
     43 H8         -0.6622   -4.3002    1.3702 H         1 <0>         0.4123
     44 H9         -0.0199   -7.7834    2.6151 H         1 <0>         0.1619
     45 H10         0.1226   -3.7734    2.7774 H         1 <0>         0.1644
     46 H11         0.0664   -3.0394    5.3159 H         1 <0>         0.1662
     47 H12        -0.1991   -3.1319    7.3753 H         1 <0>         0.1531
     48 H13        -0.2732   -3.2254    9.8183 H         1 <0>         0.1610
     49 H14        -0.1688   -5.3936   10.9789 H         1 <0>         0.1633
     50 H15         0.0784   -7.4320    7.2526 H         1 <0>         0.1616
     51 H16         0.4113   -5.5106   -1.2990 H         1 <0>         0.4005
     52 H17         1.2706   -7.9965   -2.3278 H         1 <0>         0.0809
     53 H18        -0.5060   -7.9364   -2.4174 H         1 <0>         0.0792
     54 H19        -0.3699   -5.8144   -3.6931 H         1 <0>         0.0931
     55 H20         1.4068   -5.8746   -3.6035 H         1 <0>         0.0958
     56 H21         1.3952   -8.0337   -4.8229 H         1 <0>         0.1368
     57 H22        -0.3815   -7.9735   -4.9125 H         1 <0>         0.1350
     58 H23        -0.0933   -8.0728   -7.3394 H         1 <0>         0.1231
     59 H24         0.8347   -6.7944   -8.1596 H         1 <0>         0.1255
     60 H25         1.6765   -8.0049   -7.1624 H         1 <0>         0.1248
     61 H26        -0.7180   -5.1014   -5.3461 H         1 <0>         0.1229
     62 H27        -0.5399   -5.1277   -7.1169 H         1 <0>         0.1256
     63 H28        -1.4679   -6.4061   -6.2968 H         1 <0>         0.1237
     64 H29         1.4155   -5.9314   -6.0137 H         1 <0>         0.4277
@<TRIPOS>BOND
     1    1    2 1
     2    1   36 1
     3    1   37 1
     4    1   38 1
     5    2    7 ar
     6    2    3 ar
     7    3    4 ar
     8    3   39 1
     9    4    5 ar
    10    4   40 1
    11    5    6 ar
    12    5    8 1
    13    6    7 ar
    14    6   41 1
    15    7   42 1
    16    8    9 2
    17    8   10 am
    18   10   11 1
    19   10   43 1
    20   11   12 2
    21   11   27 1
    22   12   13 1
    23   12   44 1
    24   13   17 1
    25   13   14 2
    26   14   15 1
    27   14   45 1
    28   15   16 2
    29   15   46 1
    30   16   17 1
    31   16   18 1
    32   18   23 ar
    33   18   19 ar
    34   19   20 ar
    35   19   47 1
    36   20   21 ar
    37   20   48 1
    38   21   22 ar
    39   21   49 1
    40   22   23 ar
    41   22   24 1
    42   23   50 1
    43   24   25 2
    44   24   26 1
    45   27   28 2
    46   27   29 am
    47   29   30 1
    48   29   51 1
    49   30   31 1
    50   30   52 1
    51   30   53 1
    52   31   32 1
    53   31   54 1
    54   31   55 1
    55   32   33 1
    56   32   56 1
    57   32   57 1
    58   33   34 1
    59   33   35 1
    60   33   64 1
    61   34   58 1
    62   34   59 1
    63   34   60 1
    64   35   61 1
    65   35   62 1
    66   35   63 1
@<TRIPOS>MOLECULE
ZINC03869685
   32    34     0     0     0
SMALL
USER_CHARGES

@<TRIPOS>ATOM
      1 C1          0.9741   -0.2755   -0.9644 C.ar      1 <0>        -0.0748
      2 C2          2.1569    0.4329   -0.9701 C.ar      1 <0>        -0.1346
      3 C3          2.3856    1.4156   -0.0177 C.ar      1 <0>         0.1032
      4 C4          1.4203    1.6918    0.9495 C.ar      1 <0>         0.0788
      5 C5          0.2328    0.9863    0.9617 C.ar      1 <0>        -0.0762
      6 C6          0.0021   -0.0041    0.0020 C.ar      1 <0>        -0.0447
      7 C7         -1.2637   -0.7605    0.0100 C.2       1 <0>         0.1350
      8 C8         -2.4363   -0.0759    0.1235 C.2       1 <0>        -0.0429
      9 C9         -3.6628   -0.7894    0.1327 C.2       1 <0>         0.4011
     10 O1         -4.7327   -0.2102    0.2323 O.2       1 <0>        -0.4484
     11 C10        -3.5946   -2.2549    0.0170 C.ar      1 <0>        -0.2690
     12 C11        -4.7561   -3.0387    0.0170 C.ar      1 <0>         0.2244
     13 C12        -4.6504   -4.4123   -0.0941 C.ar      1 <0>        -0.2081
     14 C13        -3.3994   -5.0103   -0.2044 C.ar      1 <0>         0.2000
     15 C14        -2.2463   -4.2416   -0.2047 C.ar      1 <0>        -0.1854
     16 C15        -2.3316   -2.8618   -0.0952 C.ar      1 <0>         0.1876
     17 O2         -1.2182   -2.0992   -0.1003 O.3       1 <0>        -0.1970
     18 O3         -3.3070   -6.3605   -0.3125 O.3       1 <0>        -0.4866
     19 O4         -5.9758   -2.4535    0.1257 O.3       1 <0>        -0.4726
     20 O5         -2.4312    1.2810    0.2275 O.3       1 <0>        -0.4502
     21 O6          1.6480    2.6557    1.8815 O.3       1 <0>        -0.4836
     22 O7          3.5534    2.1101   -0.0273 O.3       1 <0>        -0.4861
     23 H1          0.7971   -1.0371   -1.7094 H         1 <0>         0.1379
     24 H2          2.9075    0.2221   -1.7176 H         1 <0>         0.1421
     25 H3         -0.5155    1.1988    1.7108 H         1 <0>         0.1429
     26 H4         -5.5413   -5.0229   -0.0948 H         1 <0>         0.1515
     27 H5         -1.2805   -4.7174   -0.2903 H         1 <0>         0.1559
     28 H6         -3.3257   -6.6843   -1.2235 H         1 <0>         0.4050
     29 H7         -6.3751   -2.2160   -0.7224 H         1 <0>         0.4036
     30 H8         -3.3120    1.6729    0.3033 H         1 <0>         0.4079
     31 H9          1.3508    3.5370    1.6166 H         1 <0>         0.3905
     32 H10         3.5287    2.9137   -0.5647 H         1 <0>         0.3924
@<TRIPOS>BOND
     1    1    6 ar
     2    1    2 ar
     3    1   23 1
     4    2    3 ar
     5    2   24 1
     6    3    4 ar
     7    3   22 1
     8    4    5 ar
     9    4   21 1
    10    5    6 ar
    11    5   25 1
    12    6    7 1
    13    7   17 1
    14    7    8 2
    15    8    9 1
    16    8   20 1
    17    9   10 2
    18    9   11 1
    19   11   16 ar
    20   11   12 ar
    21   12   13 ar
    22   12   19 1
    23   13   14 ar
    24   13   26 1
    25   14   15 ar
    26   14   18 1
    27   15   16 ar
    28   15   27 1
    29   16   17 1
    30   18   28 1
    31   19   29 1
    32   20   30 1
    33   21   31 1
    34   22   32 1
@<TRIPOS>MOLECULE
ZINC03869685
   31    33     0     0     0
SMALL
USER_CHARGES

@<TRIPOS>ATOM
      1 C1          0.1390    1.1246   -0.8120 C.ar      1 <0>        -0.0626
      2 C2          1.3229    1.8301   -0.8179 C.ar      1 <0>        -0.1333
      3 C3          2.3812    1.4233   -0.0172 C.ar      1 <0>         0.0878
      4 C4          2.2522    0.2984    0.7970 C.ar      1 <0>         0.0757
      5 C5          1.0694   -0.4139    0.8086 C.ar      1 <0>        -0.0997
      6 C6          0.0021   -0.0041    0.0020 C.ar      1 <0>        -0.0194
      7 C7         -1.2620   -0.7597    0.0100 C.2       1 <0>         0.1007
      8 C8         -2.4587   -0.0763    0.1245 C.2       1 <0>        -0.0038
      9 C9         -3.6655   -0.7872    0.1324 C.2       1 <0>         0.3349
     10 C10        -3.6167   -2.1939    0.0219 C.2       1 <0>        -0.3331
     11 C11        -4.8018   -2.9593    0.0240 C.2       1 <0>         0.2664
     12 C12        -4.7326   -4.3182   -0.0844 C.2       1 <0>        -0.3749
     13 C13        -3.4871   -4.9570   -0.1979 C.2       1 <0>         0.3648
     14 O1         -3.4307   -6.2860   -0.3033 O.2       1 <0>        -0.6598
     15 C14        -2.3054   -4.2086   -0.2016 C.2       1 <0>        -0.3143
     16 C15        -2.3616   -2.8325   -0.0921 C.2       1 <0>         0.2118
     17 O2         -1.2290   -2.0988   -0.0996 O.3       1 <0>        -0.2018
     18 O3         -6.0073   -2.3463    0.1339 O.3       1 <0>        -0.4482
     19 O4         -4.8484   -0.1420    0.2437 O.3       1 <0>        -0.5747
     20 O5         -2.4638    1.2803    0.2294 O.3       1 <0>        -0.4649
     21 O6          3.2919   -0.0973    1.5794 O.3       1 <0>        -0.4856
     22 O7          3.5458    2.1225   -0.0269 O.3       1 <0>        -0.4881
     23 H1         -0.6843    1.4460   -1.4327 H         1 <0>         0.1397
     24 H2          1.4276    2.7014   -1.4473 H         1 <0>         0.1381
     25 H3          0.9685   -1.2854    1.4384 H         1 <0>         0.1410
     26 H4         -5.6395   -4.9047   -0.0825 H         1 <0>         0.1180
     27 H5         -1.3506   -4.7057   -0.2895 H         1 <0>         0.1230
     28 H6         -6.7597   -2.9537    0.1258 H         1 <0>         0.3847
     29 H7         -3.3475    1.6656    0.3047 H         1 <0>         0.4058
     30 H8          3.2925    0.2977    2.4620 H         1 <0>         0.3855
     31 H9          3.5825    2.8346    0.6263 H         1 <0>         0.3863
@<TRIPOS>BOND
     1    1    6 ar
     2    1    2 ar
     3    1   23 1
     4    2    3 ar
     5    2   24 1
     6    3    4 ar
     7    3   22 1
     8    4    5 ar
     9    4   21 1
    10    5    6 ar
    11    5   25 1
    12    6    7 1
    13    7   17 1
    14    7    8 2
    15    8    9 1
    16    8   20 1
    17    9   10 2
    18    9   19 1
    19   10   16 1
    20   10   11 1
    21   11   12 2
    22   11   18 1
    23   12   13 1
    24   12   26 1
    25   13   14 2
    26   13   15 1
    27   15   16 2
    28   15   27 1
    29   16   17 1
    30   18   28 1
    31   20   29 1
    32   21   30 1
    33   22   31 1
