@<TRIPOS>MOLECULE
ZINC03815700
   43    46     0     0     0
SMALL
USER_CHARGES

@<TRIPOS>ATOM
      1 C1         -0.4417    2.5108    0.1274 C.3       1 <0>        -0.4980
      2 S1         -0.2285    0.7138    0.0013 S.o       1 <0>         1.3317
      3 O1          0.3381    0.2184    1.2066 O.2       1 <0>        -0.8500
      4 C2         -1.8753    0.0872    0.0153 C.ar      1 <0>        -0.4539
      5 C3         -2.4807   -0.2316    1.2179 C.ar      1 <0>        -0.0505
      6 C4         -3.7698   -0.7226    1.2359 C.ar      1 <0>        -0.0905
      7 C5         -4.4635   -0.8973    0.0374 C.ar      1 <0>         0.0183
      8 C6         -3.8471   -0.5733   -1.1722 C.ar      1 <0>        -0.1282
      9 C7         -2.5593   -0.0786   -1.1759 C.ar      1 <0>        -0.0372
     10 C8         -5.8450   -1.4235    0.0492 C.2       1 <0>         0.2539
     11 N1         -6.6187   -1.6414   -1.0552 N.pl3     1 <0>        -0.5494
     12 H1         -6.3641   -1.4808   -1.9773 H         1 <0>         0.4258
     13 C9         -7.8254   -2.1307   -0.6157 C.2       1 <0>         0.0559
     14 C10        -7.7421   -2.1946    0.7659 C.2       1 <0>         0.0600
     15 N2         -6.5217   -1.7612    1.1224 N.2       1 <0>        -0.4460
     16 C11        -8.8052   -2.6624    1.6841 C.ar      1 <0>         0.0397
     17 C12        -9.5683   -3.7960    1.3824 C.ar      1 <0>        -0.1547
     18 C13       -10.5481   -4.1969    2.2660 C.ar      1 <0>         0.1020
     19 N3        -10.7699   -3.5273    3.3814 N.ar      1 <0>        -0.4829
     20 C14       -10.0734   -2.4536    3.7038 C.ar      1 <0>         0.1009
     21 C15        -9.0708   -1.9865    2.8804 C.ar      1 <0>        -0.1469
     22 C16        -8.9814   -2.5126   -1.4503 C.ar      1 <0>        -0.0400
     23 C17       -10.2631   -2.0665   -1.1192 C.ar      1 <0>        -0.0563
     24 C18       -11.3392   -2.4265   -1.9026 C.ar      1 <0>        -0.1471
     25 C19       -11.1511   -3.2299   -3.0163 C.ar      1 <0>         0.1129
     26 C20        -9.8817   -3.6756   -3.3498 C.ar      1 <0>        -0.1491
     27 C21        -8.7972   -3.3169   -2.5775 C.ar      1 <0>        -0.0765
     28 F1        -12.2093   -3.5802   -3.7797 F         1 <0>        -0.1335
     29 H2          0.5355    2.9936    0.1264 H         1 <0>         0.1086
     30 H3         -1.0243    2.8681   -0.7218 H         1 <0>         0.1118
     31 H4         -0.9645    2.7506    1.0533 H         1 <0>         0.0820
     32 H5         -1.9427   -0.0960    2.1446 H         1 <0>         0.1340
     33 H6         -4.2409   -0.9717    2.1752 H         1 <0>         0.1409
     34 H7         -4.3783   -0.7065   -2.1030 H         1 <0>         0.1252
     35 H8         -2.0825    0.1760   -2.1109 H         1 <0>         0.1447
     36 H9         -9.3927   -4.3483    0.4711 H         1 <0>         0.1333
     37 H10       -11.1422   -5.0705    2.0420 H         1 <0>         0.1579
     38 H11       -10.2890   -1.9361    4.6268 H         1 <0>         0.1588
     39 H12        -8.5017   -1.1100    3.1527 H         1 <0>         0.1379
     40 H13       -10.4110   -1.4411   -0.2513 H         1 <0>         0.1357
     41 H14       -12.3306   -2.0822   -1.6477 H         1 <0>         0.1434
     42 H15        -9.7412   -4.3013   -4.2187 H         1 <0>         0.1424
     43 H16        -7.8079   -3.6609   -2.8410 H         1 <0>         0.1331
@<TRIPOS>BOND
     1    1    2 1
     2    1   29 1
     3    1   30 1
     4    1   31 1
     5    2    3 2
     6    2    4 1
     7    4    9 ar
     8    4    5 ar
     9    5    6 ar
    10    5   32 1
    11    6    7 ar
    12    6   33 1
    13    7    8 ar
    14    7   10 1
    15    8    9 ar
    16    8   34 1
    17    9   35 1
    18   10   15 2
    19   10   11 1
    20   11   12 1
    21   11   13 1
    22   13   14 2
    23   13   22 1
    24   14   15 1
    25   14   16 1
    26   16   21 ar
    27   16   17 ar
    28   17   18 ar
    29   17   36 1
    30   18   19 ar
    31   18   37 1
    32   19   20 ar
    33   20   21 ar
    34   20   38 1
    35   21   39 1
    36   22   27 ar
    37   22   23 ar
    38   23   24 ar
    39   23   40 1
    40   24   25 ar
    41   24   41 1
    42   25   26 ar
    43   25   28 1
    44   26   27 ar
    45   26   42 1
    46   27   43 1
@<TRIPOS>MOLECULE
ZINC18274812
   43    46     0     0     0
SMALL
USER_CHARGES

@<TRIPOS>ATOM
      1 C1          0.0458    2.4645   -0.3714 C.3       1 <0>        -0.4977
      2 S1          0.1034    0.6635   -0.1624 S.o       1 <0>         1.3328
      3 O1          0.9995    0.3374    0.8912 O.2       1 <0>        -0.8522
      4 C2          0.9248    0.0922   -1.6127 C.ar      1 <0>        -0.4531
      5 C3          0.1894   -0.2245   -2.7411 C.ar      1 <0>        -0.0385
      6 C4          0.8263   -0.6720   -3.8801 C.ar      1 <0>        -0.0921
      7 C5          2.2157   -0.8050   -3.8925 C.ar      1 <0>         0.0171
      8 C6          2.9515   -0.4838   -2.7508 C.ar      1 <0>        -0.1253
      9 C7          2.3027   -0.0324   -1.6200 C.ar      1 <0>        -0.0497
     10 C8          2.9049   -1.2844   -5.1094 C.2       1 <0>         0.2582
     11 N1          4.2515   -1.4590   -5.2384 N.pl3     1 <0>        -0.5486
     12 H1          4.9216   -1.2936   -4.5568 H         1 <0>         0.4252
     13 C9          4.4814   -1.9147   -6.5171 C.2       1 <0>         0.0337
     14 C10         3.2416   -2.0017   -7.1294 C.2       1 <0>         0.0807
     15 N2          2.3171   -1.6154   -6.2370 N.2       1 <0>        -0.4488
     16 C11         2.9826   -2.4473   -8.5186 C.ar      1 <0>        -0.0206
     17 C12         3.6496   -3.5590   -9.0325 C.ar      1 <0>        -0.0694
     18 C13         3.4051   -3.9700  -10.3265 C.ar      1 <0>        -0.1511
     19 C14         2.4988   -3.2799  -11.1154 C.ar      1 <0>         0.1060
     20 C15         1.8337   -2.1747  -10.6093 C.ar      1 <0>        -0.1526
     21 C16         2.0668   -1.7598   -9.3145 C.ar      1 <0>        -0.0599
     22 F1          2.2634   -3.6856  -12.3824 F         1 <0>        -0.1371
     23 C17         5.7881   -2.2443   -7.1163 C.ar      1 <0>         0.0226
     24 C18         6.1399   -1.7662   -8.3862 C.ar      1 <0>        -0.1423
     25 C19         7.3716   -2.0992   -8.9074 C.ar      1 <0>         0.1081
     26 N3          8.2131   -2.8565   -8.2286 N.ar      1 <0>        -0.4784
     27 C20         7.9224   -3.3278   -7.0303 C.ar      1 <0>         0.1071
     28 C21         6.7158   -3.0398   -6.4296 C.ar      1 <0>        -0.1652
     29 H2          1.0609    2.8540   -0.4489 H         1 <0>         0.0810
     30 H3         -0.5069    2.7075   -1.2790 H         1 <0>         0.1130
     31 H4         -0.4514    2.9143    0.4881 H         1 <0>         0.1088
     32 H5         -0.8856   -0.1215   -2.7301 H         1 <0>         0.1470
     33 H6          0.2512   -0.9192   -4.7602 H         1 <0>         0.1462
     34 H7          4.0268   -0.5845   -2.7539 H         1 <0>         0.1202
     35 H8          2.8713    0.2203   -0.7373 H         1 <0>         0.1322
     36 H9          4.3566   -4.0971   -8.4186 H         1 <0>         0.1287
     37 H10         3.9211   -4.8308  -10.7253 H         1 <0>         0.1387
     38 H11         1.1282   -1.6400  -11.2280 H         1 <0>         0.1401
     39 H12         1.5446   -0.9009   -8.9194 H         1 <0>         0.1377
     40 H13         5.4562   -1.1467   -8.9476 H         1 <0>         0.1400
     41 H14         7.6520   -1.7358   -9.8850 H         1 <0>         0.1626
     42 H15         8.6418   -3.9441   -6.5116 H         1 <0>         0.1610
     43 H16         6.4868   -3.4248   -5.4469 H         1 <0>         0.1340
@<TRIPOS>BOND
     1    1    2 1
     2    1   29 1
     3    1   30 1
     4    1   31 1
     5    2    3 2
     6    2    4 1
     7    4    9 ar
     8    4    5 ar
     9    5    6 ar
    10    5   32 1
    11    6    7 ar
    12    6   33 1
    13    7    8 ar
    14    7   10 1
    15    8    9 ar
    16    8   34 1
    17    9   35 1
    18   10   15 2
    19   10   11 1
    20   11   12 1
    21   11   13 1
    22   13   14 2
    23   13   23 1
    24   14   15 1
    25   14   16 1
    26   16   21 ar
    27   16   17 ar
    28   17   18 ar
    29   17   36 1
    30   18   19 ar
    31   18   37 1
    32   19   20 ar
    33   19   22 1
    34   20   21 ar
    35   20   38 1
    36   21   39 1
    37   23   28 ar
    38   23   24 ar
    39   24   25 ar
    40   24   40 1
    41   25   26 ar
    42   25   41 1
    43   26   27 ar
    44   27   28 ar
    45   27   42 1
    46   28   43 1
@<TRIPOS>MOLECULE
ZINC18274812
   43    46     0     0     0
SMALL
USER_CHARGES

@<TRIPOS>ATOM
      1 C1          0.0761    2.5207   -0.3946 C.3       1 <0>        -0.4977
      2 S1          0.1067    0.7194   -0.1829 S.o       1 <0>         1.3328
      3 O1          0.9925    0.3819    0.8757 O.2       1 <0>        -0.8523
      4 C2          0.9273    0.1342   -1.6283 C.ar      1 <0>        -0.4535
      5 C3          0.1933   -0.1734   -2.7600 C.ar      1 <0>        -0.0382
      6 C4          0.8295   -0.6320   -3.8950 C.ar      1 <0>        -0.0929
      7 C5          2.2169   -0.7850   -3.8999 C.ar      1 <0>         0.0183
      8 C6          2.9514   -0.4724   -2.7550 C.ar      1 <0>        -0.1257
      9 C7          2.3033   -0.0102   -1.6282 C.ar      1 <0>        -0.0496
     10 C8          2.9053   -1.2765   -5.1125 C.2       1 <0>         0.2536
     11 N1          4.2517   -1.4710   -5.2346 N.pl3     1 <0>        -0.5504
     12 H1          4.9205   -1.3136   -4.5499 H         1 <0>         0.4255
     13 C9          4.4817   -1.9314   -6.5089 C.2       1 <0>         0.0556
     14 C10         3.2446   -2.0022   -7.1288 C.2       1 <0>         0.0602
     15 N2          2.3192   -1.6008   -6.2417 N.2       1 <0>        -0.4443
     16 C11         2.9879   -2.4463   -8.5176 C.ar      1 <0>         0.0401
     17 C12         3.6482   -3.5593   -9.0502 C.ar      1 <0>        -0.1549
     18 C13         3.3789   -3.9386  -10.3482 C.ar      1 <0>         0.1021
     19 N3          2.5133   -3.2676  -11.0845 N.ar      1 <0>        -0.4831
     20 C14         1.8693   -2.2129  -10.6212 C.ar      1 <0>         0.1008
     21 C15         2.0741   -1.7682   -9.3321 C.ar      1 <0>        -0.1466
     22 C16         5.7882   -2.2812   -7.1001 C.ar      1 <0>        -0.0406
     23 C17         6.1350   -1.8042   -8.3665 C.ar      1 <0>        -0.0561
     24 C18         7.3568   -2.1344   -8.9137 C.ar      1 <0>        -0.1471
     25 C19         8.2399   -2.9383   -8.2101 C.ar      1 <0>         0.1131
     26 C20         7.9012   -3.4146   -6.9533 C.ar      1 <0>        -0.1492
     27 C21         6.6848   -3.0860   -6.3932 C.ar      1 <0>        -0.0767
     28 F1          9.4352   -3.2593   -8.7516 F         1 <0>        -0.1334
     29 H2          1.0971    2.8954   -0.4674 H         1 <0>         0.0810
     30 H3         -0.4683    2.7703   -1.3054 H         1 <0>         0.1130
     31 H4         -0.4189    2.9788    0.4616 H         1 <0>         0.1087
     32 H5         -0.8802   -0.0546   -2.7549 H         1 <0>         0.1468
     33 H6          0.2554   -0.8725   -4.7775 H         1 <0>         0.1457
     34 H7          4.0251   -0.5889   -2.7522 H         1 <0>         0.1204
     35 H8          2.8708    0.2356   -0.7429 H         1 <0>         0.1321
     36 H9          4.3583   -4.1127   -8.4536 H         1 <0>         0.1329
     37 H10         3.8834   -4.7962  -10.7681 H         1 <0>         0.1577
     38 H11         1.1696   -1.6933  -11.2591 H         1 <0>         0.1590
     39 H12         1.5402   -0.9072   -8.9580 H         1 <0>         0.1385
     40 H13         5.4474   -1.1783   -8.9159 H         1 <0>         0.1360
     41 H14         7.6261   -1.7662   -9.8926 H         1 <0>         0.1436
     42 H15         8.5933   -4.0406   -6.4097 H         1 <0>         0.1423
     43 H16         6.4240   -3.4537   -5.4118 H         1 <0>         0.1327
@<TRIPOS>BOND
     1    1    2 1
     2    1   29 1
     3    1   30 1
     4    1   31 1
     5    2    3 2
     6    2    4 1
     7    4    9 ar
     8    4    5 ar
     9    5    6 ar
    10    5   32 1
    11    6    7 ar
    12    6   33 1
    13    7    8 ar
    14    7   10 1
    15    8    9 ar
    16    8   34 1
    17    9   35 1
    18   10   15 2
    19   10   11 1
    20   11   12 1
    21   11   13 1
    22   13   14 2
    23   13   22 1
    24   14   15 1
    25   14   16 1
    26   16   21 ar
    27   16   17 ar
    28   17   18 ar
    29   17   36 1
    30   18   19 ar
    31   18   37 1
    32   19   20 ar
    33   20   21 ar
    34   20   38 1
    35   21   39 1
    36   22   27 ar
    37   22   23 ar
    38   23   24 ar
    39   23   40 1
    40   24   25 ar
    41   24   41 1
    42   25   26 ar
    43   25   28 1
    44   26   27 ar
    45   26   42 1
    46   27   43 1
@<TRIPOS>MOLECULE
ZINC24044436
   76    80     0     0     0
SMALL
USER_CHARGES
1-[5-tert-butyl-2-(p-tolyl)pyrazol-3-yl]-3-[4-(2-morpholinoethoxy)-1-naphthyl]urea
@<TRIPOS>ATOM
      1 C1          3.3307    9.5387   -0.3298 C.3       1 <0>        -0.1193
      2 C2          2.0898    8.6848   -0.2813 C.ar      1 <0>        -0.0892
      3 C3          0.9612    9.0673   -0.9828 C.ar      1 <0>        -0.0934
      4 C4         -0.1775    8.2868   -0.9403 C.ar      1 <0>        -0.1062
      5 C5         -0.1884    7.1174   -0.1919 C.ar      1 <0>         0.1564
      6 C6          0.9444    6.7392    0.5163 C.ar      1 <0>        -0.1500
      7 C7          2.0821    7.5207    0.4649 C.ar      1 <0>        -0.0924
      8 N1         -1.3424    6.3233   -0.1469 N.pl3     1 <0>        -0.3448
      9 C8         -1.3788    4.9645   -0.0790 C.2       1 <0>         0.3309
     10 C9         -2.6878    4.5925   -0.0483 C.2       1 <0>        -0.2629
     11 C10        -3.4651    5.7529   -0.1047 C.2       1 <0>         0.1115
     12 N2         -2.6643    6.7861   -0.1672 N.2       1 <0>        -0.2779
     13 C11        -4.9712    5.8052   -0.0954 C.3       1 <0>         0.0134
     14 C12        -5.4824    5.5257    1.3193 C.3       1 <0>        -0.1388
     15 C13        -5.4360    7.1933   -0.5406 C.3       1 <0>        -0.1390
     16 C14        -5.5242    4.7499   -1.0553 C.3       1 <0>        -0.1399
     17 N3         -0.2771    4.1104   -0.0417 N.am      1 <0>        -0.6731
     18 C15        -0.4603    2.7771    0.0314 C.2       1 <0>         0.7165
     19 O1         -1.5862    2.3190    0.0649 O.2       1 <0>        -0.5445
     20 N4          0.6045    1.9516    0.0675 N.am      1 <0>        -0.6819
     21 C16         0.4162    0.5655    0.0407 C.ar      1 <0>         0.1254
     22 C17        -0.6813    0.0024    0.6542 C.ar      1 <0>        -0.0743
     23 C18        -0.8835   -1.3742    0.6299 C.ar      1 <0>        -0.2061
     24 C19         0.0048   -2.2051    0.0082 C.ar      1 <0>         0.1395
     25 C20         1.1426   -1.6672   -0.6254 C.ar      1 <0>        -0.0565
     26 C21         1.3517   -0.2661   -0.6096 C.ar      1 <0>        -0.0251
     27 C22         2.4862    0.2686   -1.2409 C.ar      1 <0>        -0.1232
     28 C23         3.3687   -0.5639   -1.8588 C.ar      1 <0>        -0.0971
     29 C24         3.1636   -1.9422   -1.8742 C.ar      1 <0>        -0.1313
     30 C25         2.0750   -2.4951   -1.2724 C.ar      1 <0>        -0.0739
     31 O2         -0.2080   -3.5475    0.0012 O.3       1 <0>        -0.2916
     32 C26        -1.3823   -4.0216    0.6634 C.3       1 <0>         0.0605
     33 C27        -1.4510   -5.5459    0.5508 C.3       1 <0>         0.0539
     34 N5         -0.3065   -6.1409    1.2538 N.3       1 <0>        -0.5287
     35 C28        -0.1978   -7.5776    0.9617 C.3       1 <0>         0.0167
     36 C29         1.0390   -8.1436    1.6645 C.3       1 <0>         0.0615
     37 O3          0.9456   -7.8818    3.0674 O.3       1 <0>        -0.3849
     38 C30         0.8389   -6.4921    3.3879 C.3       1 <0>         0.0625
     39 C31        -0.3999   -5.9094    2.7026 C.3       1 <0>         0.0120
     40 H1          3.1476   10.4156   -0.9682 H         1 <0>         0.0687
     41 H2          4.1639    8.9515   -0.7434 H         1 <0>         0.0732
     42 H3          3.5863    9.8722    0.6868 H         1 <0>         0.0734
     43 H4          0.9703    9.9770   -1.5648 H         1 <0>         0.1335
     44 H5         -1.0587    8.5861   -1.4884 H         1 <0>         0.1355
     45 H6          0.9374    5.8324    1.1029 H         1 <0>         0.1262
     46 H7          2.9651    7.2245    1.0118 H         1 <0>         0.1343
     47 H8         -3.0598    3.5802    0.0092 H         1 <0>         0.1784
     48 H9         -6.5817    5.5639    1.3261 H         1 <0>         0.0656
     49 H10        -5.0849    6.2845    2.0094 H         1 <0>         0.0565
     50 H11        -5.1481    4.5278    1.6395 H         1 <0>         0.0614
     51 H12        -6.5353    7.2315   -0.5338 H         1 <0>         0.0604
     52 H13        -5.0684    7.3943   -1.5577 H         1 <0>         0.0568
     53 H14        -5.0385    7.9519    0.1496 H         1 <0>         0.0614
     54 H15        -6.6235    4.7882   -1.0484 H         1 <0>         0.0647
     55 H16        -5.1900    3.7520   -0.7351 H         1 <0>         0.0637
     56 H17        -5.1566    4.9509   -2.0724 H         1 <0>         0.0570
     57 H18         0.7414    4.5248   -0.0719 H         1 <0>         0.4294
     58 H19         1.6215    2.3677    0.1180 H         1 <0>         0.4280
     59 H20        -1.3959    0.6376    1.1566 H         1 <0>         0.1450
     60 H21        -1.7537   -1.7925    1.1139 H         1 <0>         0.1296
     61 H22         2.6580    1.3348   -1.2361 H         1 <0>         0.1222
     62 H23         4.2405   -0.1501   -2.3437 H         1 <0>         0.1243
     63 H24         3.8790   -2.5810   -2.3706 H         1 <0>         0.1250
     64 H25         1.9286   -3.5650   -1.2926 H         1 <0>         0.1353
     65 H26        -1.3465   -3.7335    1.7244 H         1 <0>         0.0659
     66 H27        -2.2726   -3.5787    0.1931 H         1 <0>         0.0716
     67 H28        -2.3868   -5.9052    1.0039 H         1 <0>         0.0605
     68 H29        -1.4216   -5.8370   -0.5096 H         1 <0>         0.0912
     69 H30        -1.0977   -8.0949    1.3258 H         1 <0>         0.0437
     70 H31        -0.1044   -7.7249   -0.1244 H         1 <0>         0.0891
     71 H32         1.0925   -9.2291    1.4949 H         1 <0>         0.1001
     72 H33         1.9424   -7.6643    1.2595 H         1 <0>         0.0618
     73 H34         0.7475   -6.3731    4.4776 H         1 <0>         0.0994
     74 H35         1.7375   -5.9645    3.0355 H         1 <0>         0.0616
     75 H36        -0.4553   -4.8284    2.8983 H         1 <0>         0.0869
     76 H37        -1.3031   -6.3997    3.0948 H         1 <0>         0.0443
@<TRIPOS>BOND
     1    1    2 1
     2    1   40 1
     3    1   41 1
     4    1   42 1
     5    2    7 ar
     6    2    3 ar
     7    3    4 ar
     8    3   43 1
     9    4    5 ar
    10    4   44 1
    11    5    6 ar
    12    5    8 1
    13    6    7 ar
    14    6   45 1
    15    7   46 1
    16    8   12 1
    17    8    9 1
    18    9   10 2
    19    9   17 1
    20   10   11 1
    21   10   47 1
    22   11   12 2
    23   11   13 1
    24   13   14 1
    25   13   15 1
    26   13   16 1
    27   14   48 1
    28   14   49 1
    29   14   50 1
    30   15   51 1
    31   15   52 1
    32   15   53 1
    33   16   54 1
    34   16   55 1
    35   16   56 1
    36   17   18 am
    37   17   57 1
    38   18   19 2
    39   18   20 am
    40   20   21 1
    41   20   58 1
    42   21   26 ar
    43   21   22 ar
    44   22   23 ar
    45   22   59 1
    46   23   24 ar
    47   23   60 1
    48   24   25 ar
    49   24   31 1
    50   25   30 ar
    51   25   26 ar
    52   26   27 ar
    53   27   28 ar
    54   27   61 1
    55   28   29 ar
    56   28   62 1
    57   29   30 ar
    58   29   63 1
    59   30   64 1
    60   31   32 1
    61   32   33 1
    62   32   65 1
    63   32   66 1
    64   33   34 1
    65   33   67 1
    66   33   68 1
    67   34   39 1
    68   34   35 1
    69   35   36 1
    70   35   69 1
    71   35   70 1
    72   36   37 1
    73   36   71 1
    74   36   72 1
    75   37   38 1
    76   38   39 1
    77   38   73 1
    78   38   74 1
    79   39   75 1
    80   39   76 1
@<TRIPOS>MOLECULE
ZINC01489691
   39    41     0     0     0
SMALL
USER_CHARGES
2-(2-chloro-4-iodo-phenyl)amino-N-(cyclopropylmethoxy)-3,4-difluoro-benzamide
@<TRIPOS>ATOM
      1 C1          7.5301   -6.0664    2.0665 C.ar      1 <0>        -0.0309
      2 C2          6.2573   -5.5404    1.9576 C.ar      1 <0>        -0.1758
      3 C3          5.9995   -4.2515    2.4051 C.ar      1 <0>         0.2608
      4 C4          7.0254   -3.4920    2.9565 C.ar      1 <0>        -0.0926
      5 C5          8.2948   -4.0260    3.0673 C.ar      1 <0>        -0.0287
      6 C6          8.5477   -5.3108    2.6201 C.ar      1 <0>        -0.1420
      7 I1         10.4759   -6.1135    2.7827 I         1 <0>        -0.0344
      8 Cl1         6.7101   -1.8774    3.5111 Cl        1 <0>        -0.0563
      9 N1          4.7124   -3.7165    2.2963 N.pl3     1 <0>        -0.6767
     10 C7          3.6613   -4.5165    1.8612 C.ar      1 <0>         0.1959
     11 C8          3.4265   -4.6874    0.4874 C.ar      1 <0>        -0.1130
     12 C9          2.3705   -5.4986    0.0620 C.ar      1 <0>        -0.0636
     13 C10         1.5642   -6.1206    0.9885 C.ar      1 <0>        -0.1216
     14 C11         1.7938   -5.9474    2.3469 C.ar      1 <0>         0.1065
     15 C12         2.8351   -5.1470    2.7838 C.ar      1 <0>         0.0674
     16 F1          3.0515   -4.9828    4.1072 F         1 <0>        -0.1087
     17 F2          0.9963   -6.5631    3.2470 F         1 <0>        -0.1136
     18 C13         4.2922   -4.0203   -0.5005 C.2       1 <0>         0.5700
     19 O1          5.1439   -3.2348   -0.1305 O.2       1 <0>        -0.4840
     20 N2          4.1403   -4.2803   -1.8142 N.am      1 <0>        -0.5952
     21 O2          4.9724   -3.6391   -2.7636 O.3       1 <0>        -0.1294
     22 C14         4.7012   -4.0081   -4.1173 C.3       1 <0>         0.0626
     23 C15         5.6542   -3.2589   -5.0508 C.3       1 <0>        -0.1552
     24 C16         5.0390   -2.2701   -6.0432 C.3       1 <0>        -0.1733
     25 C17         5.6009   -3.6043   -6.5403 C.3       1 <0>        -0.1653
     26 H1          7.7309   -7.0689    1.7185 H         1 <0>         0.1353
     27 H2          5.4637   -6.1310    1.5245 H         1 <0>         0.1307
     28 H3          9.0916   -3.4383    3.4988 H         1 <0>         0.1412
     29 H4          4.5526   -2.7873    2.5243 H         1 <0>         0.4221
     30 H5          2.1874   -5.6376   -0.9933 H         1 <0>         0.1494
     31 H6          0.7490   -6.7467    0.6570 H         1 <0>         0.1622
     32 H7          3.4611   -4.9068   -2.1092 H         1 <0>         0.4049
     33 H8          3.6718   -3.7494   -4.3651 H         1 <0>         0.0650
     34 H9          4.8449   -5.0819   -4.2369 H         1 <0>         0.0683
     35 H10         6.6264   -3.0073   -4.6270 H         1 <0>         0.1189
     36 H11         3.9553   -2.1533   -6.0309 H         1 <0>         0.0975
     37 H12         5.6066   -1.3683   -6.2725 H         1 <0>         0.1006
     38 H13         6.5379   -3.5797   -7.0966 H         1 <0>         0.1032
     39 H14         4.8872   -4.3657   -6.8552 H         1 <0>         0.0980
@<TRIPOS>BOND
     1    1    6 ar
     2    1    2 ar
     3    1   26 1
     4    2    3 ar
     5    2   27 1
     6    3    4 ar
     7    3    9 1
     8    4    5 ar
     9    4    8 1
    10    5    6 ar
    11    5   28 1
    12    6    7 1
    13    9   10 1
    14    9   29 1
    15   10   15 ar
    16   10   11 ar
    17   11   12 ar
    18   11   18 1
    19   12   13 ar
    20   12   30 1
    21   13   14 ar
    22   13   31 1
    23   14   15 ar
    24   14   17 1
    25   15   16 1
    26   18   19 2
    27   18   20 am
    28   20   21 1
    29   20   32 1
    30   21   22 1
    31   22   23 1
    32   22   33 1
    33   22   34 1
    34   23   25 1
    35   23   24 1
    36   23   35 1
    37   24   25 1
    38   24   36 1
    39   24   37 1
    40   25   38 1
    41   25   39 1
@<TRIPOS>MOLECULE
ZINC01493878
   48    50     0     0     0
SMALL
USER_CHARGES

@<TRIPOS>ATOM
      1 C1         -1.0955   -5.0083   -6.9234 C.3       1 <0>         0.0847
      2 N1         -1.5520   -4.3038   -5.7228 N.am      1 <0>        -0.7137
      3 C2         -1.8827   -5.0004   -4.6175 C.2       1 <0>         0.5696
      4 O1         -1.8023   -6.2129   -4.6168 O.2       1 <0>        -0.5284
      5 C3         -2.3445   -4.2878   -3.4031 C.ar      1 <0>         0.1129
      6 C4         -2.6788   -5.0128   -2.2640 C.ar      1 <0>        -0.1883
      7 C5         -3.1110   -4.3279   -1.1310 C.ar      1 <0>         0.1595
      8 C6         -3.1903   -2.9389   -1.1877 C.ar      1 <0>        -0.1766
      9 C7         -2.8404   -2.2885   -2.3571 C.ar      1 <0>         0.1349
     10 N2         -2.4302   -2.9626   -3.4105 N.ar      1 <0>        -0.4815
     11 O2         -3.4471   -4.9979    0.0005 O.3       1 <0>        -0.2437
     12 C8         -3.4462   -6.3570   -0.0383 C.ar      1 <0>         0.0568
     13 C9         -2.2447   -7.0505   -0.0178 C.ar      1 <0>        -0.1074
     14 C10        -2.2431   -8.4307   -0.0577 C.ar      1 <0>        -0.1009
     15 C11        -3.4442   -9.1246   -0.1179 C.ar      1 <0>         0.1671
     16 C12        -4.6464   -8.4301   -0.1379 C.ar      1 <0>        -0.1272
     17 C13        -4.6469   -7.0500   -0.0928 C.ar      1 <0>        -0.0940
     18 N3         -3.4432  -10.5252   -0.1588 N.am      1 <0>        -0.6776
     19 C14        -2.5108  -11.2187    0.5239 C.2       1 <0>         0.7077
     20 O3         -1.6217  -10.6297    1.1080 O.2       1 <0>        -0.5493
     21 N4         -2.5639  -12.5649    0.5593 N.am      1 <0>        -0.6795
     22 C15        -1.6655  -13.2800    1.3600 C.ar      1 <0>         0.1700
     23 C16        -1.2529  -12.7583    2.5792 C.ar      1 <0>        -0.0742
     24 C17        -0.3670  -13.4659    3.3674 C.ar      1 <0>        -0.0871
     25 C18         0.1097  -14.6941    2.9434 C.ar      1 <0>        -0.0077
     26 C19        -0.2993  -15.2159    1.7290 C.ar      1 <0>        -0.1564
     27 C20        -1.1898  -14.5147    0.9394 C.ar      1 <0>        -0.0879
     28 C21         0.2222  -16.5533    1.2702 C.3       1 <0>         0.5112
     29 F1         -0.3299  -16.8663    0.0234 F         1 <0>        -0.1743
     30 F2          1.6160  -16.4983    1.1626 F         1 <0>        -0.1671
     31 F3         -0.1354  -17.5367    2.1987 F         1 <0>        -0.1677
     32 Cl1         1.2234  -15.5812    3.9366 Cl        1 <0>        -0.0394
     33 H1         -0.8760   -4.2843   -7.7081 H         1 <0>         0.0803
     34 H2         -0.1948   -5.5764   -6.6909 H         1 <0>         0.0631
     35 H3         -1.8761   -5.6883   -7.2645 H         1 <0>         0.0629
     36 H4         -1.6162   -3.3359   -5.7233 H         1 <0>         0.4141
     37 H5         -2.6047   -6.0902   -2.2584 H         1 <0>         0.1546
     38 H6         -3.5217   -2.3755   -0.3280 H         1 <0>         0.1523
     39 H7         -2.9005   -1.2112   -2.4052 H         1 <0>         0.1747
     40 H8         -1.3104   -6.5106    0.0290 H         1 <0>         0.1364
     41 H9         -1.3078   -8.9704   -0.0424 H         1 <0>         0.1514
     42 H10        -5.5809   -8.9693   -0.1851 H         1 <0>         0.1386
     43 H11        -5.5820   -6.5098   -0.1039 H         1 <0>         0.1400
     44 H12        -4.1137  -10.9957   -0.6785 H         1 <0>         0.4131
     45 H13        -3.2246  -13.0383    0.0299 H         1 <0>         0.4146
     46 H14        -1.6244  -11.7997    2.9103 H         1 <0>         0.1546
     47 H15        -0.0456  -13.0604    4.3154 H         1 <0>         0.1524
     48 H16        -1.5123  -14.9245   -0.0064 H         1 <0>         0.1525
@<TRIPOS>BOND
     1    1    2 1
     2    1   33 1
     3    1   34 1
     4    1   35 1
     5    2    3 am
     6    2   36 1
     7    3    4 2
     8    3    5 1
     9    5   10 ar
    10    5    6 ar
    11    6    7 ar
    12    6   37 1
    13    7    8 ar
    14    7   11 1
    15    8    9 ar
    16    8   38 1
    17    9   10 ar
    18    9   39 1
    19   11   12 1
    20   12   17 ar
    21   12   13 ar
    22   13   14 ar
    23   13   40 1
    24   14   15 ar
    25   14   41 1
    26   15   16 ar
    27   15   18 1
    28   16   17 ar
    29   16   42 1
    30   17   43 1
    31   18   19 am
    32   18   44 1
    33   19   20 2
    34   19   21 am
    35   21   22 1
    36   21   45 1
    37   22   27 ar
    38   22   23 ar
    39   23   24 ar
    40   23   46 1
    41   24   25 ar
    42   24   47 1
    43   25   26 ar
    44   25   32 1
    45   26   27 ar
    46   26   28 1
    47   27   48 1
    48   28   29 1
    49   28   30 1
    50   28   31 1
@<TRIPOS>MOLECULE
ZINC21982951
   60    63     0     0     0
SMALL
USER_CHARGES

@<TRIPOS>ATOM
      1 C1         -2.0700    1.6928    0.2333 C.3       1 <0>        -0.1170
      2 C2         -1.6482    0.2604    0.0301 C.ar      1 <0>        -0.0813
      3 C3         -1.8479   -0.3525   -1.1919 C.ar      1 <0>        -0.1034
      4 C4         -1.4615   -1.6665   -1.3798 C.ar      1 <0>        -0.0990
      5 C5         -0.8738   -2.3725   -0.3459 C.ar      1 <0>        -0.1046
      6 C6         -0.6714   -1.7660    0.8791 C.ar      1 <0>        -0.0220
      7 C7         -1.0534   -0.4428    1.0688 C.ar      1 <0>         0.1347
      8 N1         -0.8441    0.1769    2.3055 N.am      1 <0>        -0.6659
      9 C8         -1.2819   -0.4110    3.4365 C.2       1 <0>         0.6018
     10 O1         -1.7689   -1.5261    3.3939 O.2       1 <0>        -0.4722
     11 C9         -1.1720    0.2905    4.7149 C.2       1 <0>        -0.2635
     12 C10        -1.5472   -0.1201    5.9866 C.2       1 <0>         0.1512
     13 N2         -1.3262    0.7270    6.9599 N.2       1 <0>        -0.5510
     14 C11        -0.7756    1.9070    6.7361 C.2       1 <0>         0.2513
     15 S1         -0.5107    1.9100    5.0742 S.3       1 <0>         0.2445
     16 N3         -0.4817    2.8997    7.6498 N.pl3     1 <0>        -0.5870
     17 C12        -0.6908    2.6801    9.0050 C.ar      1 <0>         0.4543
     18 C13        -1.0534    1.4192    9.4679 C.ar      1 <0>        -0.2926
     19 C14        -1.2512    1.2508   10.8352 C.ar      1 <0>         0.4935
     20 N4         -1.0875    2.2952   11.6453 N.ar      1 <0>        -0.5328
     21 C15        -0.7435    3.4737   11.1677 C.ar      1 <0>         0.4541
     22 N5         -0.5417    3.6719    9.8809 N.ar      1 <0>        -0.5672
     23 C16        -0.5694    4.6273   12.1217 C.3       1 <0>        -0.1251
     24 N6         -1.6138    0.0143   11.3464 N.pl3     1 <0>        -0.5370
     25 C17        -2.0559   -0.1253   12.7422 C.3       1 <0>         0.1090
     26 C18        -3.3866   -0.8852   12.7576 C.3       1 <0>         0.0383
     27 N7         -3.2335   -2.1493   12.0251 N.3       1 <0>        -0.5289
     28 C19        -2.9165   -1.9105   10.6107 C.3       1 <0>         0.0343
     29 C20        -1.5725   -1.1917   10.5056 C.3       1 <0>         0.1057
     30 C21        -4.4334   -2.9856   12.1619 C.3       1 <0>         0.0545
     31 C22        -4.1483   -4.3816   11.6043 C.3       1 <0>         0.0776
     32 O2         -3.1500   -5.0191   12.4038 O.3       1 <0>        -0.5606
     33 Cl1         0.0658   -2.6526    2.1768 Cl        1 <0>        -0.0453
     34 H1         -1.2464    2.3553   -0.0328 H         1 <0>         0.0773
     35 H2         -2.9308    1.9112   -0.3987 H         1 <0>         0.0785
     36 H3         -2.3379    1.8478    1.2784 H         1 <0>         0.0640
     37 H4         -2.3069    0.1956   -2.0014 H         1 <0>         0.1372
     38 H5         -1.6193   -2.1430   -2.3361 H         1 <0>         0.1391
     39 H6         -0.5731   -3.3989   -0.4959 H         1 <0>         0.1403
     40 H7         -0.3838    1.0296    2.3489 H         1 <0>         0.4083
     41 H8         -1.9972   -1.0858    6.1634 H         1 <0>         0.2027
     42 H9         -0.1293    3.7505    7.3451 H         1 <0>         0.4460
     43 H10        -1.1784    0.5927    8.7841 H         1 <0>         0.2218
     44 H11         0.4644    4.6619   12.4652 H         1 <0>         0.1245
     45 H12        -0.8146    5.5596   11.6130 H         1 <0>         0.1071
     46 H13        -1.2322    4.4948   12.9768 H         1 <0>         0.1273
     47 H14        -1.3096   -0.6823   13.3087 H         1 <0>         0.0989
     48 H15        -2.1929    0.8619   13.1834 H         1 <0>         0.1094
     49 H16        -3.6740   -1.0944   13.7880 H         1 <0>         0.1036
     50 H17        -4.1569   -0.2794   12.2806 H         1 <0>         0.0428
     51 H18        -2.8631   -2.8634   10.0841 H         1 <0>         0.1043
     52 H19        -3.6935   -1.2904   10.1636 H         1 <0>         0.0450
     53 H20        -1.3900   -0.9091    9.4688 H         1 <0>         0.1029
     54 H21        -0.7788   -1.8532   10.8529 H         1 <0>         0.1042
     55 H22        -4.7041   -3.0633   13.2149 H         1 <0>         0.0912
     56 H23        -5.2561   -2.5340   11.6075 H         1 <0>         0.0533
     57 H24        -5.0627   -4.9745   11.6240 H         1 <0>         0.0547
     58 H25        -3.7921   -4.2970   10.5776 H         1 <0>         0.0454
     59 H26        -2.9188   -5.9101   12.1076 H         1 <0>         0.3805
     60 H27        -0.2852    4.5531    9.5669 H         1 <0>         0.4414
@<TRIPOS>BOND
     1    1    2 1
     2    1   34 1
     3    1   35 1
     4    1   36 1
     5    2    7 ar
     6    2    3 ar
     7    3    4 ar
     8    3   37 1
     9    4    5 ar
    10    4   38 1
    11    5    6 ar
    12    5   39 1
    13    6    7 ar
    14    6   33 1
    15    7    8 1
    16    8    9 am
    17    8   40 1
    18    9   10 2
    19    9   11 1
    20   11   15 1
    21   11   12 2
    22   12   13 1
    23   12   41 1
    24   13   14 2
    25   14   15 1
    26   14   16 1
    27   16   17 1
    28   16   42 1
    29   17   22 ar
    30   17   18 ar
    31   18   19 ar
    32   18   43 1
    33   19   20 ar
    34   19   24 1
    35   20   21 ar
    36   21   22 ar
    37   21   23 1
    38   22   60 1
    39   23   44 1
    40   23   45 1
    41   23   46 1
    42   24   29 1
    43   24   25 1
    44   25   26 1
    45   25   47 1
    46   25   48 1
    47   26   27 1
    48   26   49 1
    49   26   50 1
    50   27   28 1
    51   27   30 1
    52   28   29 1
    53   28   51 1
    54   28   52 1
    55   29   53 1
    56   29   54 1
    57   30   31 1
    58   30   55 1
    59   30   56 1
    60   31   32 1
    61   31   57 1
    62   31   58 1
    63   32   59 1
@<TRIPOS>MOLECULE
ZINC21982951
   60    63     0     0     0
SMALL
USER_CHARGES

@<TRIPOS>ATOM
      1 C1          3.2739    6.6585    1.8418 C.3       1 <0>        -0.1168
      2 C2          2.5810    7.9910    1.9663 C.ar      1 <0>        -0.0823
      3 C3          2.8983    9.0189    1.0995 C.ar      1 <0>        -0.1038
      4 C4          2.2635   10.2419    1.2126 C.ar      1 <0>        -0.1008
      5 C5          1.3088   10.4411    2.1933 C.ar      1 <0>        -0.1049
      6 C6          0.9869    9.4175    3.0639 C.ar      1 <0>        -0.0226
      7 C7          1.6192    8.1849    2.9486 C.ar      1 <0>         0.1373
      8 N1          1.2913    7.1440    3.8238 N.am      1 <0>        -0.6678
      9 C8          1.3128    7.3511    5.1554 C.2       1 <0>         0.6036
     10 O1          1.5184    8.4680    5.5945 O.2       1 <0>        -0.4759
     11 C9          1.0891    6.2346    6.0728 C.2       1 <0>        -0.2694
     12 C10         1.0619    6.2190    7.4604 C.2       1 <0>         0.1522
     13 N2          0.8357    5.0596    8.0247 N.2       1 <0>        -0.5060
     14 C11         0.6446    3.9678    7.3056 C.2       1 <0>         0.2464
     15 S1          0.7674    4.5141    5.7185 S.3       1 <0>         0.2029
     16 N3          0.3973    2.6842    7.7505 N.pl3     1 <0>        -0.5650
     17 C12         0.2197    2.4414    9.1063 C.ar      1 <0>         0.4999
     18 C13        -0.1342    1.1736    9.5555 C.ar      1 <0>        -0.3181
     19 C14        -0.3003    0.9817   10.9244 C.ar      1 <0>         0.4940
     20 N4         -0.1157    2.0114   11.7481 N.ar      1 <0>        -0.5712
     21 C15         0.2193    3.1978   11.2829 C.ar      1 <0>         0.4509
     22 N5          0.3911    3.4178    9.9956 N.ar      1 <0>        -0.4879
     23 C16         0.4179    4.3344   12.2523 C.3       1 <0>        -0.1253
     24 N6         -0.6531   -0.2629   11.4224 N.pl3     1 <0>        -0.5744
     25 C17        -0.9639   -0.4449   12.8484 C.3       1 <0>         0.1013
     26 C18        -2.3114   -1.1652   12.9649 C.3       1 <0>         0.0387
     27 N7         -2.2712   -2.4031   12.1749 N.3       1 <0>        -0.5277
     28 C19        -2.0835   -2.1176   10.7462 C.3       1 <0>         0.0305
     29 C20        -0.7325   -1.4351   10.5377 C.3       1 <0>         0.1149
     30 C21        -3.4796   -3.2085   12.3965 C.3       1 <0>         0.0543
     31 C22        -3.2958   -4.5889   11.7629 C.3       1 <0>         0.0774
     32 O2         -2.2472   -5.2869   12.4378 O.3       1 <0>        -0.5615
     33 Cl1        -0.2110    9.6681    4.2952 Cl        1 <0>        -0.0453
     34 H1          2.7121    6.0191    1.1609 H         1 <0>         0.0767
     35 H2          4.2810    6.8077    1.4524 H         1 <0>         0.0779
     36 H3          3.3298    6.1850    2.8220 H         1 <0>         0.0648
     37 H4          3.6435    8.8670    0.3327 H         1 <0>         0.1365
     38 H5          2.5139   11.0437    0.5337 H         1 <0>         0.1383
     39 H6          0.8148   11.3976    2.2790 H         1 <0>         0.1396
     40 H7          1.0484    6.2731    3.4723 H         1 <0>         0.4083
     41 H8          1.2191    7.1147    8.0430 H         1 <0>         0.1979
     42 H9          0.3477    1.9521    7.1161 H         1 <0>         0.4525
     43 H10        -0.2767    0.3593    8.8606 H         1 <0>         0.1835
     44 H11         1.4596    4.3615   12.5720 H         1 <0>         0.1250
     45 H12         0.1626    5.2758   11.7656 H         1 <0>         0.1301
     46 H13        -0.2249    4.1881   13.1203 H         1 <0>         0.1049
     47 H14        -0.1857   -1.0458   13.3190 H         1 <0>         0.1119
     48 H15        -1.0251    0.5276   13.3369 H         1 <0>         0.0843
     49 H16        -2.5057   -1.4068   14.0099 H         1 <0>         0.1076
     50 H17        -3.1034   -0.5184   12.5874 H         1 <0>         0.0465
     51 H18        -2.1124   -3.0499   10.1822 H         1 <0>         0.1076
     52 H19        -2.8786   -1.4576   10.3996 H         1 <0>         0.0467
     53 H20        -0.6409   -1.1170    9.4992 H         1 <0>         0.1034
     54 H21         0.0684   -2.1330   10.7819 H         1 <0>         0.1075
     55 H22        -3.6507   -3.3200   13.4672 H         1 <0>         0.0925
     56 H23        -4.3362   -2.7111   11.9416 H         1 <0>         0.0553
     57 H24        -4.2233   -5.1548   11.8494 H         1 <0>         0.0565
     58 H25        -3.0370   -4.4741   10.7103 H         1 <0>         0.0456
     59 H26        -2.0752   -6.1719   12.0881 H         1 <0>         0.3821
     60 H27        -0.2297    1.8867   12.7033 H         1 <0>         0.4392
@<TRIPOS>BOND
     1    1    2 1
     2    1   34 1
     3    1   35 1
     4    1   36 1
     5    2    7 ar
     6    2    3 ar
     7    3    4 ar
     8    3   37 1
     9    4    5 ar
    10    4   38 1
    11    5    6 ar
    12    5   39 1
    13    6    7 ar
    14    6   33 1
    15    7    8 1
    16    8    9 am
    17    8   40 1
    18    9   10 2
    19    9   11 1
    20   11   15 1
    21   11   12 2
    22   12   13 1
    23   12   41 1
    24   13   14 2
    25   14   15 1
    26   14   16 1
    27   16   17 1
    28   16   42 1
    29   17   18 ar
    30   17   22 ar
    31   18   43 1
    32   18   19 ar
    33   19   24 1
    34   19   20 ar
    35   20   60 1
    36   20   21 ar
    37   21   23 1
    38   21   22 ar
    39   23   44 1
    40   23   45 1
    41   23   46 1
    42   24   29 1
    43   24   25 1
    44   25   26 1
    45   25   47 1
    46   25   48 1
    47   26   27 1
    48   26   49 1
    49   26   50 1
    50   27   28 1
    51   27   30 1
    52   28   29 1
    53   28   51 1
    54   28   52 1
    55   29   53 1
    56   29   54 1
    57   30   31 1
    58   30   55 1
    59   30   56 1
    60   31   32 1
    61   31   57 1
    62   31   58 1
    63   32   59 1
@<TRIPOS>MOLECULE
ZINC21982951
   59    62     0     0     0
SMALL
USER_CHARGES

@<TRIPOS>ATOM
      1 C1          3.4106    6.6420    1.8847 C.3       1 <0>        -0.1165
      2 C2          2.6976    7.9659    1.9845 C.ar      1 <0>        -0.0852
      3 C3          3.0204    8.9921    1.1176 C.ar      1 <0>        -0.1055
      4 C4          2.3672   10.2073    1.2080 C.ar      1 <0>        -0.1070
      5 C5          1.3885   10.4004    2.1660 C.ar      1 <0>        -0.1064
      6 C6          1.0609    9.3785    3.0365 C.ar      1 <0>        -0.0243
      7 C7          1.7118    8.1536    2.9438 C.ar      1 <0>         0.1460
      8 N1          1.3783    7.1144    3.8189 N.am      1 <0>        -0.6734
      9 C8          1.3676    7.3308    5.1492 C.2       1 <0>         0.6131
     10 O1          1.5489    8.4533    5.5848 O.2       1 <0>        -0.4899
     11 C9          1.1384    6.2176    6.0693 C.2       1 <0>        -0.3092
     12 C10         1.0807    6.2111    7.4561 C.2       1 <0>         0.1722
     13 N2          0.8573    5.0526    8.0233 N.2       1 <0>        -0.5180
     14 C11         0.6966    3.9535    7.3079 C.2       1 <0>         0.3121
     15 S1          0.8472    4.4907    5.7202 S.3       1 <0>         0.1340
     16 N3          0.4564    2.6698    7.7563 N.pl3     1 <0>        -0.5904
     17 C12         0.2490    2.4343    9.1091 C.ar      1 <0>         0.4412
     18 C13        -0.1036    1.1661    9.5586 C.ar      1 <0>        -0.3412
     19 C14        -0.3003    0.9817   10.9244 C.ar      1 <0>         0.4686
     20 N4         -0.1450    2.0186   11.7452 N.ar      1 <0>        -0.5923
     21 C15         0.1898    3.2050   11.2799 C.ar      1 <0>         0.3946
     22 N5          0.3901    3.4182    9.9956 N.ar      1 <0>        -0.5459
     23 C16         0.3546    4.3498   12.2460 C.3       1 <0>        -0.0834
     24 N6         -0.6531   -0.2629   11.4224 N.pl3     1 <0>        -0.5966
     25 C17        -1.0693   -0.4249   12.8237 C.3       1 <0>         0.1300
     26 C18        -2.3993   -1.1856   12.8517 C.3       1 <0>         0.0401
     27 N7         -2.2595   -2.4378   12.0965 N.3       1 <0>        -0.5276
     28 C19        -1.9688   -2.1765   10.6804 C.3       1 <0>         0.0363
     29 C20        -0.6270   -1.4554   10.5619 C.3       1 <0>         0.1269
     30 C21        -3.4565   -3.2768   12.2420 C.3       1 <0>         0.0537
     31 C22        -3.1814   -4.6636   11.6572 C.3       1 <0>         0.0792
     32 O2         -2.1684   -5.3132   12.4279 O.3       1 <0>        -0.5589
     33 Cl1        -0.1672    9.6214    4.2392 Cl        1 <0>        -0.0433
     34 H1          2.8725    5.9906    1.1961 H         1 <0>         0.0754
     35 H2          4.4240    6.8020    1.5166 H         1 <0>         0.0754
     36 H3          3.4510    6.1760    2.8692 H         1 <0>         0.0676
     37 H4          3.7844    8.8450    0.3685 H         1 <0>         0.1337
     38 H5          2.6220   11.0077    0.5292 H         1 <0>         0.1350
     39 H6          0.8801   11.3508    2.2339 H         1 <0>         0.1371
     40 H7          1.1547    6.2381    3.4683 H         1 <0>         0.4085
     41 H8          1.2132    7.1127    8.0357 H         1 <0>         0.1884
     42 H9          0.4325    1.9325    7.1264 H         1 <0>         0.4387
     43 H10        -0.2220    0.3459    8.8660 H         1 <0>         0.1413
     44 H11         1.3882    4.3890   12.5900 H         1 <0>         0.0870
     45 H12         0.1021    5.2855   11.7470 H         1 <0>         0.0890
     46 H13        -0.3072    4.2031   13.0995 H         1 <0>         0.0846
     47 H14        -0.3126   -0.9904   13.3674 H         1 <0>         0.0744
     48 H15        -1.1984    0.5551   13.2831 H         1 <0>         0.1008
     49 H16        -2.6676   -1.4113   13.8837 H         1 <0>         0.0903
     50 H17        -3.1785   -0.5727   12.3986 H         1 <0>         0.0372
     51 H18        -1.9249   -3.1208   10.1378 H         1 <0>         0.0905
     52 H19        -2.7540   -1.5497   10.2576 H         1 <0>         0.0380
     53 H20        -0.4638   -1.1563    9.5265 H         1 <0>         0.0877
     54 H21         0.1731   -2.1219   10.8840 H         1 <0>         0.0802
     55 H22        -3.7077   -3.3713   13.2985 H         1 <0>         0.0861
     56 H23        -4.2894   -2.8169   11.7102 H         1 <0>         0.0487
     57 H24        -4.0952   -5.2572   11.6843 H         1 <0>         0.0498
     58 H25        -2.8443   -4.5626   10.6256 H         1 <0>         0.0451
     59 H26        -1.9426   -6.1994   12.1134 H         1 <0>         0.3762
@<TRIPOS>BOND
     1    1    2 1
     2    1   34 1
     3    1   35 1
     4    1   36 1
     5    2    7 ar
     6    2    3 ar
     7    3    4 ar
     8    3   37 1
     9    4    5 ar
    10    4   38 1
    11    5    6 ar
    12    5   39 1
    13    6    7 ar
    14    6   33 1
    15    7    8 1
    16    8    9 am
    17    8   40 1
    18    9   10 2
    19    9   11 1
    20   11   15 1
    21   11   12 2
    22   12   13 1
    23   12   41 1
    24   13   14 2
    25   14   15 1
    26   14   16 1
    27   16   17 1
    28   16   42 1
    29   17   18 ar
    30   17   22 ar
    31   18   43 1
    32   18   19 ar
    33   19   24 1
    34   19   20 ar
    35   20   21 ar
    36   21   23 1
    37   21   22 ar
    38   23   44 1
    39   23   45 1
    40   23   46 1
    41   24   29 1
    42   24   25 1
    43   25   26 1
    44   25   47 1
    45   25   48 1
    46   26   27 1
    47   26   49 1
    48   26   50 1
    49   27   28 1
    50   27   30 1
    51   28   29 1
    52   28   51 1
    53   28   52 1
    54   29   53 1
    55   29   54 1
    56   30   31 1
    57   30   55 1
    58   30   56 1
    59   31   32 1
    60   31   57 1
    61   31   58 1
    62   32   59 1
@<TRIPOS>MOLECULE
ZINC21982951
   61    64     0     0     0
SMALL
USER_CHARGES

@<TRIPOS>ATOM
      1 C1          3.2770    6.6581    1.8427 C.3       1 <0>        -0.1166
      2 C2          2.5837    7.9904    1.9667 C.ar      1 <0>        -0.0814
      3 C3          2.9012    9.0183    1.0999 C.ar      1 <0>        -0.1028
      4 C4          2.2660   10.2411    1.2125 C.ar      1 <0>        -0.0975
      5 C5          1.3108   10.4402    2.1928 C.ar      1 <0>        -0.1039
      6 C6          0.9888    9.4167    3.0634 C.ar      1 <0>        -0.0218
      7 C7          1.6215    8.1842    2.9485 C.ar      1 <0>         0.1327
      8 N1          1.2933    7.1433    3.8237 N.am      1 <0>        -0.6648
      9 C8          1.3141    7.3507    5.1552 C.2       1 <0>         0.5983
     10 O1          1.5193    8.4677    5.5943 O.2       1 <0>        -0.4690
     11 C9          1.0903    6.2342    6.0727 C.2       1 <0>        -0.2500
     12 C10         1.0624    6.2188    7.4604 C.2       1 <0>         0.1439
     13 N2          0.8362    5.0594    8.0246 N.2       1 <0>        -0.4984
     14 C11         0.6458    3.9675    7.3056 C.2       1 <0>         0.2172
     15 S1          0.7692    4.5136    5.7185 S.3       1 <0>         0.2242
     16 N3          0.3986    2.6839    7.7506 N.pl3     1 <0>        -0.5513
     17 C12         0.2203    2.4413    9.1063 C.ar      1 <0>         0.5098
     18 C13        -0.1335    1.1734    9.5556 C.ar      1 <0>        -0.3097
     19 C14        -0.3003    0.9817   10.9244 C.ar      1 <0>         0.4927
     20 N4         -0.1163    2.0116   11.7481 N.ar      1 <0>        -0.5695
     21 C15         0.2187    3.1980   11.2828 C.ar      1 <0>         0.4589
     22 N5          0.3911    3.4178    9.9956 N.ar      1 <0>        -0.4762
     23 C16         0.4165    4.3348   12.2521 C.3       1 <0>        -0.1303
     24 N6         -0.6531   -0.2629   11.4224 N.pl3     1 <0>        -0.6123
     25 C17        -0.9643   -0.4465   12.8484 C.3       1 <0>         0.0782
     26 C18        -2.3027   -1.1838   12.9625 C.3       1 <0>        -0.0204
     27 N7         -2.2406   -2.4311   12.1903 N.4       1 <0>        -0.3852
     28 C19        -2.0770   -2.1279   10.7629 C.3       1 <0>        -0.0304
     29 C20        -0.7330   -1.4363   10.5388 C.3       1 <0>         0.0932
     30 C21        -3.4827   -3.1900   12.3886 C.3       1 <0>        -0.0061
     31 C22        -3.3702   -4.5448   11.6865 C.3       1 <0>         0.0434
     32 O2         -2.3479   -5.3224   12.3128 O.3       1 <0>        -0.5819
     33 Cl1        -0.2098    9.6671    4.2940 Cl        1 <0>        -0.0466
     34 H1          2.7157    6.0184    1.1617 H         1 <0>         0.0770
     35 H2          4.2843    6.8074    1.4538 H         1 <0>         0.0791
     36 H3          3.3325    6.1847    2.8230 H         1 <0>         0.0631
     37 H4          3.6468    8.8665    0.3335 H         1 <0>         0.1380
     38 H5          2.5166   11.0428    0.5336 H         1 <0>         0.1401
     39 H6          0.8165   11.3966    2.2780 H         1 <0>         0.1410
     40 H7          1.0508    6.2723    3.4722 H         1 <0>         0.4077
     41 H8          1.2191    7.1146    8.0429 H         1 <0>         0.2016
     42 H9          0.3494    1.9517    7.1163 H         1 <0>         0.4545
     43 H10        -0.2756    0.3590    8.8607 H         1 <0>         0.1860
     44 H11         1.4581    4.3621   12.5724 H         1 <0>         0.1309
     45 H12         0.1613    5.2760   11.7653 H         1 <0>         0.1358
     46 H13        -0.2267    4.1885   13.1199 H         1 <0>         0.1083
     47 H14        -0.1795   -1.0367   13.3215 H         1 <0>         0.1249
     48 H15        -1.0392    0.5259   13.3352 H         1 <0>         0.1232
     49 H16        -2.5028   -1.4138   14.0090 H         1 <0>         0.1602
     50 H17        -3.0999   -0.5526   12.5701 H         1 <0>         0.1410
     51 H18        -2.1110   -3.0537   10.1885 H         1 <0>         0.1585
     52 H19        -2.8811   -1.4682   10.4370 H         1 <0>         0.1418
     53 H20        -0.6550   -1.1179    9.4992 H         1 <0>         0.1416
     54 H21         0.0756   -2.1281   10.7747 H         1 <0>         0.1211
     55 H22        -3.6469   -3.3459   13.4548 H         1 <0>         0.1465
     56 H23        -4.3202   -2.6321   11.9697 H         1 <0>         0.1464
     57 H24        -4.3221   -5.0710   11.7578 H         1 <0>         0.1026
     58 H25        -3.1180   -4.3904   10.6374 H         1 <0>         0.0719
     59 H26        -2.2211   -6.1961   11.9183 H         1 <0>         0.4154
     60 H27        -0.2308    1.8869   12.7032 H         1 <0>         0.4393
     61 H28        -1.4578   -2.9831   12.5075 H         1 <0>         0.4359
@<TRIPOS>BOND
     1    1    2 1
     2    1   34 1
     3    1   35 1
     4    1   36 1
     5    2    7 ar
     6    2    3 ar
     7    3    4 ar
     8    3   37 1
     9    4    5 ar
    10    4   38 1
    11    5    6 ar
    12    5   39 1
    13    6    7 ar
    14    6   33 1
    15    7    8 1
    16    8    9 am
    17    8   40 1
    18    9   10 2
    19    9   11 1
    20   11   15 1
    21   11   12 2
    22   12   13 1
    23   12   41 1
    24   13   14 2
    25   14   15 1
    26   14   16 1
    27   16   17 1
    28   16   42 1
    29   17   18 ar
    30   17   22 ar
    31   18   43 1
    32   18   19 ar
    33   19   24 1
    34   19   20 ar
    35   20   60 1
    36   20   21 ar
    37   21   23 1
    38   21   22 ar
    39   23   44 1
    40   23   45 1
    41   23   46 1
    42   24   29 1
    43   24   25 1
    44   25   26 1
    45   25   47 1
    46   25   48 1
    47   26   27 1
    48   26   49 1
    49   26   50 1
    50   27   28 1
    51   27   30 1
    52   27   61 1
    53   28   29 1
    54   28   51 1
    55   28   52 1
    56   29   53 1
    57   29   54 1
    58   30   31 1
    59   30   55 1
    60   30   56 1
    61   31   32 1
    62   31   57 1
    63   31   58 1
    64   32   59 1
@<TRIPOS>MOLECULE
ZINC13472189
   31    33     0     0     0
SMALL
USER_CHARGES

@<TRIPOS>ATOM
      1 C1         -0.0161    1.3397    0.0094 C.2       1 <0>         0.0270
      2 C2          1.2536    1.7794   -0.0004 C.2       1 <0>         0.0613
      3 N1          2.0636    0.6663   -0.0141 N.pl3     1 <0>        -0.5418
      4 H1          3.0335    0.6587   -0.0231 H         1 <0>         0.4599
      5 C3          1.2460   -0.4209   -0.0121 C.cat     1 <0>         0.5896
      6 N2          0.0021   -0.0041    0.0020 N.pl3     1 <0>        -0.5135
      7 N3          1.6570   -1.7434   -0.0235 N.pl3     1 <0>        -0.8050
      8 C4          1.7050    3.2172    0.0026 C.3       1 <0>         0.0538
      9 H2          2.7067    3.2686    0.4293 H         1 <0>         0.1181
     10 C5          0.7682    4.0171    0.8685 C.3       1 <0>        -0.1369
     11 C6          1.2955    5.3776    1.2347 C.3       1 <0>         0.1042
     12 N4          1.1929    6.3591    0.1882 N.am      1 <0>        -0.6907
     13 C7          1.3661    6.2124   -1.1046 C.2       1 <0>         0.5834
     14 O1          1.3041    7.2355   -1.7609 O.2       1 <0>        -0.5489
     15 C8          1.6220    4.9986   -1.8612 C.2       1 <0>         0.0311
     16 C9          1.7579    3.7077   -1.4096 C.2       1 <0>        -0.0852
     17 C10         1.9671    2.8938   -2.5330 C.2       1 <0>        -0.1444
     18 C11         1.9647    3.6882   -3.6296 C.2       1 <0>         0.0872
     19 N5          1.7697    4.9660   -3.2399 N.pl3     1 <0>        -0.4852
     20 H3          1.7338    5.7357   -3.8291 H         1 <0>         0.4437
     21 Br1         2.2033    3.1052   -5.4126 Br        1 <0>         0.0565
     22 Br2         2.2104    1.0186   -2.5183 Br        1 <0>        -0.0176
     23 H4         -0.9001    1.9600    0.0252 H         1 <0>         0.2216
     24 H5          2.6031   -1.9572   -0.0340 H         1 <0>         0.4394
     25 H6          0.9988   -2.4559   -0.0210 H         1 <0>         0.4406
     26 H7         -0.1761    4.1408    0.3382 H         1 <0>         0.0878
     27 H8          0.5788    3.4586    1.7852 H         1 <0>         0.1064
     28 H9          0.7446    5.7394    2.1029 H         1 <0>         0.1050
     29 H10         2.3447    5.2779    1.5131 H         1 <0>         0.0744
     30 H11         0.9630    7.2555    0.4787 H         1 <0>         0.4171
     31 H12        -0.7814   -0.5760    0.0064 H         1 <0>         0.4610
@<TRIPOS>BOND
     1    1    6 1
     2    1    2 2
     3    1   23 1
     4    2    3 1
     5    2    8 1
     6    3    4 1
     7    3    5 1
     8    5    6 2
     9    5    7 1
    10    6   31 1
    11    7   24 1
    12    7   25 1
    13    8    9 1
    14    8   16 1
    15    8   10 1
    16   10   11 1
    17   10   26 1
    18   10   27 1
    19   11   12 1
    20   11   28 1
    21   11   29 1
    22   12   13 am
    23   12   30 1
    24   13   14 2
    25   13   15 1
    26   15   19 1
    27   15   16 2
    28   16   17 1
    29   17   18 2
    30   17   22 1
    31   18   19 1
    32   18   21 1
    33   19   20 1
@<TRIPOS>MOLECULE
ZINC13472189
   30    32     0     0     0
SMALL
USER_CHARGES
(4R)-4-(2-amino-3H-imidazol-4-yl)-2,3-dibromo-4,5,6,7-tetrahydro-1H-pyrrolo[2,3-c]azepin-8-one
@<TRIPOS>ATOM
      1 C1          1.3969    5.3924   -2.2489 C.2       1 <0>        -0.0699
      2 C2          1.1870    5.2913   -0.9254 C.2       1 <0>         0.0192
      3 N1          1.4566    6.5266   -0.3808 N.2       1 <0>        -0.4945
      4 H1          1.9921    7.0081   -3.4307 H         1 <0>         0.4177
      5 C3          1.8195    7.3431   -1.4065 C.2       1 <0>         0.4447
      6 N2          1.7764    6.6526   -2.5212 N.pl3     1 <0>        -0.5540
      7 N3          2.1743    8.6771   -1.2932 N.pl3     1 <0>        -0.8458
      8 C4          0.7461    4.0588   -0.1788 C.3       1 <0>         0.0645
      9 H2          1.1121    4.1207    0.8461 H         1 <0>         0.1019
     10 C5          1.3545    2.8495   -0.8382 C.3       1 <0>        -0.1296
     11 C6          1.2791    1.6015   -0.0016 C.3       1 <0>         0.1048
     12 N4         -0.0111    0.9658    0.0074 N.am      1 <0>        -0.6910
     13 C7         -1.2039    1.5137    0.0165 C.2       1 <0>         0.5919
     14 O1         -2.1369    0.7366    0.0996 O.2       1 <0>        -0.5689
     15 C8         -1.5651    2.9192   -0.0520 C.2       1 <0>        -0.0030
     16 C9         -0.7493    4.0216   -0.1519 C.2       1 <0>        -0.0525
     17 C10        -1.5794    5.1504   -0.2259 C.2       1 <0>        -0.1310
     18 C11        -2.8642    4.7281   -0.1609 C.2       1 <0>         0.0664
     19 N5         -2.8734    3.3797   -0.0483 N.pl3     1 <0>        -0.4979
     20 H3         -3.6661    2.8254    0.0239 H         1 <0>         0.4337
     21 Br1        -4.3932    5.8392   -0.2181 Br        1 <0>         0.0331
     22 Br2        -1.0051    6.9447   -0.3884 Br        1 <0>         0.0259
     23 H4          1.2784    4.5977   -2.9705 H         1 <0>         0.1662
     24 H5          2.1775    9.1059   -0.4232 H         1 <0>         0.4186
     25 H6          2.4196    9.1825   -2.0840 H         1 <0>         0.4038
     26 H7          2.4016    3.0608   -1.0548 H         1 <0>         0.0980
     27 H8          0.8345    2.6698   -1.7792 H         1 <0>         0.0742
     28 H9          1.5456    1.8566    1.0241 H         1 <0>         0.0705
     29 H10         2.0128    0.8886   -0.3778 H         1 <0>         0.0936
     30 H11         0.0021   -0.0041    0.0020 H         1 <0>         0.4094
@<TRIPOS>BOND
     1    1    6 1
     2    1    2 2
     3    1   23 1
     4    2    3 1
     5    2    8 1
     6    3    5 2
     7    4    6 1
     8    5    7 1
     9    5    6 1
    10    7   24 1
    11    7   25 1
    12    8    9 1
    13    8   16 1
    14    8   10 1
    15   10   11 1
    16   10   26 1
    17   10   27 1
    18   11   12 1
    19   11   28 1
    20   11   29 1
    21   12   13 am
    22   12   30 1
    23   13   14 2
    24   13   15 1
    25   15   19 1
    26   15   16 2
    27   16   17 1
    28   17   18 2
    29   17   22 1
    30   18   19 1
    31   18   21 1
    32   19   20 1
@<TRIPOS>MOLECULE
ZINC13472190
   31    33     0     0     0
SMALL
USER_CHARGES

@<TRIPOS>ATOM
      1 C1         -0.0161    1.3397    0.0094 C.2       1 <0>         0.0269
      2 C2          1.2536    1.7794   -0.0004 C.2       1 <0>         0.0614
      3 N1          2.0636    0.6663   -0.0141 N.pl3     1 <0>        -0.5418
      4 H1          3.0335    0.6587   -0.0231 H         1 <0>         0.4599
      5 C3          1.2460   -0.4209   -0.0121 C.cat     1 <0>         0.5896
      6 N2          0.0021   -0.0041    0.0020 N.pl3     1 <0>        -0.5135
      7 N3          1.6570   -1.7434   -0.0235 N.pl3     1 <0>        -0.8050
      8 C4          1.7050    3.2172    0.0026 C.3       1 <0>         0.0538
      9 H2          2.6981    3.2731   -0.4432 H         1 <0>         0.1181
     10 C5          0.7514    4.0259   -0.8364 C.3       1 <0>        -0.1369
     11 C6          1.2716    5.3901   -1.1989 C.3       1 <0>         0.1042
     12 N4          1.1896    6.3608   -0.1404 N.am      1 <0>        -0.6907
     13 C7          1.3883    6.2008    1.1471 C.2       1 <0>         0.5834
     14 O1          1.3384    7.2170    1.8151 O.2       1 <0>        -0.5490
     15 C8          1.6589    4.9793    1.8860 C.2       1 <0>         0.0312
     16 C9          1.7857    3.6932    1.4185 C.2       1 <0>        -0.0853
     17 C10         2.0169    2.8678    2.5291 C.2       1 <0>        -0.1443
     18 C11         2.0362    3.6507    3.6337 C.2       1 <0>         0.0871
     19 N5          1.8337    4.9325    3.2611 N.pl3     1 <0>        -0.4852
     20 H3          1.8100    5.6961    3.8587 H         1 <0>         0.4437
     21 Br1         2.3097    3.0494    5.4055 Br        1 <0>         0.0565
     22 Br2         2.2578    0.9926    2.4905 Br        1 <0>        -0.0176
     23 H4         -0.9001    1.9600    0.0252 H         1 <0>         0.2216
     24 H5          2.6031   -1.9572   -0.0340 H         1 <0>         0.4394
     25 H6          0.9988   -2.4559   -0.0210 H         1 <0>         0.4406
     26 H7          0.5440    3.4769   -1.7549 H         1 <0>         0.1064
     27 H8         -0.1822    4.1440   -0.2864 H         1 <0>         0.0878
     28 H9          2.3150    5.2934   -1.4989 H         1 <0>         0.0744
     29 H10         0.7037    5.7608   -2.0522 H         1 <0>         0.1050
     30 H11         0.9548    7.2603   -0.4173 H         1 <0>         0.4171
     31 H12        -0.7814   -0.5760    0.0064 H         1 <0>         0.4610
@<TRIPOS>BOND
     1    1    6 1
     2    1    2 2
     3    1   23 1
     4    2    3 1
     5    2    8 1
     6    3    4 1
     7    3    5 1
     8    5    6 2
     9    5    7 1
    10    6   31 1
    11    7   24 1
    12    7   25 1
    13    8    9 1
    14    8   16 1
    15    8   10 1
    16   10   11 1
    17   10   26 1
    18   10   27 1
    19   11   12 1
    20   11   28 1
    21   11   29 1
    22   12   13 am
    23   12   30 1
    24   13   14 2
    25   13   15 1
    26   15   19 1
    27   15   16 2
    28   16   17 1
    29   17   18 2
    30   17   22 1
    31   18   19 1
    32   18   21 1
    33   19   20 1
@<TRIPOS>MOLECULE
ZINC13472190
   30    32     0     0     0
SMALL
USER_CHARGES
(4S)-4-(2-amino-3H-imidazol-4-yl)-2,3-dibromo-4,5,6,7-tetrahydro-1H-pyrrolo[2,3-c]azepin-8-one
@<TRIPOS>ATOM
      1 C1         -2.1843    2.2778   -3.6422 C.2       1 <0>        -0.0696
      2 C2         -2.3260    1.0991   -3.0129 C.2       1 <0>         0.0190
      3 N1         -2.8953    0.2286   -3.9147 N.2       1 <0>        -0.4944
      4 H1         -2.6515    2.8650   -5.5911 H         1 <0>         0.4177
      5 C3         -3.0756    0.9178   -5.0736 C.2       1 <0>         0.4447
      6 N2         -2.6423    2.1437   -4.8985 N.pl3     1 <0>        -0.5540
      7 N3         -3.6236    0.4112   -6.2403 N.pl3     1 <0>        -0.8458
      8 C4         -1.9404    0.7903   -1.5891 C.3       1 <0>         0.0646
      9 H2         -1.7282   -0.2757   -1.5073 H         1 <0>         0.1019
     10 C5         -0.6922    1.5603   -1.2475 C.3       1 <0>        -0.1297
     11 C6         -0.0127    1.0858    0.0080 C.3       1 <0>         0.1051
     12 N4         -0.6393    1.5264    1.2254 N.am      1 <0>        -0.6901
     13 C7         -1.9125    1.6572    1.5039 C.2       1 <0>         0.5921
     14 O1         -2.1703    1.9748    2.6503 O.2       1 <0>        -0.5695
     15 C8         -3.0604    1.4757    0.6317 C.2       1 <0>        -0.0034
     16 C9         -3.0947    1.1189   -0.6959 C.2       1 <0>        -0.0529
     17 C10        -4.4407    1.1110   -1.0918 C.2       1 <0>        -0.1309
     18 C11        -5.1933    1.4470   -0.0176 C.2       1 <0>         0.0663
     19 N5         -4.3735    1.6645    1.0366 N.pl3     1 <0>        -0.4979
     20 H3         -4.6578    1.9122    1.9303 H         1 <0>         0.4336
     21 Br1        -7.0787    1.5894    0.0054 Br        1 <0>         0.0330
     22 Br2        -5.0892    0.7027   -2.8206 Br        1 <0>         0.0258
     23 H4         -1.7706    3.1783   -3.2127 H         1 <0>         0.1661
     24 H5         -3.9179   -0.5123   -6.2768 H         1 <0>         0.4185
     25 H6         -3.7132    0.9800   -7.0209 H         1 <0>         0.4038
     26 H7         -0.9537    2.6114   -1.1260 H         1 <0>         0.0743
     27 H8          0.0091    1.4727   -2.0774 H         1 <0>         0.0978
     28 H9          0.0021   -0.0041    0.0020 H         1 <0>         0.0709
     29 H10         1.0167    1.4440    0.0001 H         1 <0>         0.0941
     30 H11        -0.0328    1.7592    1.9457 H         1 <0>         0.4091
@<TRIPOS>BOND
     1    1    6 1
     2    1    2 2
     3    1   23 1
     4    2    3 1
     5    2    8 1
     6    3    5 2
     7    4    6 1
     8    5    7 1
     9    5    6 1
    10    7   24 1
    11    7   25 1
    12    8    9 1
    13    8   16 1
    14    8   10 1
    15   10   11 1
    16   10   26 1
    17   10   27 1
    18   11   12 1
    19   11   28 1
    20   11   29 1
    21   12   13 am
    22   12   30 1
    23   13   14 2
    24   13   15 1
    25   15   19 1
    26   15   16 2
    27   16   17 1
    28   17   18 2
    29   17   22 1
    30   18   19 1
    31   18   21 1
    32   19   20 1
@<TRIPOS>MOLECULE
ZINC03814434
   62    69     0     0     0
SMALL
USER_CHARGES

@<TRIPOS>ATOM
      1 C1         -0.1295    1.5952   -0.2973 C.3       1 <0>        -0.1687
      2 C2         -0.0862    0.0696   -0.1900 C.3       1 <0>         0.3342
      3 C3          0.5692   -0.4501   -1.4637 C.3       1 <0>         0.0405
      4 H1          1.4796    0.1159   -1.6612 H         1 <0>         0.1372
      5 C4          0.9167   -1.9328   -1.2889 C.3       1 <0>        -0.0061
      6 H2          1.3963   -2.3075   -2.1932 H         1 <0>         0.1555
      7 C5          1.8785   -2.0596   -0.1021 C.3       1 <0>        -0.1827
      8 C6          1.2061   -1.5198    1.1541 C.3       1 <0>         0.2999
      9 H3          1.9797   -1.4243    1.9161 H         1 <0>         0.1550
     10 O1          0.6555   -0.2442    0.9666 O.3       1 <0>        -0.3234
     11 N1          0.2189   -2.4746    1.6600 N.pl3     1 <0>        -0.5366
     12 C7          0.4705   -3.5508    2.4739 C.ar      1 <0>         0.1469
     13 C8          1.6649   -4.0152    3.0240 C.ar      1 <0>        -0.1522
     14 C9          1.5948   -5.1456    3.8201 C.ar      1 <0>        -0.0582
     15 C10         0.4006   -5.7997    4.0696 C.ar      1 <0>        -0.1457
     16 C11        -0.7984   -5.3597    3.5358 C.ar      1 <0>        -0.0280
     17 C12        -0.7487   -4.2198    2.7307 C.ar      1 <0>        -0.1131
     18 C13        -1.7893   -3.4830    2.0197 C.ar      1 <0>         0.0276
     19 C14        -1.1442   -2.4197    1.3841 C.ar      1 <0>         0.0376
     20 C15        -1.8806   -1.5095    0.6175 C.ar      1 <0>         0.0894
     21 N2         -1.4718   -0.3951   -0.1095 N.pl3     1 <0>        -0.5183
     22 C16        -2.5611    0.1913   -0.7090 C.ar      1 <0>         0.1618
     23 C17        -2.6521    1.3277   -1.5118 C.ar      1 <0>        -0.1305
     24 C18        -3.9109    1.6745   -1.9733 C.ar      1 <0>        -0.0737
     25 C19        -5.0393    0.9368   -1.6616 C.ar      1 <0>        -0.1358
     26 C20        -4.9745   -0.1955   -0.8662 C.ar      1 <0>        -0.0503
     27 C21        -3.7147   -0.5596   -0.3919 C.ar      1 <0>        -0.1042
     28 C22        -3.2693   -1.6660    0.4845 C.ar      1 <0>        -0.0360
     29 C23        -3.9084   -2.7313    1.1102 C.ar      1 <0>        -0.0288
     30 C24        -3.1873   -3.6421    1.8754 C.ar      1 <0>        -0.1255
     31 C25        -4.1221   -4.6480    2.4030 C.2       1 <0>         0.5632
     32 O2         -3.8062   -5.5851    3.1110 O.2       1 <0>        -0.5106
     33 N3         -5.3744   -4.3851    1.9926 N.am      1 <0>        -0.7162
     34 C26        -5.3495   -3.1771    1.1601 C.3       1 <0>         0.1358
     35 N4         -0.3067   -2.7008   -1.0216 N.4       1 <0>        -0.5252
     36 C27         0.0145   -4.1336   -0.9773 C.3       1 <0>        -0.0497
     37 O3         -0.3340   -0.2979   -2.5607 O.3       1 <0>        -0.3614
     38 C28         0.3101   -0.0933   -3.8198 C.3       1 <0>         0.0162
     39 H4          0.8261    2.0094    0.0240 H         1 <0>         0.0984
     40 H5         -0.3202    1.8814   -1.3317 H         1 <0>         0.1036
     41 H6         -0.9255    1.9818    0.3392 H         1 <0>         0.0921
     42 H7          2.1370   -3.1081    0.0458 H         1 <0>         0.1233
     43 H8          2.7835   -1.4869   -0.3048 H         1 <0>         0.1455
     44 H9          2.6036   -3.5149    2.8368 H         1 <0>         0.1365
     45 H10         2.5026   -5.5304    4.2610 H         1 <0>         0.1359
     46 H11         0.4045   -6.6780    4.6980 H         1 <0>         0.1352
     47 H12        -1.7278   -5.8736    3.7323 H         1 <0>         0.1600
     48 H13        -1.7792    1.9122   -1.7624 H         1 <0>         0.1440
     49 H14        -4.0153    2.5500   -2.5970 H         1 <0>         0.1336
     50 H15        -5.9967    1.2527   -2.0488 H         1 <0>         0.1332
     51 H16        -5.8575   -0.7687   -0.6249 H         1 <0>         0.1415
     52 H17        -6.1628   -4.9065    2.2103 H         1 <0>         0.4348
     53 H18        -5.9671   -2.3994    1.6094 H         1 <0>         0.1115
     54 H19        -5.7060   -3.4063    0.1559 H         1 <0>         0.1103
     55 H20        -0.6958   -2.4158   -0.1353 H         1 <0>         0.4186
     56 H21         0.4349   -4.4415   -1.9347 H         1 <0>         0.1256
     57 H22         0.7403   -4.3189   -0.1854 H         1 <0>         0.1191
     58 H23        -0.8932   -4.7035   -0.7789 H         1 <0>         0.1256
     59 H24         0.9168    0.8112   -3.7748 H         1 <0>         0.0633
     60 H25         0.9482   -0.9479   -4.0446 H         1 <0>         0.0514
     61 H26        -0.4433    0.0130   -4.6003 H         1 <0>         0.1100
     62 H27        -0.9785   -2.5293   -1.7546 H         1 <0>         0.4274
@<TRIPOS>BOND
     1    1    2 1
     2    1   39 1
     3    1   40 1
     4    1   41 1
     5    2   10 1
     6    2   21 1
     7    2    3 1
     8    3    4 1
     9    3    5 1
    10    3   37 1
    11    5    6 1
    12    5    7 1
    13    5   35 1
    14    7    8 1
    15    7   42 1
    16    7   43 1
    17    8    9 1
    18    8   10 1
    19    8   11 1
    20   11   19 1
    21   11   12 1
    22   12   17 ar
    23   12   13 ar
    24   13   14 ar
    25   13   44 1
    26   14   15 ar
    27   14   45 1
    28   15   16 ar
    29   15   46 1
    30   16   17 ar
    31   16   47 1
    32   17   18 1
    33   18   30 ar
    34   18   19 ar
    35   19   20 ar
    36   20   28 ar
    37   20   21 1
    38   21   22 1
    39   22   27 ar
    40   22   23 ar
    41   23   24 ar
    42   23   48 1
    43   24   25 ar
    44   24   49 1
    45   25   26 ar
    46   25   50 1
    47   26   27 ar
    48   26   51 1
    49   27   28 1
    50   28   29 ar
    51   29   34 1
    52   29   30 ar
    53   30   31 1
    54   31   32 2
    55   31   33 am
    56   33   34 1
    57   33   52 1
    58   34   53 1
    59   34   54 1
    60   35   36 1
    61   35   55 1
    62   35   62 1
    63   36   56 1
    64   36   57 1
    65   36   58 1
    66   37   38 1
    67   38   59 1
    68   38   60 1
    69   38   61 1
@<TRIPOS>MOLECULE
ZINC28089408
   42    45     0     0     0
SMALL
USER_CHARGES
(3Z)-5-bromo-3-[[3-bromo-4-hydroxy-5-(2-methoxyphenyl)phenyl]methylene]-1H-pyrrolo[5,4-b]pyridin-2-one
@<TRIPOS>ATOM
      1 C1          1.9327    3.9166   -4.5437 C.3       1 <0>         0.0233
      2 O1          1.5618    3.3510   -3.2849 O.3       1 <0>        -0.3058
      3 C2          1.0079    4.1899   -2.3710 C.ar      1 <0>         0.1520
      4 C3          0.8194    5.5275   -2.6795 C.ar      1 <0>        -0.2136
      5 C4          0.2611    6.3811   -1.7469 C.ar      1 <0>        -0.0748
      6 C5         -0.1177    5.9057   -0.5038 C.ar      1 <0>        -0.1601
      7 C6          0.0591    4.5745   -0.1854 C.ar      1 <0>        -0.0593
      8 C7          0.6209    3.7054   -1.1180 C.ar      1 <0>        -0.0725
      9 C8          0.8131    2.2740   -0.7810 C.ar      1 <0>        -0.0788
     10 C9         -0.2876    1.4600   -0.5511 C.ar      1 <0>         0.0256
     11 C10        -0.0990    0.1100   -0.2340 C.ar      1 <0>        -0.1451
     12 C11         1.1996   -0.4129   -0.1501 C.ar      1 <0>        -0.0108
     13 C12         2.2877    0.3997   -0.3792 C.ar      1 <0>        -0.2064
     14 C13         2.1057    1.7410   -0.6940 C.ar      1 <0>         0.2399
     15 O2          3.1823    2.5361   -0.9176 O.3       1 <0>        -0.4811
     16 Br1         4.0358   -0.3122   -0.2644 Br        1 <0>        -0.0368
     17 C14        -1.2565   -0.7558    0.0105 C.2       1 <0>         0.0585
     18 C15        -2.3321   -0.2780    0.7017 C.2       1 <0>        -0.1757
     19 C16        -3.6385   -0.9410    0.9078 C.ar      1 <0>        -0.1464
     20 C17        -4.1685   -2.1631    0.5061 C.ar      1 <0>         0.0054
     21 C18        -5.4654   -2.4706    0.8898 C.ar      1 <0>        -0.1755
     22 C19        -6.1766   -1.5590    1.6505 C.ar      1 <0>         0.1786
     23 N1         -5.6502   -0.4085    2.0172 N.ar      1 <0>        -0.4927
     24 C20        -4.4141   -0.0624    1.6784 C.ar      1 <0>         0.3684
     25 N2         -3.6730    1.0770    1.9506 N.am      1 <0>        -0.6500
     26 C21        -2.4443    1.0078    1.4115 C.2       1 <0>         0.5728
     27 O3         -1.5775    1.8589    1.4929 O.2       1 <0>        -0.4792
     28 Br2        -6.2515   -4.1131    0.3800 Br        1 <0>        -0.0224
     29 H1          2.3653    3.1339   -5.1842 H         1 <0>         0.1006
     30 H2          2.6758    4.7117   -4.3837 H         1 <0>         0.0564
     31 H3          1.0425    4.3396   -5.0321 H         1 <0>         0.0552
     32 H4          1.1131    5.9044   -3.6481 H         1 <0>         0.1287
     33 H5          0.1196    7.4240   -1.9896 H         1 <0>         0.1248
     34 H6         -0.5529    6.5789    0.2200 H         1 <0>         0.1253
     35 H7         -0.2380    4.2069    0.7857 H         1 <0>         0.1344
     36 H8         -1.2859    1.8659   -0.6212 H         1 <0>         0.1357
     37 H9          1.3467   -1.4546    0.0941 H         1 <0>         0.1399
     38 H10         4.1978    2.1188   -0.8496 H         1 <0>         0.4295
     39 H11        -1.2582   -1.7904   -0.3630 H         1 <0>         0.1527
     40 H12        -3.5868   -2.8524   -0.0878 H         1 <0>         0.1502
     41 H13        -7.1868   -1.7963    1.9500 H         1 <0>         0.1753
     42 H14        -4.1144    1.8915    2.5436 H         1 <0>         0.4535
@<TRIPOS>BOND
     1    1    2 1
     2    1   29 1
     3    1   30 1
     4    1   31 1
     5    2    3 1
     6    3    8 ar
     7    3    4 ar
     8    4    5 ar
     9    4   32 1
    10    5    6 ar
    11    5   33 1
    12    6    7 ar
    13    6   34 1
    14    7    8 ar
    15    7   35 1
    16    8    9 1
    17    9   14 ar
    18    9   10 ar
    19   10   11 ar
    20   10   36 1
    21   11   12 ar
    22   11   17 1
    23   12   13 ar
    24   12   37 1
    25   13   14 ar
    26   13   16 1
    27   14   15 1
    28   15   38 1
    29   17   18 2
    30   17   39 1
    31   18   26 1
    32   18   19 1
    33   19   24 ar
    34   19   20 ar
    35   20   21 ar
    36   20   40 1
    37   21   22 ar
    38   21   28 1
    39   22   23 ar
    40   22   41 1
    41   23   24 ar
    42   24   25 1
    43   25   26 am
    44   25   42 1
    45   26   27 2
@<TRIPOS>MOLECULE
ZINC13647791
   43    46     0     0     0
SMALL
USER_CHARGES

@<TRIPOS>ATOM
      1 C1         -0.0166    1.3699    0.0096 C.ar      1 <0>        -0.0800
      2 C2          1.1572    2.1045    0.0023 C.ar      1 <0>        -0.1190
      3 C3          2.3694    1.4373   -0.0129 C.ar      1 <0>        -0.0394
      4 C4          2.3887    0.0627   -0.0205 C.ar      1 <0>        -0.1883
      5 C5          1.2179   -0.7095   -0.0134 C.ar      1 <0>         0.1191
      6 C6          0.0021   -0.0041    0.0020 C.ar      1 <0>        -0.1207
      7 N1          1.3955   -2.0811   -0.0225 N.pl3     1 <0>        -0.6290
      8 C7          2.6545   -2.6113   -0.0374 C.2       1 <0>         0.2414
      9 C8          3.0385   -3.9533   -0.0487 C.2       1 <0>        -0.1370
     10 C9          2.0433   -4.9829   -0.0452 C.1       1 <0>         0.2720
     11 N2          1.2537   -5.7996   -0.0424 N.1       1 <0>        -0.4249
     12 C10         4.4680   -4.3104   -0.0642 C.ar      1 <0>         0.3088
     13 C11         4.8666   -5.6555   -0.0815 C.ar      1 <0>        -0.2844
     14 C12         6.2058   -5.9409   -0.0954 C.ar      1 <0>         0.2007
     15 N3          7.0848   -4.9482   -0.0923 N.ar      1 <0>        -0.5794
     16 C13         6.6886   -3.6836   -0.0759 C.ar      1 <0>         0.5826
     17 N4          5.4049   -3.3593   -0.0676 N.ar      1 <0>        -0.5825
     18 N5          7.6395   -2.6778   -0.0728 N.pl3     1 <0>        -0.7005
     19 C14         9.0646   -3.0170   -0.0875 C.3       1 <0>         0.1450
     20 C15         9.8948   -1.7318   -0.0805 C.3       1 <0>        -0.0888
     21 C16        11.3608   -2.0808   -0.0957 C.ar      1 <0>        -0.1340
     22 C17        12.0518   -2.2615    1.0929 C.ar      1 <0>        -0.0689
     23 C18        13.3992   -2.5815    1.0307 C.ar      1 <0>        -0.1701
     24 C19        14.0048   -2.7089   -0.2053 C.ar      1 <0>         0.0971
     25 N6         13.3163   -2.5294   -1.3154 N.ar      1 <0>        -0.4833
     26 C20        12.0320   -2.2302   -1.2943 C.ar      1 <0>         0.1060
     27 S1          3.6842   -1.1528   -0.0394 S.3       1 <0>         0.1837
     28 H1         -0.9648    1.8866    0.0260 H         1 <0>         0.1374
     29 H2          1.1270    3.1841    0.0081 H         1 <0>         0.1413
     30 H3          3.2952    1.9934   -0.0191 H         1 <0>         0.1400
     31 H4         -0.9301   -0.5494    0.0080 H         1 <0>         0.1308
     32 H5          0.6237   -2.6686   -0.0180 H         1 <0>         0.4164
     33 H6          4.1333   -6.4484   -0.0833 H         1 <0>         0.1381
     34 H7          6.5434   -6.9667   -0.1085 H         1 <0>         0.1667
     35 H8          7.3622   -1.7483   -0.0608 H         1 <0>         0.4130
     36 H9          9.3060   -3.6103    0.7944 H         1 <0>         0.0692
     37 H10         9.2920   -3.5916   -0.9854 H         1 <0>         0.0705
     38 H11         9.6534   -1.1385   -0.9624 H         1 <0>         0.0847
     39 H12         9.6674   -1.1572    0.8174 H         1 <0>         0.0829
     40 H13        11.5523   -2.1551    2.0445 H         1 <0>         0.1348
     41 H14        13.9686   -2.7291    1.9364 H         1 <0>         0.1364
     42 H15        15.0542   -2.9580   -0.2624 H         1 <0>         0.1564
     43 H16        11.4998   -2.0959   -2.2244 H         1 <0>         0.1551
@<TRIPOS>BOND
     1    1    6 ar
     2    1    2 ar
     3    1   28 1
     4    2    3 ar
     5    2   29 1
     6    3    4 ar
     7    3   30 1
     8    4   27 1
     9    4    5 ar
    10    5    6 ar
    11    5    7 1
    12    6   31 1
    13    7    8 1
    14    7   32 1
    15    8    9 2
    16    8   27 1
    17    9   10 1
    18    9   12 1
    19   10   11 3
    20   12   17 ar
    21   12   13 ar
    22   13   14 ar
    23   13   33 1
    24   14   15 ar
    25   14   34 1
    26   15   16 ar
    27   16   17 ar
    28   16   18 1
    29   18   19 1
    30   18   35 1
    31   19   20 1
    32   19   36 1
    33   19   37 1
    34   20   21 1
    35   20   38 1
    36   20   39 1
    37   21   26 ar
    38   21   22 ar
    39   22   23 ar
    40   22   40 1
    41   23   24 ar
    42   23   41 1
    43   24   25 ar
    44   24   42 1
    45   25   26 ar
    46   26   43 1
@<TRIPOS>MOLECULE
ZINC00581684
   52    54     0     0     0
SMALL
USER_CHARGES

@<TRIPOS>ATOM
      1 C1         -0.3920    1.3196    0.2829 C.3       1 <0>        -0.1144
      2 C2         -0.1867   -0.1617    0.0967 C.ar      1 <0>        -0.1268
      3 C3         -0.3263   -0.7256   -1.1570 C.ar      1 <0>        -0.0825
      4 C4         -0.1394   -2.0830   -1.3319 C.ar      1 <0>        -0.1290
      5 C5          0.1904   -2.8860   -0.2467 C.ar      1 <0>         0.1580
      6 C6          0.3318   -2.3229    1.0134 C.ar      1 <0>        -0.1501
      7 C7          0.1484   -0.9579    1.1847 C.ar      1 <0>         0.1606
      8 N1          0.2955   -0.3855    2.4522 N.am      1 <0>        -0.6629
      9 C8          0.0535   -1.1204    3.5557 C.2       1 <0>         0.5622
     10 O1         -0.2158   -2.3016    3.4526 O.2       1 <0>        -0.5145
     11 C9          0.1154   -0.4914    4.8893 C.ar      1 <0>        -0.1506
     12 C10         0.4192    0.8673    5.0097 C.ar      1 <0>        -0.0674
     13 C11         0.4760    1.4504    6.2558 C.ar      1 <0>        -0.1527
     14 C12         0.2322    0.6893    7.3931 C.ar      1 <0>         0.1394
     15 C13        -0.0698   -0.6625    7.2777 C.ar      1 <0>        -0.1532
     16 C14        -0.1352   -1.2517    6.0348 C.ar      1 <0>        -0.0369
     17 O2          0.2896    1.2676    8.6195 O.3       1 <0>        -0.4971
     18 N2          0.3790   -4.2602   -0.4245 N.am      1 <0>        -0.6664
     19 C15         0.9498   -4.7214   -1.5549 C.2       1 <0>         0.5619
     20 O3          1.2253   -3.9516   -2.4545 O.2       1 <0>        -0.5163
     21 C16         1.2409   -6.1634   -1.7009 C.ar      1 <0>        -0.0899
     22 C17         0.9202   -7.0505   -0.6714 C.ar      1 <0>        -0.1453
     23 C18         1.1928   -8.3959   -0.8100 C.ar      1 <0>        -0.0758
     24 C19         1.7835   -8.8709   -1.9662 C.ar      1 <0>        -0.1713
     25 C20         2.1068   -7.9963   -2.9969 C.ar      1 <0>         0.2078
     26 C21         1.8316   -6.6431   -2.8697 C.ar      1 <0>        -0.1355
     27 N3          2.7044   -8.4812   -4.1629 N.pl3     1 <0>        -0.6372
     28 C22         2.9904   -9.9115   -4.2993 C.3       1 <0>         0.0917
     29 C23         3.0451   -7.5592   -5.2493 C.3       1 <0>         0.0891
     30 H1          0.5556    1.8387    0.1393 H         1 <0>         0.0713
     31 H2         -1.1179    1.6802   -0.4458 H         1 <0>         0.0736
     32 H3         -0.7623    1.5113    1.2900 H         1 <0>         0.0611
     33 H4         -0.5825   -0.1037   -2.0020 H         1 <0>         0.1311
     34 H5         -0.2499   -2.5208   -2.3130 H         1 <0>         0.1399
     35 H6          0.5880   -2.9448    1.8584 H         1 <0>         0.1542
     36 H7          0.5717    0.5405    2.5370 H         1 <0>         0.4114
     37 H8          0.6094    1.4592    4.1265 H         1 <0>         0.1303
     38 H9          0.7107    2.5004    6.3497 H         1 <0>         0.1385
     39 H10        -0.2583   -1.2506    8.1638 H         1 <0>         0.1394
     40 H11        -0.3746   -2.3010    5.9456 H         1 <0>         0.1435
     41 H12        -0.5533    1.6320    8.9223 H         1 <0>         0.3984
     42 H13         0.0990   -4.8815    0.2658 H         1 <0>         0.4128
     43 H14         0.4590   -6.6834    0.2335 H         1 <0>         0.1228
     44 H15         0.9443   -9.0803   -0.0124 H         1 <0>         0.1302
     45 H16         1.9948   -9.9251   -2.0687 H         1 <0>         0.1284
     46 H17         2.0782   -5.9623   -3.6711 H         1 <0>         0.1377
     47 H18         2.1327  -10.4123   -4.7483 H         1 <0>         0.0505
     48 H19         3.8649  -10.0481   -4.9353 H         1 <0>         0.0689
     49 H20         3.1863  -10.3382   -3.3156 H         1 <0>         0.0694
     50 H21         4.0582   -7.1845   -5.1035 H         1 <0>         0.0512
     51 H22         2.9854   -8.0836   -6.2030 H         1 <0>         0.0692
     52 H23         2.3452   -6.7236   -5.2496 H         1 <0>         0.0713
@<TRIPOS>BOND
     1    1    2 1
     2    1   30 1
     3    1   31 1
     4    1   32 1
     5    2    7 ar
     6    2    3 ar
     7    3    4 ar
     8    3   33 1
     9    4    5 ar
    10    4   34 1
    11    5    6 ar
    12    5   18 1
    13    6    7 ar
    14    6   35 1
    15    7    8 1
    16    8    9 am
    17    8   36 1
    18    9   10 2
    19    9   11 1
    20   11   16 ar
    21   11   12 ar
    22   12   13 ar
    23   12   37 1
    24   13   14 ar
    25   13   38 1
    26   14   15 ar
    27   14   17 1
    28   15   16 ar
    29   15   39 1
    30   16   40 1
    31   17   41 1
    32   18   19 am
    33   18   42 1
    34   19   20 2
    35   19   21 1
    36   21   26 ar
    37   21   22 ar
    38   22   23 ar
    39   22   43 1
    40   23   24 ar
    41   23   44 1
    42   24   25 ar
    43   24   45 1
    44   25   26 ar
    45   25   27 1
    46   26   46 1
    47   27   28 1
    48   27   29 1
    49   28   47 1
    50   28   48 1
    51   28   49 1
    52   29   50 1
    53   29   51 1
    54   29   52 1
@<TRIPOS>MOLECULE
ZINC17836932
   28    30     0     0     0
SMALL
USER_CHARGES

@<TRIPOS>ATOM
      1 C1         -0.0169    1.3979    0.0097 C.2       1 <0>        -0.1853
      2 C2          1.2697    1.8211   -0.0003 C.2       1 <0>         0.0002
      3 N1          2.1027    0.7421   -0.0039 N.pl3     1 <0>        -0.5131
      4 H1          3.0718    0.7768   -0.0265 H         1 <0>         0.4179
      5 C3          1.3532   -0.3880    0.0293 C.2       1 <0>        -0.0595
      6 C4          0.0021   -0.0041    0.0020 C.2       1 <0>        -0.0520
      7 C5         -1.0943   -0.9739   -0.0791 C.2       1 <0>        -0.1071
      8 C6         -1.9967   -1.1126    0.9290 C.2       1 <0>         0.0917
      9 C7         -3.1333   -2.0409    0.9857 C.2       1 <0>         0.4671
     10 O1         -3.4883   -2.9333    0.0339 O.3       1 <0>        -0.6411
     11 N2         -3.7419   -1.8425    2.1354 N.2       1 <0>        -0.6216
     12 C8         -3.1225   -0.8813    2.8371 C.2       1 <0>         0.5790
     13 N3         -2.0365   -0.4063    2.1342 N.pl3     1 <0>        -0.7300
     14 N4         -3.4935   -0.4588    4.0222 N.2       1 <0>        -0.7933
     15 C9         -1.1768   -1.8152   -1.3382 C.3       1 <0>        -0.0886
     16 C10         0.2355   -2.2351   -1.7564 C.3       1 <0>         0.1190
     17 N5          1.0531   -2.6907   -0.6424 N.am      1 <0>        -0.7102
     18 C11         1.7353   -1.8032    0.1271 C.2       1 <0>         0.6046
     19 O2          2.6289   -2.1665    0.8693 O.2       1 <0>        -0.5478
     20 H2         -0.8960    2.0251    0.0255 H         1 <0>         0.1414
     21 H3          1.5865    2.8536   -0.0047 H         1 <0>         0.1693
     22 H4         -1.4202    0.2861    2.4198 H         1 <0>         0.4015
     23 H5         -2.9917    0.2428    4.4660 H         1 <0>         0.3149
     24 H6         -1.7784   -2.7032   -1.1441 H         1 <0>         0.1113
     25 H7         -1.6347   -1.2315   -2.1368 H         1 <0>         0.0784
     26 H8          0.1592   -3.0406   -2.4868 H         1 <0>         0.0824
     27 H9          0.7284   -1.3847   -2.2274 H         1 <0>         0.0658
     28 H10         1.1115   -3.6389   -0.4469 H         1 <0>         0.4052
@<TRIPOS>BOND
     1    1    6 1
     2    1    2 2
     3    1   20 1
     4    2    3 1
     5    2   21 1
     6    3    4 1
     7    3    5 1
     8    5   18 1
     9    5    6 2
    10    6    7 1
    11    7    8 2
    12    7   15 1
    13    8   13 1
    14    8    9 1
    15    9   10 1
    16    9   11 2
    17   11   12 1
    18   12   13 1
    19   12   14 2
    20   13   22 1
    21   14   23 1
    22   15   16 1
    23   15   24 1
    24   15   25 1
    25   16   17 1
    26   16   26 1
    27   16   27 1
    28   17   18 am
    29   17   28 1
    30   18   19 2
@<TRIPOS>MOLECULE
ZINC17836932
   29    31     0     0     0
SMALL
USER_CHARGES

@<TRIPOS>ATOM
      1 C1         -0.0169    1.3974    0.0097 C.2       1 <0>        -0.1750
      2 C2          1.2702    1.8202   -0.0003 C.2       1 <0>         0.0117
      3 N1          2.1021    0.7407   -0.0039 N.pl3     1 <0>        -0.5030
      4 H1          3.0712    0.7746   -0.0262 H         1 <0>         0.4262
      5 C3          1.3523   -0.3881    0.0294 C.2       1 <0>        -0.0307
      6 C4          0.0021   -0.0041    0.0020 C.2       1 <0>        -0.1099
      7 C5         -1.0954   -0.9746   -0.0792 C.2       1 <0>         0.0238
      8 C6         -1.9958   -1.1127    0.9263 C.2       1 <0>        -0.0099
      9 C7         -3.1409   -2.0437    0.9898 C.2       1 <0>         0.5395
     10 O1         -3.4737   -2.8538    0.1403 O.2       1 <0>        -0.4718
     11 N2         -3.7411   -1.8205    2.1670 N.2       1 <0>        -0.6438
     12 C8         -3.1131   -0.8750    2.8320 C.2       1 <0>         0.6555
     13 N3         -2.0413   -0.4096    2.1336 N.pl3     1 <0>        -0.6639
     14 N4         -3.4857   -0.4219    4.0677 N.pl3     1 <0>        -0.8053
     15 C9         -1.1779   -1.8161   -1.3382 C.3       1 <0>        -0.1059
     16 C10         0.2344   -2.2364   -1.7561 C.3       1 <0>         0.1151
     17 N5          1.0518   -2.6919   -0.6420 N.am      1 <0>        -0.7155
     18 C11         1.7342   -1.8045    0.1274 C.2       1 <0>         0.5968
     19 O2          2.6276   -2.1680    0.8695 O.2       1 <0>        -0.5284
     20 H2         -0.8959    2.0248    0.0255 H         1 <0>         0.1476
     21 H3          1.5877    2.8525   -0.0051 H         1 <0>         0.1779
     22 H4         -1.4251    0.2828    2.4195 H         1 <0>         0.4256
     23 H5         -4.2600   -0.8028    4.5107 H         1 <0>         0.4329
     24 H6         -1.7797   -2.7039   -1.1440 H         1 <0>         0.1072
     25 H7         -1.6356   -1.2324   -2.1370 H         1 <0>         0.1042
     26 H8          0.1580   -3.0419   -2.4864 H         1 <0>         0.0956
     27 H9          0.7275   -1.3860   -2.2271 H         1 <0>         0.0765
     28 H10         1.1098   -3.6401   -0.4462 H         1 <0>         0.4103
     29 H11        -2.9756    0.2802    4.5009 H         1 <0>         0.4166
@<TRIPOS>BOND
     1    1    6 1
     2    1    2 2
     3    1   20 1
     4    2    3 1
     5    2   21 1
     6    3    4 1
     7    3    5 1
     8    5   18 1
     9    5    6 2
    10    6    7 1
    11    7    8 2
    12    7   15 1
    13    8   13 1
    14    8    9 1
    15    9   10 2
    16    9   11 1
    17   11   12 2
    18   12   13 1
    19   12   14 1
    20   13   22 1
    21   14   23 1
    22   14   29 1
    23   15   16 1
    24   15   24 1
    25   15   25 1
    26   16   17 1
    27   16   26 1
    28   16   27 1
    29   17   18 am
    30   17   28 1
    31   18   19 2
@<TRIPOS>MOLECULE
ZINC17836932
   28    30     0     0     0
SMALL
USER_CHARGES

@<TRIPOS>ATOM
      1 C1         -0.0169    1.3974    0.0097 C.2       1 <0>        -0.1837
      2 C2          1.2702    1.8202   -0.0003 C.2       1 <0>         0.0004
      3 N1          2.1021    0.7407   -0.0039 N.pl3     1 <0>        -0.5128
      4 H1          3.0712    0.7746   -0.0262 H         1 <0>         0.4175
      5 C3          1.3523   -0.3881    0.0294 C.2       1 <0>        -0.0610
      6 C4          0.0021   -0.0041    0.0020 C.2       1 <0>        -0.0505
      7 C5         -1.0954   -0.9746   -0.0792 C.2       1 <0>        -0.1179
      8 C6         -1.9958   -1.1127    0.9263 C.2       1 <0>         0.0730
      9 C7         -3.1409   -2.0437    0.9898 C.2       1 <0>         0.5128
     10 O1         -3.4737   -2.8538    0.1403 O.2       1 <0>        -0.5599
     11 N2         -3.7411   -1.8205    2.1670 N.2       1 <0>        -0.7181
     12 C8         -3.1131   -0.8750    2.8320 C.2       1 <0>         0.5699
     13 N3         -2.0413   -0.4096    2.1336 N.pl3     1 <0>        -0.6706
     14 N4         -3.4857   -0.4219    4.0677 N.2       1 <0>        -0.8565
     15 C9         -1.1779   -1.8161   -1.3382 C.3       1 <0>        -0.0822
     16 C10         0.2344   -2.2364   -1.7561 C.3       1 <0>         0.1194
     17 N5          1.0518   -2.6919   -0.6420 N.am      1 <0>        -0.7119
     18 C11         1.7342   -1.8045    0.1274 C.2       1 <0>         0.6056
     19 O2          2.6276   -2.1680    0.8695 O.2       1 <0>        -0.5464
     20 H2         -0.8959    2.0248    0.0255 H         1 <0>         0.1421
     21 H3          1.5877    2.8525   -0.0051 H         1 <0>         0.1694
     22 H4         -1.4251    0.2828    2.4195 H         1 <0>         0.4081
     23 H5         -1.7797   -2.7039   -1.1440 H         1 <0>         0.0999
     24 H6         -1.6356   -1.2324   -2.1370 H         1 <0>         0.0788
     25 H7          0.1580   -3.0419   -2.4864 H         1 <0>         0.0818
     26 H8          0.7275   -1.3860   -2.2271 H         1 <0>         0.0677
     27 H9          1.1098   -3.6401   -0.4462 H         1 <0>         0.4045
     28 H10        -4.2600   -0.8028    4.5107 H         1 <0>         0.3206
@<TRIPOS>BOND
     1    1    6 1
     2    1    2 2
     3    1   20 1
     4    2    3 1
     5    2   21 1
     6    3    4 1
     7    3    5 1
     8    5   18 1
     9    5    6 2
    10    6    7 1
    11    7    8 2
    12    7   15 1
    13    8   13 1
    14    8    9 1
    15    9   10 2
    16    9   11 1
    17   11   12 2
    18   12   13 1
    19   12   14 1
    20   13   22 1
    21   14   28 1
    22   15   16 1
    23   15   23 1
    24   15   24 1
    25   16   17 1
    26   16   25 1
    27   16   26 1
    28   17   18 am
    29   17   27 1
    30   18   19 2
@<TRIPOS>MOLECULE
ZINC17836932
   29    31     0     0     0
SMALL
USER_CHARGES

@<TRIPOS>ATOM
      1 C1         -0.0169    1.3974    0.0097 C.2       1 <0>        -0.1473
      2 C2          1.2702    1.8202   -0.0003 C.2       1 <0>         0.0092
      3 N1          2.1021    0.7407   -0.0039 N.pl3     1 <0>        -0.5042
      4 H1          3.0712    0.7746   -0.0262 H         1 <0>         0.4240
      5 C3          1.3523   -0.3881    0.0294 C.2       1 <0>        -0.0387
      6 C4          0.0021   -0.0041    0.0020 C.2       1 <0>        -0.0851
      7 C5         -1.0954   -0.9746   -0.0792 C.2       1 <0>         0.0169
      8 C6         -1.9958   -1.1127    0.9263 C.2       1 <0>        -0.0073
      9 C7         -2.0476   -0.3653    2.1993 C.2       1 <0>         0.5339
     10 O1         -1.2818    0.5113    2.5652 O.2       1 <0>        -0.4536
     11 N2         -3.1040   -0.8424    2.8719 N.2       1 <0>        -0.6434
     12 C8         -3.7052   -1.7839    2.1771 C.2       1 <0>         0.6538
     13 N3         -3.0830   -1.9895    0.9838 N.pl3     1 <0>        -0.6697
     14 N4         -4.8150   -2.4643    2.5968 N.pl3     1 <0>        -0.8063
     15 C9         -1.1779   -1.8161   -1.3382 C.3       1 <0>        -0.1035
     16 C10         0.2344   -2.2364   -1.7561 C.3       1 <0>         0.1166
     17 N5          1.0518   -2.6919   -0.6420 N.am      1 <0>        -0.7221
     18 C11         1.7342   -1.8045    0.1274 C.2       1 <0>         0.6004
     19 O2          2.6276   -2.1680    0.8695 O.2       1 <0>        -0.5251
     20 H2         -0.8959    2.0248    0.0255 H         1 <0>         0.1450
     21 H3          1.5877    2.8525   -0.0051 H         1 <0>         0.1764
     22 H4         -3.3442   -2.6274    0.3014 H         1 <0>         0.4230
     23 H5         -5.2100   -2.2627    3.4595 H         1 <0>         0.4328
     24 H6         -1.7797   -2.7039   -1.1440 H         1 <0>         0.0732
     25 H7         -1.6356   -1.2324   -2.1370 H         1 <0>         0.1044
     26 H8          0.1580   -3.0419   -2.4864 H         1 <0>         0.0919
     27 H9          0.7275   -1.3860   -2.2271 H         1 <0>         0.0817
     28 H10         1.1098   -3.6401   -0.4462 H         1 <0>         0.4070
     29 H11        -5.2071   -3.1483    2.0318 H         1 <0>         0.4159
@<TRIPOS>BOND
     1    1    6 1
     2    1    2 2
     3    1   20 1
     4    2    3 1
     5    2   21 1
     6    3    4 1
     7    3    5 1
     8    5   18 1
     9    5    6 2
    10    6    7 1
    11    7    8 2
    12    7   15 1
    13    8   13 1
    14    8    9 1
    15    9   10 2
    16    9   11 1
    17   11   12 2
    18   12   13 1
    19   12   14 1
    20   13   22 1
    21   14   23 1
    22   14   29 1
    23   15   16 1
    24   15   24 1
    25   15   25 1
    26   16   17 1
    27   16   26 1
    28   16   27 1
    29   17   18 am
    30   17   28 1
    31   18   19 2
@<TRIPOS>MOLECULE
ZINC17836932
   28    30     0     0     0
SMALL
USER_CHARGES

@<TRIPOS>ATOM
      1 C1         -0.0169    1.3974    0.0097 C.2       1 <0>        -0.1537
      2 C2          1.2702    1.8202   -0.0003 C.2       1 <0>        -0.0035
      3 N1          2.1021    0.7407   -0.0039 N.pl3     1 <0>        -0.5151
      4 H1          3.0712    0.7746   -0.0262 H         1 <0>         0.4151
      5 C3          1.3523   -0.3881    0.0294 C.2       1 <0>        -0.0685
      6 C4          0.0021   -0.0041    0.0020 C.2       1 <0>        -0.0220
      7 C5         -1.0954   -0.9746   -0.0792 C.2       1 <0>        -0.1234
      8 C6         -1.9958   -1.1127    0.9263 C.2       1 <0>         0.0745
      9 C7         -2.0476   -0.3653    2.1993 C.2       1 <0>         0.5098
     10 O1         -1.2818    0.5113    2.5652 O.2       1 <0>        -0.5436
     11 N2         -3.1040   -0.8424    2.8719 N.2       1 <0>        -0.7219
     12 C8         -3.7052   -1.7839    2.1771 C.2       1 <0>         0.5705
     13 N3         -3.0830   -1.9895    0.9838 N.pl3     1 <0>        -0.6745
     14 N4         -4.8150   -2.4643    2.5968 N.2       1 <0>        -0.8610
     15 C9         -1.1779   -1.8161   -1.3382 C.3       1 <0>        -0.0821
     16 C10         0.2344   -2.2364   -1.7561 C.3       1 <0>         0.1213
     17 N5          1.0518   -2.6919   -0.6420 N.am      1 <0>        -0.7182
     18 C11         1.7342   -1.8045    0.1274 C.2       1 <0>         0.6089
     19 O2          2.6276   -2.1680    0.8695 O.2       1 <0>        -0.5443
     20 H2         -0.8959    2.0248    0.0255 H         1 <0>         0.1386
     21 H3          1.5877    2.8525   -0.0051 H         1 <0>         0.1669
     22 H4         -3.3442   -2.6274    0.3014 H         1 <0>         0.4055
     23 H5         -1.7797   -2.7039   -1.1440 H         1 <0>         0.0640
     24 H6         -1.6356   -1.2324   -2.1370 H         1 <0>         0.0817
     25 H7          0.1580   -3.0419   -2.4864 H         1 <0>         0.0793
     26 H8          0.7275   -1.3860   -2.2271 H         1 <0>         0.0735
     27 H9          1.1098   -3.6401   -0.4462 H         1 <0>         0.4020
     28 H10        -5.2100   -2.2627    3.4595 H         1 <0>         0.3204
@<TRIPOS>BOND
     1    1    6 1
     2    1    2 2
     3    1   20 1
     4    2    3 1
     5    2   21 1
     6    3    4 1
     7    3    5 1
     8    5   18 1
     9    5    6 2
    10    6    7 1
    11    7    8 2
    12    7   15 1
    13    8   13 1
    14    8    9 1
    15    9   10 2
    16    9   11 1
    17   11   12 2
    18   12   13 1
    19   12   14 1
    20   13   22 1
    21   14   28 1
    22   15   16 1
    23   15   23 1
    24   15   24 1
    25   16   17 1
    26   16   25 1
    27   16   26 1
    28   17   18 am
    29   17   27 1
    30   18   19 2
@<TRIPOS>MOLECULE
ZINC06716957
   61    65     0     0     0
SMALL
USER_CHARGES
4-methyl-N-[3-(4-methylimidazol-1-yl)-5-(trifluoromethyl)phenyl]-3-[4-(3-pyridyl)pyrimidin-2-yl]amino-benzamide
@<TRIPOS>ATOM
      1 C1          4.8797   -3.9669    0.1547 C.3       1 <0>        -0.1225
      2 C2          3.5754   -4.7217    0.1669 C.ar      1 <0>        -0.0869
      3 C3          3.5795   -6.1039    0.1964 C.ar      1 <0>        -0.1014
      4 C4          2.3894   -6.8021    0.2020 C.ar      1 <0>        -0.1034
      5 C5          1.1753   -6.1126    0.1832 C.ar      1 <0>        -0.1270
      6 C6          1.1710   -4.7182    0.1589 C.ar      1 <0>        -0.0590
      7 C7          2.3724   -4.0259    0.1535 C.ar      1 <0>         0.1619
      8 N1          2.3736   -2.6277    0.1286 N.pl3     1 <0>        -0.6325
      9 C8          1.2893   -1.9432   -0.3959 C.ar      1 <0>         0.5614
     10 N2          0.3200   -2.6260   -0.9883 N.ar      1 <0>        -0.5534
     11 C9         -0.7320   -2.0090   -1.5021 C.ar      1 <0>         0.1977
     12 C10        -0.8164   -0.6303   -1.4172 C.ar      1 <0>        -0.2657
     13 C11         0.2206    0.0624   -0.7871 C.ar      1 <0>         0.2658
     14 N3          1.2507   -0.6239   -0.2975 N.ar      1 <0>        -0.5571
     15 C12         0.1772    1.5403   -0.6710 C.ar      1 <0>        -0.1169
     16 C13         1.2145    2.2342   -0.0406 C.ar      1 <0>        -0.0276
     17 C14         1.1266    3.6129    0.0420 C.ar      1 <0>        -0.1784
     18 C15         0.0258    4.2543   -0.4966 C.ar      1 <0>         0.1175
     19 N4         -0.9376    3.5726   -1.0856 N.ar      1 <0>        -0.4841
     20 C16        -0.8952    2.2604   -1.1934 C.ar      1 <0>         0.1340
     21 C17        -0.1012   -6.8583    0.1887 C.2       1 <0>         0.5673
     22 O1         -1.1570   -6.2560    0.1719 O.2       1 <0>        -0.5061
     23 N5         -0.0944   -8.2058    0.2122 N.am      1 <0>        -0.6669
     24 C18        -1.2963   -8.9130    0.1072 C.ar      1 <0>         0.1849
     25 C19        -1.4127  -10.1752    0.6766 C.ar      1 <0>        -0.1112
     26 C20        -2.6011  -10.8720    0.5773 C.ar      1 <0>        -0.1296
     27 C21        -3.6741  -10.3211   -0.0973 C.ar      1 <0>        -0.1084
     28 C22        -3.5624   -9.0626   -0.6729 C.ar      1 <0>         0.1652
     29 C23        -2.3721   -8.3576   -0.5706 C.ar      1 <0>        -0.1152
     30 N6         -4.6520   -8.5044   -1.3568 N.pl3     1 <0>        -0.4135
     31 C24        -4.6878   -7.2792   -1.9710 C.2       1 <0>        -0.0484
     32 C25        -5.9185   -7.1442   -2.5004 C.2       1 <0>         0.0096
     33 N7         -6.6190   -8.2532   -2.2203 N.2       1 <0>        -0.4758
     34 C26        -5.8695   -9.0779   -1.5408 C.2       1 <0>         0.1944
     35 C27        -6.4219   -5.9529   -3.2741 C.3       1 <0>        -0.0703
     36 C28        -2.7260  -12.2385    1.2004 C.3       1 <0>         0.5133
     37 F1         -2.3418  -13.2115    0.2714 F         1 <0>        -0.1709
     38 F2         -1.8981  -12.3154    2.3255 F         1 <0>        -0.1721
     39 F3         -4.0538  -12.4572    1.5826 F         1 <0>        -0.1717
     40 H1          5.1932   -3.7667    1.1793 H         1 <0>         0.0780
     41 H2          5.6404   -4.5642   -0.3479 H         1 <0>         0.0781
     42 H3          4.7488   -3.0240   -0.3761 H         1 <0>         0.0665
     43 H4          4.5175   -6.6391    0.2106 H         1 <0>         0.1366
     44 H5          2.3969   -7.8819    0.2212 H         1 <0>         0.1267
     45 H6          0.2351   -4.1794    0.1439 H         1 <0>         0.1656
     46 H7          3.1337   -2.1370    0.4786 H         1 <0>         0.4259
     47 H8         -1.5163   -2.5753   -1.9823 H         1 <0>         0.1768
     48 H9         -1.6642   -0.1022   -1.8280 H         1 <0>         0.1524
     49 H10         2.0625    1.7077    0.3717 H         1 <0>         0.1463
     50 H11         1.9093    4.1820    0.5216 H         1 <0>         0.1425
     51 H12        -0.0458    5.3301   -0.4343 H         1 <0>         0.1622
     52 H13        -1.7012    1.7376   -1.6869 H         1 <0>         0.1630
     53 H14         0.7441   -8.6851    0.3020 H         1 <0>         0.4178
     54 H15        -0.5744  -10.6101    1.2006 H         1 <0>         0.1488
     55 H16        -4.6008  -10.8701   -0.1765 H         1 <0>         0.1477
     56 H17        -2.2829   -7.3787   -1.0179 H         1 <0>         0.1618
     57 H18        -3.8832   -6.5605   -2.0210 H         1 <0>         0.1795
     58 H19        -6.1682  -10.0519   -1.1825 H         1 <0>         0.2113
     59 H20        -6.2142   -6.0943   -4.3347 H         1 <0>         0.0711
     60 H21        -7.4967   -5.8505   -3.1248 H         1 <0>         0.0731
     61 H22        -5.9187   -5.0522   -2.9223 H         1 <0>         0.0710
@<TRIPOS>BOND
     1    1    2 1
     2    1   40 1
     3    1   41 1
     4    1   42 1
     5    2    7 ar
     6    2    3 ar
     7    3    4 ar
     8    3   43 1
     9    4    5 ar
    10    4   44 1
    11    5    6 ar
    12    5   21 1
    13    6    7 ar
    14    6   45 1
    15    7    8 1
    16    8    9 1
    17    8   46 1
    18    9   14 ar
    19    9   10 ar
    20   10   11 ar
    21   11   12 ar
    22   11   47 1
    23   12   13 ar
    24   12   48 1
    25   13   14 ar
    26   13   15 1
    27   15   20 ar
    28   15   16 ar
    29   16   17 ar
    30   16   49 1
    31   17   18 ar
    32   17   50 1
    33   18   19 ar
    34   18   51 1
    35   19   20 ar
    36   20   52 1
    37   21   22 2
    38   21   23 am
    39   23   24 1
    40   23   53 1
    41   24   29 ar
    42   24   25 ar
    43   25   26 ar
    44   25   54 1
    45   26   27 ar
    46   26   36 1
    47   27   28 ar
    48   27   55 1
    49   28   29 ar
    50   28   30 1
    51   29   56 1
    52   30   34 1
    53   30   31 1
    54   31   32 2
    55   31   57 1
    56   32   33 1
    57   32   35 1
    58   33   34 2
    59   34   58 1
    60   35   59 1
    61   35   60 1
    62   35   61 1
    63   36   37 1
    64   36   38 1
    65   36   39 1
@<TRIPOS>MOLECULE
ZINC14951176
   39    42     0     0     0
SMALL
USER_CHARGES

@<TRIPOS>ATOM
      1 C1          0.2405    1.0255    0.8302 C.ar      1 <0>        -0.0645
      2 C2          1.4224    1.7334    0.7710 C.ar      1 <0>        -0.1488
      3 C3          2.3671    1.4303   -0.1967 C.ar      1 <0>         0.1270
      4 C4          2.1300    0.4154   -1.1103 C.ar      1 <0>        -0.1484
      5 C5          0.9516   -0.2992   -1.0607 C.ar      1 <0>        -0.0503
      6 C6         -0.0037    0.0016   -0.0874 C.ar      1 <0>        -0.0633
      7 C7         -1.2678   -0.7602   -0.0291 C.2       1 <0>         0.1046
      8 C8         -1.3961   -2.1162   -0.0863 C.2       1 <0>         0.0796
      9 N1         -2.7456   -2.4073    0.0017 N.pl3     1 <0>        -0.5519
     10 C9         -3.4195   -1.2472    0.1100 C.2       1 <0>         0.4661
     11 C10        -4.8730   -1.1131    0.2269 C.2       1 <0>        -0.2712
     12 C11        -5.4545    0.1603    0.3285 C.2       1 <0>        -0.0131
     13 C12        -6.8063    0.2847    0.4372 C.2       1 <0>        -0.2432
     14 C13        -7.6177   -0.8599    0.4477 C.2       1 <0>         0.3274
     15 O1         -8.9418   -0.7377    0.5542 O.2       1 <0>        -0.6199
     16 C14        -7.0368   -2.1329    0.3456 C.2       1 <0>        -0.2432
     17 C15        -5.6854   -2.2577    0.2315 C.2       1 <0>        -0.0132
     18 N2         -2.5363   -0.2302    0.0993 N.pl3     1 <0>        -0.5537
     19 C16        -0.2980   -3.0933   -0.2185 C.ar      1 <0>         0.0029
     20 C17         0.8460   -3.0046    0.5859 C.ar      1 <0>        -0.1375
     21 C18         1.8471   -3.9391    0.4288 C.ar      1 <0>         0.1110
     22 N3          1.7384   -4.9058   -0.4634 N.ar      1 <0>        -0.4697
     23 C19         0.6787   -5.0262   -1.2411 C.ar      1 <0>         0.1111
     24 C20        -0.3725   -4.1394   -1.1479 C.ar      1 <0>        -0.1541
     25 F1          3.5233    2.1271   -0.2501 F         1 <0>        -0.1285
     26 H1         -0.4930    1.2596    1.5875 H         1 <0>         0.1388
     27 H2          1.6122    2.5258    1.4800 H         1 <0>         0.1474
     28 H3          2.8693    0.1839   -1.8628 H         1 <0>         0.1469
     29 H4          0.7677   -1.0896   -1.7733 H         1 <0>         0.1375
     30 H5         -3.1383   -3.2941   -0.0126 H         1 <0>         0.4530
     31 H6         -4.8300    1.0414    0.3209 H         1 <0>         0.1049
     32 H7         -7.2538    1.2645    0.5158 H         1 <0>         0.1221
     33 H8         -7.6616   -3.0138    0.3533 H         1 <0>         0.1221
     34 H9         -5.2386   -3.2374    0.1489 H         1 <0>         0.1046
     35 H10        -2.7542    0.7126    0.1673 H         1 <0>         0.4532
     36 H11         0.9421   -2.2159    1.3174 H         1 <0>         0.1420
     37 H12         2.7328   -3.8793    1.0439 H         1 <0>         0.1658
     38 H13         0.6328   -5.8333   -1.9573 H         1 <0>         0.1659
     39 H14        -1.2383   -4.2467   -1.7845 H         1 <0>         0.1405
@<TRIPOS>BOND
     1    1    6 ar
     2    1    2 ar
     3    1   26 1
     4    2    3 ar
     5    2   27 1
     6    3    4 ar
     7    3   25 1
     8    4    5 ar
     9    4   28 1
    10    5    6 ar
    11    5   29 1
    12    6    7 1
    13    7   18 1
    14    7    8 2
    15    8    9 1
    16    8   19 1
    17    9   10 1
    18    9   30 1
    19   10   11 2
    20   10   18 1
    21   11   17 1
    22   11   12 1
    23   12   13 2
    24   12   31 1
    25   13   14 1
    26   13   32 1
    27   14   15 2
    28   14   16 1
    29   16   17 2
    30   16   33 1
    31   17   34 1
    32   18   35 1
    33   19   24 ar
    34   19   20 ar
    35   20   21 ar
    36   20   36 1
    37   21   22 ar
    38   21   37 1
    39   22   23 ar
    40   23   24 ar
    41   23   38 1
    42   24   39 1
@<TRIPOS>MOLECULE
ZINC14951176
   40    43     0     0     0
SMALL
USER_CHARGES

@<TRIPOS>ATOM
      1 C1          0.2405    1.0255    0.8302 C.ar      1 <0>        -0.0528
      2 C2          1.4224    1.7334    0.7710 C.ar      1 <0>        -0.1439
      3 C3          2.3671    1.4303   -0.1967 C.ar      1 <0>         0.1411
      4 C4          2.1300    0.4154   -1.1103 C.ar      1 <0>        -0.1508
      5 C5          0.9516   -0.2992   -1.0607 C.ar      1 <0>        -0.0597
      6 C6         -0.0037    0.0016   -0.0874 C.ar      1 <0>        -0.0905
      7 C7         -1.2678   -0.7602   -0.0291 C.2       1 <0>         0.1717
      8 C8         -1.3961   -2.1162   -0.0863 C.2       1 <0>         0.0049
      9 N1         -2.7456   -2.4073    0.0017 N.pl3     1 <0>        -0.5619
     10 C9         -3.4195   -1.2472    0.1100 C.2       1 <0>         0.4672
     11 C10        -4.8730   -1.1131    0.2269 C.2       1 <0>        -0.2599
     12 C11        -5.6849   -2.2580    0.2378 C.2       1 <0>        -0.0193
     13 C12        -7.0367   -2.1330    0.3465 C.2       1 <0>        -0.2271
     14 C13        -7.6177   -0.8599    0.4475 C.2       1 <0>         0.3291
     15 O1         -8.9418   -0.7377    0.5539 O.2       1 <0>        -0.5899
     16 C14        -6.8064    0.2847    0.4370 C.2       1 <0>        -0.2265
     17 C15        -5.4541    0.1600    0.3338 C.2       1 <0>        -0.0193
     18 N2         -2.5363   -0.2302    0.0993 N.pl3     1 <0>        -0.5609
     19 C16        -0.2980   -3.0933   -0.2185 C.ar      1 <0>         0.1131
     20 C17         0.8460   -3.0046    0.5859 C.ar      1 <0>        -0.1113
     21 C18         1.8471   -3.9391    0.4288 C.ar      1 <0>         0.1475
     22 N3          1.7384   -4.9058   -0.4634 N.ar      1 <0>        -0.4453
     23 C19         0.6789   -5.0260   -1.2413 C.ar      1 <0>         0.1502
     24 C20        -0.3725   -4.1394   -1.1479 C.ar      1 <0>        -0.1247
     25 F1          3.5233    2.1271   -0.2501 F         1 <0>        -0.1206
     26 H1         -0.4930    1.2596    1.5875 H         1 <0>         0.1448
     27 H2          1.6122    2.5258    1.4800 H         1 <0>         0.1545
     28 H3          2.8693    0.1839   -1.8628 H         1 <0>         0.1503
     29 H4          0.7677   -1.0896   -1.7733 H         1 <0>         0.1343
     30 H5         -3.1383   -3.2941   -0.0126 H         1 <0>         0.4541
     31 H6         -5.2377   -3.2379    0.1597 H         1 <0>         0.1066
     32 H7         -7.6615   -3.0138    0.3545 H         1 <0>         0.1278
     33 H8         -7.2539    1.2645    0.5152 H         1 <0>         0.1286
     34 H9         -4.8293    1.0409    0.3299 H         1 <0>         0.1087
     35 H10        -2.7542    0.7126    0.1673 H         1 <0>         0.4588
     36 H11         0.9421   -2.2159    1.3174 H         1 <0>         0.1893
     37 H12         2.7328   -3.8793    1.0439 H         1 <0>         0.2181
     38 H13         0.6331   -5.8328   -1.9578 H         1 <0>         0.2182
     39 H14        -1.2383   -4.2467   -1.7845 H         1 <0>         0.1884
     40 H15         2.4602   -5.5480   -0.5503 H         1 <0>         0.4572
@<TRIPOS>BOND
     1    1    6 ar
     2    1    2 ar
     3    1   26 1
     4    2    3 ar
     5    2   27 1
     6    3    4 ar
     7    3   25 1
     8    4    5 ar
     9    4   28 1
    10    5    6 ar
    11    5   29 1
    12    6    7 1
    13    7   18 1
    14    7    8 2
    15    8    9 1
    16    8   19 1
    17    9   10 1
    18    9   30 1
    19   10   11 2
    20   10   18 1
    21   11   17 1
    22   11   12 1
    23   12   13 2
    24   12   31 1
    25   13   14 1
    26   13   32 1
    27   14   15 2
    28   14   16 1
    29   16   17 2
    30   16   33 1
    31   17   34 1
    32   18   35 1
    33   19   24 ar
    34   19   20 ar
    35   20   21 ar
    36   20   36 1
    37   21   22 ar
    38   21   37 1
    39   22   23 ar
    40   22   40 1
    41   23   24 ar
    42   23   38 1
    43   24   39 1
@<TRIPOS>MOLECULE
ZINC14951176
   39    42     0     0     0
SMALL
USER_CHARGES

@<TRIPOS>ATOM
      1 C1         -0.0169    1.3921    0.0097 C.ar      1 <0>        -0.0566
      2 C2          1.1683    2.0955    0.0022 C.ar      1 <0>        -0.1420
      3 C3          2.3804    1.4175   -0.0135 C.ar      1 <0>         0.1205
      4 C4          2.4035    0.0288   -0.0217 C.ar      1 <0>        -0.1413
      5 C5          1.2227   -0.6820   -0.0137 C.ar      1 <0>        -0.0915
      6 C6          0.0021   -0.0041    0.0020 C.ar      1 <0>        -0.0305
      7 C7         -1.2663   -0.7622    0.0101 C.2       1 <0>         0.2668
      8 N1         -2.4688   -0.2344    0.0239 N.2       1 <0>        -0.4516
      9 H1         -0.6429   -2.7598   -0.0166 H         1 <0>         0.4248
     10 C8         -3.3891   -1.2133    0.0276 C.2       1 <0>         0.0607
     11 C9         -2.7170   -2.4244    0.0153 C.2       1 <0>         0.0509
     12 N2         -1.3752   -2.1239   -0.0017 N.pl3     1 <0>        -0.5528
     13 C10        -3.3214   -3.7709    0.0147 C.ar      1 <0>        -0.0389
     14 C11        -4.3834   -4.0632    0.8738 C.ar      1 <0>        -0.0572
     15 C12        -4.9440   -5.3230    0.8688 C.ar      1 <0>        -0.1473
     16 C13        -4.4555   -6.2985    0.0139 C.ar      1 <0>         0.1118
     17 C14        -3.4017   -6.0145   -0.8405 C.ar      1 <0>        -0.1493
     18 C15        -2.8374   -4.7564   -0.8492 C.ar      1 <0>        -0.0780
     19 F1         -5.0084   -7.5311    0.0136 F         1 <0>        -0.1337
     20 C16        -4.8582   -1.0303    0.0430 C.ar      1 <0>         0.0400
     21 C17        -5.7004   -1.9173   -0.6371 C.ar      1 <0>        -0.1586
     22 C18        -7.0629   -1.7095   -0.5964 C.ar      1 <0>         0.1014
     23 N3         -7.5737   -0.6921    0.0713 N.ar      1 <0>        -0.4840
     24 C19        -6.8154    0.1672    0.7258 C.ar      1 <0>         0.1006
     25 C20        -5.4433    0.0310    0.7427 C.ar      1 <0>        -0.1465
     26 O1          3.5463    2.1144   -0.0214 O.3       1 <0>        -0.4977
     27 H2         -0.9589    1.9200    0.0260 H         1 <0>         0.1437
     28 H3          1.1545    3.1754    0.0081 H         1 <0>         0.1381
     29 H4          3.3480   -0.4948   -0.0346 H         1 <0>         0.1359
     30 H5          1.2415   -1.7618   -0.0204 H         1 <0>         0.1230
     31 H6         -4.7644   -3.3041    1.5409 H         1 <0>         0.1365
     32 H7         -5.7651   -5.5501    1.5325 H         1 <0>         0.1435
     33 H8         -3.0248   -6.7788   -1.5040 H         1 <0>         0.1419
     34 H9         -2.0195   -4.5348   -1.5187 H         1 <0>         0.1326
     35 H10        -5.2894   -2.7518   -1.1857 H         1 <0>         0.1340
     36 H11        -7.7211   -2.3883   -1.1184 H         1 <0>         0.1574
     37 H12        -7.2760    0.9856    1.2591 H         1 <0>         0.1586
     38 H13        -4.8292    0.7351    1.2845 H         1 <0>         0.1395
     39 H14         3.8927    2.3115    0.8597 H         1 <0>         0.3954
@<TRIPOS>BOND
     1    1    6 ar
     2    1    2 ar
     3    1   27 1
     4    2    3 ar
     5    2   28 1
     6    3    4 ar
     7    3   26 1
     8    4    5 ar
     9    4   29 1
    10    5    6 ar
    11    5   30 1
    12    6    7 1
    13    7    8 2
    14    7   12 1
    15    8   10 1
    16    9   12 1
    17   10   20 1
    18   10   11 2
    19   11   13 1
    20   11   12 1
    21   13   18 ar
    22   13   14 ar
    23   14   15 ar
    24   14   31 1
    25   15   16 ar
    26   15   32 1
    27   16   17 ar
    28   16   19 1
    29   17   18 ar
    30   17   33 1
    31   18   34 1
    32   20   25 ar
    33   20   21 ar
    34   21   22 ar
    35   21   35 1
    36   22   23 ar
    37   22   36 1
    38   23   24 ar
    39   24   25 ar
    40   24   37 1
    41   25   38 1
    42   26   39 1
@<TRIPOS>MOLECULE
ZINC14951176
   40    43     0     0     0
SMALL
USER_CHARGES

@<TRIPOS>ATOM
      1 C1         -0.0079    1.3560    0.4128 C.ar      1 <0>        -0.0502
      2 C2          1.1789    2.0446    0.5411 C.ar      1 <0>        -0.1379
      3 C3          2.3872    1.3600    0.5181 C.ar      1 <0>         0.1743
      4 C4          2.4048   -0.0205    0.3656 C.ar      1 <0>        -0.1372
      5 C5          1.2223   -0.7164    0.2363 C.ar      1 <0>        -0.0529
      6 C6          0.0054   -0.0319    0.2597 C.ar      1 <0>        -0.1114
      7 C7         -1.2648   -0.7743    0.1224 C.cat     1 <0>         0.3974
      8 N1         -2.5103   -0.2175    0.1240 N.pl3     1 <0>        -0.5055
      9 H1         -2.7195    0.7253    0.2141 H         1 <0>         0.4639
     10 C8         -3.4150   -1.2456   -0.0267 C.2       1 <0>         0.1188
     11 C9         -2.6710   -2.4104   -0.1160 C.2       1 <0>         0.1124
     12 N2         -1.3744   -2.0755   -0.0265 N.pl3     1 <0>        -0.4709
     13 C10        -3.2098   -3.7802   -0.2862 C.ar      1 <0>        -0.0876
     14 C11        -4.1834   -4.0340   -1.2519 C.ar      1 <0>        -0.0424
     15 C12        -4.6816   -5.3110   -1.4069 C.ar      1 <0>        -0.1470
     16 C13        -4.2164   -6.3406   -0.6047 C.ar      1 <0>         0.1433
     17 C14        -3.2491   -6.0935    0.3562 C.ar      1 <0>        -0.1478
     18 C15        -2.7406   -4.8209    0.5148 C.ar      1 <0>        -0.0599
     19 F1         -4.7080   -7.5895   -0.7596 F         1 <0>        -0.1208
     20 C16        -4.8840   -1.1288   -0.0821 C.ar      1 <0>        -0.0205
     21 C17        -5.7034   -1.9735    0.6798 C.ar      1 <0>        -0.1289
     22 C18        -7.0715   -1.8287    0.5974 C.ar      1 <0>         0.1171
     23 N3         -7.6107   -0.9116   -0.1841 N.ar      1 <0>        -0.4578
     24 C19        -6.8767   -0.0959   -0.9180 C.ar      1 <0>         0.1165
     25 C20        -5.5005   -0.1662   -0.8936 C.ar      1 <0>        -0.1481
     26 O1          3.5548    2.0423    0.6448 O.3       1 <0>        -0.4899
     27 H2         -0.9472    1.8885    0.4352 H         1 <0>         0.1371
     28 H3          1.1694    3.1181    0.6592 H         1 <0>         0.1540
     29 H4          3.3464   -0.5492    0.3479 H         1 <0>         0.1543
     30 H5          1.2369   -1.7897    0.1170 H         1 <0>         0.1372
     31 H6         -4.5471   -3.2320   -1.8771 H         1 <0>         0.1402
     32 H7         -5.4356   -5.5085   -2.1544 H         1 <0>         0.1527
     33 H8         -2.8897   -6.8992    0.9791 H         1 <0>         0.1527
     34 H9         -1.9838   -4.6301    1.2612 H         1 <0>         0.1391
     35 H10        -5.2693   -2.7263    1.3211 H         1 <0>         0.1460
     36 H11        -7.7114   -2.4748    1.1801 H         1 <0>         0.1719
     37 H12        -7.3614    0.6395   -1.5430 H         1 <0>         0.1713
     38 H13        -4.9063    0.5074   -1.4932 H         1 <0>         0.1422
     39 H14         3.8545    2.1428    1.5587 H         1 <0>         0.4115
     40 H15        -0.6320   -2.6987   -0.0633 H         1 <0>         0.4629
@<TRIPOS>BOND
     1    1    6 ar
     2    1    2 ar
     3    1   27 1
     4    2    3 ar
     5    2   28 1
     6    3    4 ar
     7    3   26 1
     8    4    5 ar
     9    4   29 1
    10    5    6 ar
    11    5   30 1
    12    6    7 1
    13    7   12 2
    14    7    8 1
    15    8    9 1
    16    8   10 1
    17   10   11 2
    18   10   20 1
    19   11   12 1
    20   11   13 1
    21   12   40 1
    22   13   18 ar
    23   13   14 ar
    24   14   15 ar
    25   14   31 1
    26   15   16 ar
    27   15   32 1
    28   16   17 ar
    29   16   19 1
    30   17   18 ar
    31   17   33 1
    32   18   34 1
    33   20   25 ar
    34   20   21 ar
    35   21   22 ar
    36   21   35 1
    37   22   23 ar
    38   22   36 1
    39   23   24 ar
    40   24   25 ar
    41   24   37 1
    42   25   38 1
    43   26   39 1
@<TRIPOS>MOLECULE
ZINC14951176
   40    43     0     0     0
SMALL
USER_CHARGES

@<TRIPOS>ATOM
      1 C1         -0.0268    1.3873   -0.2487 C.ar      1 <0>        -0.0533
      2 C2          1.1507    2.0881   -0.3954 C.ar      1 <0>        -0.1372
      3 C3          2.3508    1.4075   -0.5560 C.ar      1 <0>         0.1741
      4 C4          2.3694    0.0187   -0.5693 C.ar      1 <0>        -0.1379
      5 C5          1.1963   -0.6894   -0.4227 C.ar      1 <0>        -0.0501
      6 C6         -0.0123   -0.0089   -0.2611 C.ar      1 <0>        -0.1113
      7 C7         -1.2726   -0.7643   -0.1040 C.cat     1 <0>         0.3964
      8 N1         -1.3739   -2.1224    0.0021 N.pl3     1 <0>        -0.5087
      9 H1         -0.6406   -2.7573   -0.0113 H         1 <0>         0.4641
     10 C8         -2.7098   -2.4213    0.1324 C.2       1 <0>         0.1445
     11 C9         -3.3862   -1.2129    0.1003 C.2       1 <0>         0.0865
     12 N2         -2.4734   -0.2367   -0.0386 N.pl3     1 <0>        -0.4668
     13 C10        -4.8514   -1.0295    0.2063 C.ar      1 <0>        -0.0181
     14 C11        -5.5878   -1.6830    1.2008 C.ar      1 <0>        -0.1314
     15 C12        -6.9507   -1.4834    1.2636 C.ar      1 <0>         0.1177
     16 N3         -7.5598   -0.6900    0.4025 N.ar      1 <0>        -0.4587
     17 C13        -6.9031   -0.0552   -0.5501 C.ar      1 <0>         0.1173
     18 C14        -5.5375   -0.1932   -0.6817 C.ar      1 <0>        -0.1516
     19 C15        -3.3053   -3.7640    0.2776 C.ar      1 <0>        -0.0905
     20 C16        -4.4063   -4.1307   -0.5000 C.ar      1 <0>        -0.0398
     21 C17        -4.9583   -5.3865   -0.3599 C.ar      1 <0>        -0.1481
     22 C18        -4.4232   -6.2840    0.5507 C.ar      1 <0>         0.1454
     23 C19        -3.3311   -5.9257    1.3253 C.ar      1 <0>        -0.1491
     24 C20        -2.7664   -4.6752    1.1893 C.ar      1 <0>        -0.0562
     25 F1         -4.9685   -7.5129    0.6840 F         1 <0>        -0.1204
     26 O1          3.5092    2.1019   -0.7007 O.3       1 <0>        -0.4899
     27 H2         -0.9590    1.9172   -0.1198 H         1 <0>         0.1369
     28 H3          1.1404    3.1680   -0.3860 H         1 <0>         0.1542
     29 H4          3.3045   -0.5068   -0.6950 H         1 <0>         0.1540
     30 H5          1.2115   -1.7693   -0.4335 H         1 <0>         0.1375
     31 H6         -5.0961   -2.3342    1.9084 H         1 <0>         0.1454
     32 H7         -7.5277   -1.9833    2.0275 H         1 <0>         0.1715
     33 H8         -7.4422    0.5842   -1.2336 H         1 <0>         0.1711
     34 H9         -5.0059    0.3326   -1.4610 H         1 <0>         0.1417
     35 H10        -4.8245   -3.4319   -1.2094 H         1 <0>         0.1408
     36 H11        -5.8095   -5.6711   -0.9606 H         1 <0>         0.1531
     37 H12        -2.9189   -6.6290    2.0337 H         1 <0>         0.1530
     38 H13        -1.9125   -4.3987    1.7900 H         1 <0>         0.1398
     39 H14         3.9581    2.2964    0.1334 H         1 <0>         0.4114
     40 H15        -2.6712    0.7118   -0.0857 H         1 <0>         0.4627
@<TRIPOS>BOND
     1    1    6 ar
     2    1    2 ar
     3    1   27 1
     4    2    3 ar
     5    2   28 1
     6    3    4 ar
     7    3   26 1
     8    4    5 ar
     9    4   29 1
    10    5    6 ar
    11    5   30 1
    12    6    7 1
    13    7   12 2
    14    7    8 1
    15    8    9 1
    16    8   10 1
    17   10   11 2
    18   10   19 1
    19   11   12 1
    20   11   13 1
    21   12   40 1
    22   13   18 ar
    23   13   14 ar
    24   14   15 ar
    25   14   31 1
    26   15   16 ar
    27   15   32 1
    28   16   17 ar
    29   17   18 ar
    30   17   33 1
    31   18   34 1
    32   19   24 ar
    33   19   20 ar
    34   20   21 ar
    35   20   35 1
    36   21   22 ar
    37   21   36 1
    38   22   23 ar
    39   22   25 1
    40   23   24 ar
    41   23   37 1
    42   24   38 1
    43   26   39 1
@<TRIPOS>MOLECULE
ZINC01026247
   43    44     0     0     0
SMALL
USER_CHARGES
methyl 3-[(4-chlorophenyl)carbamoylamino]-5-tert-butyl-thiophene-2-carboxylate
@<TRIPOS>ATOM
      1 C1         -2.7865    0.2861    1.2310 C.3       1 <0>        -0.1392
      2 C2         -2.5859    1.1540   -0.0130 C.3       1 <0>         0.0102
      3 C3         -3.6084    2.2923   -0.0109 C.3       1 <0>        -0.1546
      4 C4         -2.7769    0.2992   -1.2674 C.3       1 <0>        -0.1390
      5 C5         -1.1933    1.7297   -0.0047 C.2       1 <0>        -0.1051
      6 C6         -0.0098    1.0669   -0.0036 C.2       1 <0>        -0.1917
      7 C7          1.1659    1.7877   -0.0008 C.2       1 <0>         0.2561
      8 C8          1.0497    3.1776    0.0063 C.2       1 <0>        -0.3108
      9 S1         -0.7206    3.3972    0.0087 S.3       1 <0>         0.2099
     10 C9          2.0696    4.1574    0.0113 C.2       1 <0>         0.5616
     11 O1          3.2387    3.8189    0.0095 O.2       1 <0>        -0.5147
     12 O2          1.7464    5.4679    0.0180 O.3       1 <0>        -0.3488
     13 C10         2.8273    6.4027    0.0227 C.3       1 <0>         0.0365
     14 N1          2.4104    1.1575   -0.0053 N.am      1 <0>        -0.6594
     15 C11         2.5762   -0.0114    0.6448 C.2       1 <0>         0.7080
     16 O3          1.6232   -0.5576    1.1662 O.2       1 <0>        -0.5491
     17 N2          3.7984   -0.5749    0.7169 N.am      1 <0>        -0.6776
     18 C12         3.9556   -1.8318    1.3127 C.ar      1 <0>         0.1641
     19 C13         3.1757   -2.1858    2.4057 C.ar      1 <0>        -0.1060
     20 C14         3.3281   -3.4291    2.9876 C.ar      1 <0>        -0.0902
     21 C15         4.2659   -4.3168    2.4902 C.ar      1 <0>        -0.0487
     22 C16         5.0486   -3.9641    1.4049 C.ar      1 <0>        -0.0901
     23 C17         4.8956   -2.7246    0.8153 C.ar      1 <0>        -0.1312
     24 Cl1         4.4604   -5.8758    3.2287 Cl        1 <0>        -0.0681
     25 H1         -2.6504    0.8951    2.1247 H         1 <0>         0.0605
     26 H2         -3.7938   -0.1303    1.2250 H         1 <0>         0.0685
     27 H3         -2.0581   -0.5248    1.2295 H         1 <0>         0.0649
     28 H4         -3.4655    2.9106   -0.8971 H         1 <0>         0.0638
     29 H5         -4.6157    1.8758   -0.0169 H         1 <0>         0.0737
     30 H6         -3.4723    2.9013    0.8828 H         1 <0>         0.0636
     31 H7         -2.0486   -0.5117   -1.2689 H         1 <0>         0.0618
     32 H8         -3.7843   -0.1172   -1.2734 H         1 <0>         0.0696
     33 H9         -2.6341    0.9175   -2.1537 H         1 <0>         0.0608
     34 H10         0.0115   -0.0129   -0.0095 H         1 <0>         0.1625
     35 H11         2.4299    7.4176    0.0280 H         1 <0>         0.1051
     36 H12         3.4383    6.2471    0.9119 H         1 <0>         0.0623
     37 H13         3.4382    6.2562   -0.8681 H         1 <0>         0.0626
     38 H14         3.1564    1.5607   -0.4763 H         1 <0>         0.4214
     39 H15         4.5691   -0.1095    0.3560 H         1 <0>         0.4133
     40 H16         2.4470   -1.4915    2.7973 H         1 <0>         0.1498
     41 H17         2.7182   -3.7068    3.8345 H         1 <0>         0.1380
     42 H18         5.7796   -4.6589    1.0184 H         1 <0>         0.1391
     43 H19         5.5062   -2.4502   -0.0321 H         1 <0>         0.1364
@<TRIPOS>BOND
     1    1    2 1
     2    1   25 1
     3    1   26 1
     4    1   27 1
     5    2    3 1
     6    2    4 1
     7    2    5 1
     8    3   28 1
     9    3   29 1
    10    3   30 1
    11    4   31 1
    12    4   32 1
    13    4   33 1
    14    5    9 1
    15    5    6 2
    16    6    7 1
    17    6   34 1
    18    7    8 2
    19    7   14 1
    20    8    9 1
    21    8   10 1
    22   10   11 2
    23   10   12 1
    24   12   13 1
    25   13   35 1
    26   13   36 1
    27   13   37 1
    28   14   15 am
    29   14   38 1
    30   15   16 2
    31   15   17 am
    32   17   18 1
    33   17   39 1
    34   18   23 ar
    35   18   19 ar
    36   19   20 ar
    37   19   40 1
    38   20   21 ar
    39   20   41 1
    40   21   22 ar
    41   21   24 1
    42   22   23 ar
    43   22   42 1
    44   23   43 1
@<TRIPOS>MOLECULE
ZINC01420826
   33    35     0     0     0
SMALL
USER_CHARGES

@<TRIPOS>ATOM
      1 C1         -0.2640    1.4582    0.2295 C.3       1 <0>         0.0301
      2 O1         -0.2493    0.0297    0.1969 O.3       1 <0>        -0.3207
      3 C2          0.4992   -0.6018    1.1409 C.ar      1 <0>         0.0490
      4 C3          1.1978    0.1379    2.0794 C.ar      1 <0>        -0.1382
      5 C4          1.9630   -0.4975    3.0440 C.ar      1 <0>        -0.1406
      6 C5          2.0373   -1.8727    3.0802 C.ar      1 <0>        -0.0639
      7 C6          1.3377   -2.6358    2.1402 C.ar      1 <0>        -0.1328
      8 C7          0.5583   -1.9932    1.1669 C.ar      1 <0>         0.2409
      9 N1         -0.1475   -2.7419    0.2283 N.pl3     1 <0>        -0.8573
     10 C8          1.4147   -4.1068    2.1749 C.2       1 <0>         0.2178
     11 C9          1.0618   -4.7544    3.3206 C.2       1 <0>        -0.3076
     12 C10         1.1294   -6.1644    3.3719 C.2       1 <0>         0.4204
     13 O2          0.8210   -6.7776    4.3806 O.2       1 <0>        -0.4693
     14 C11         1.5877   -6.8669    2.1564 C.ar      1 <0>        -0.2226
     15 C12         1.6848   -8.2567    2.1164 C.ar      1 <0>        -0.0314
     16 C13         2.1163   -8.8752    0.9631 C.ar      1 <0>        -0.1475
     17 C14         2.4521   -8.1209   -0.1515 C.ar      1 <0>        -0.0571
     18 C15         2.3601   -6.7455   -0.1239 C.ar      1 <0>        -0.1402
     19 C16         1.9272   -6.1026    1.0294 C.ar      1 <0>         0.1418
     20 O3          1.8245   -4.7578    1.0752 O.3       1 <0>        -0.2203
     21 H1          0.7504    1.8351    0.0993 H         1 <0>         0.0561
     22 H2         -0.8970    1.8335   -0.5746 H         1 <0>         0.1012
     23 H3         -0.6567    1.7957    1.1887 H         1 <0>         0.0563
     24 H4          1.1465    1.2165    2.0594 H         1 <0>         0.1344
     25 H5          2.5047    0.0887    3.7716 H         1 <0>         0.1330
     26 H6          2.6362   -2.3614    3.8344 H         1 <0>         0.1334
     27 H7         -0.6084   -2.2967   -0.4999 H         1 <0>         0.4092
     28 H8         -0.1781   -3.7086    0.3027 H         1 <0>         0.3993
     29 H9          0.7332   -4.1938    4.1832 H         1 <0>         0.1616
     30 H10         1.4240   -8.8450    2.9837 H         1 <0>         0.1428
     31 H11         2.1936   -9.9518    0.9270 H         1 <0>         0.1372
     32 H12         2.7895   -8.6160   -1.0501 H         1 <0>         0.1415
     33 H13         2.6246   -6.1683   -0.9976 H         1 <0>         0.1434
@<TRIPOS>BOND
     1    1    2 1
     2    1   21 1
     3    1   22 1
     4    1   23 1
     5    2    3 1
     6    3    8 ar
     7    3    4 ar
     8    4    5 ar
     9    4   24 1
    10    5    6 ar
    11    5   25 1
    12    6    7 ar
    13    6   26 1
    14    7    8 ar
    15    7   10 1
    16    8    9 1
    17    9   27 1
    18    9   28 1
    19   10   20 1
    20   10   11 2
    21   11   12 1
    22   11   29 1
    23   12   13 2
    24   12   14 1
    25   14   19 ar
    26   14   15 ar
    27   15   16 ar
    28   15   30 1
    29   16   17 ar
    30   16   31 1
    31   17   18 ar
    32   17   32 1
    33   18   19 ar
    34   18   33 1
    35   19   20 1
@<TRIPOS>MOLECULE
ZINC17175232
   28    30     0     0     0
SMALL
USER_CHARGES

@<TRIPOS>ATOM
      1 C1         -0.0163    1.3518    0.0095 C.2       1 <0>        -0.1320
      2 C2          1.3148    1.7902   -0.0009 C.2       1 <0>        -0.0473
      3 C3          2.1177    0.6382   -0.0541 C.2       1 <0>        -0.0284
      4 N1          1.2938   -0.4402   -0.0184 N.pl3     1 <0>        -0.4947
      5 H1          1.5772   -1.3679   -0.0093 H         1 <0>         0.4228
      6 C4          0.0021   -0.0041    0.0020 C.2       1 <0>         0.0135
      7 Br1        -1.5265   -1.1172    0.0181 Br        1 <0>         0.0029
      8 C5          3.5766    0.7389   -0.1870 C.2       1 <0>         0.6051
      9 O1          4.1929    0.0169   -0.9490 O.2       1 <0>        -0.5408
     10 N2          4.2121    1.6686    0.5723 N.am      1 <0>        -0.7065
     11 C6          3.5429    2.2863    1.7070 C.3       1 <0>         0.1163
     12 C7          2.6757    3.4872    1.3174 C.3       1 <0>        -0.0871
     13 C8          1.8765    3.1423    0.0746 C.2       1 <0>        -0.1143
     14 C9          1.6898    4.0463   -0.9242 C.2       1 <0>         0.1008
     15 C10         2.1957    5.4237   -0.9853 C.2       1 <0>         0.4669
     16 O2          2.9467    6.0446   -0.0478 O.3       1 <0>        -0.6390
     17 N3          1.7827    5.9409   -2.1226 N.2       1 <0>        -0.6194
     18 C11         1.0592    5.0459   -2.8124 C.2       1 <0>         0.5785
     19 N4          0.9806    3.8605   -2.1141 N.pl3     1 <0>        -0.7302
     20 N5          0.5113    5.2654   -3.9838 N.2       1 <0>        -0.7896
     21 H2         -0.8955    1.9789    0.0252 H         1 <0>         0.1528
     22 H3          5.1227    1.9234    0.3559 H         1 <0>         0.4078
     23 H4          2.9112    1.5403    2.1892 H         1 <0>         0.0663
     24 H5          4.2974    2.6164    2.4210 H         1 <0>         0.0851
     25 H6          1.9946    3.7249    2.1345 H         1 <0>         0.0799
     26 H7          3.3144    4.3465    1.1128 H         1 <0>         0.1130
     27 H8          0.5205    3.0537   -2.3935 H         1 <0>         0.4017
     28 H9          0.0011    4.5649   -4.4195 H         1 <0>         0.3159
@<TRIPOS>BOND
     1    1    6 2
     2    1    2 1
     3    1   21 1
     4    2   13 1
     5    2    3 2
     6    3    4 1
     7    3    8 1
     8    4    5 1
     9    4    6 1
    10    6    7 1
    11    8    9 2
    12    8   10 am
    13   10   11 1
    14   10   22 1
    15   11   12 1
    16   11   23 1
    17   11   24 1
    18   12   13 1
    19   12   25 1
    20   12   26 1
    21   13   14 2
    22   14   19 1
    23   14   15 1
    24   15   16 1
    25   15   17 2
    26   17   18 1
    27   18   19 1
    28   18   20 2
    29   19   27 1
    30   20   28 1
@<TRIPOS>MOLECULE
ZINC17175232
   28    30     0     0     0
SMALL
USER_CHARGES

@<TRIPOS>ATOM
      1 C1         -0.0163    1.3518    0.0095 C.2       1 <0>        -0.1303
      2 C2          1.3148    1.7902   -0.0009 C.2       1 <0>        -0.0482
      3 C3          2.1177    0.6382   -0.0541 C.2       1 <0>        -0.0280
      4 N1          1.2938   -0.4402   -0.0184 N.pl3     1 <0>        -0.4947
      5 H1          1.5772   -1.3679   -0.0093 H         1 <0>         0.4228
      6 C4          0.0021   -0.0041    0.0020 C.2       1 <0>         0.0141
      7 Br1        -1.5265   -1.1172    0.0181 Br        1 <0>         0.0028
      8 C5          3.5766    0.7389   -0.1870 C.2       1 <0>         0.6054
      9 O1          4.1929    0.0169   -0.9490 O.2       1 <0>        -0.5403
     10 N2          4.2121    1.6686    0.5723 N.am      1 <0>        -0.7071
     11 C6          3.5429    2.2863    1.7070 C.3       1 <0>         0.1165
     12 C7          2.6757    3.4872    1.3174 C.3       1 <0>        -0.0863
     13 C8          1.8765    3.1423    0.0746 C.2       1 <0>        -0.1135
     14 C9          1.6898    4.0463   -0.9242 C.2       1 <0>         0.1071
     15 C10         2.1957    5.4237   -0.9853 C.2       1 <0>         0.4664
     16 O2          2.9467    6.0446   -0.0478 O.3       1 <0>        -0.6433
     17 N3          1.7827    5.9409   -2.1226 N.2       1 <0>        -0.6748
     18 C11         1.0592    5.0459   -2.8124 C.2       1 <0>         0.5688
     19 N4          0.9806    3.8605   -2.1141 N.pl3     1 <0>        -0.6803
     20 N5          0.5113    5.2654   -3.9838 N.2       1 <0>        -0.8118
     21 H2         -0.8955    1.9789    0.0252 H         1 <0>         0.1537
     22 H3          5.1227    1.9234    0.3559 H         1 <0>         0.4075
     23 H4          2.9112    1.5403    2.1892 H         1 <0>         0.0668
     24 H5          4.2974    2.6164    2.4210 H         1 <0>         0.0848
     25 H6          1.9946    3.7249    2.1345 H         1 <0>         0.0802
     26 H7          3.3144    4.3465    1.1128 H         1 <0>         0.1125
     27 H8          0.6165    6.1282   -4.4144 H         1 <0>         0.3376
     28 H9          0.5205    3.0537   -2.3935 H         1 <0>         0.4116
@<TRIPOS>BOND
     1    1    6 2
     2    1    2 1
     3    1   21 1
     4    2   13 1
     5    2    3 2
     6    3    4 1
     7    3    8 1
     8    4    5 1
     9    4    6 1
    10    6    7 1
    11    8    9 2
    12    8   10 am
    13   10   11 1
    14   10   22 1
    15   11   12 1
    16   11   23 1
    17   11   24 1
    18   12   13 1
    19   12   25 1
    20   12   26 1
    21   13   14 2
    22   14   19 1
    23   14   15 1
    24   15   16 1
    25   15   17 2
    26   17   18 1
    27   18   19 1
    28   18   20 2
    29   19   28 1
    30   20   27 1
@<TRIPOS>MOLECULE
ZINC17175232
   28    30     0     0     0
SMALL
USER_CHARGES

@<TRIPOS>ATOM
      1 C1         -0.0163    1.3522    0.0095 C.2       1 <0>        -0.1304
      2 C2          1.3145    1.7899   -0.0009 C.2       1 <0>        -0.0459
      3 C3          2.1168    0.6384   -0.0541 C.2       1 <0>        -0.0300
      4 N1          1.2937   -0.4395   -0.0184 N.pl3     1 <0>        -0.4944
      5 H1          1.5775   -1.3670   -0.0089 H         1 <0>         0.4225
      6 C4          0.0021   -0.0041    0.0020 C.2       1 <0>         0.0140
      7 Br1        -1.5262   -1.1176    0.0181 Br        1 <0>         0.0029
      8 C5          3.5767    0.7391   -0.1874 C.2       1 <0>         0.6062
      9 O1          4.1928    0.0172   -0.9493 O.2       1 <0>        -0.5393
     10 N2          4.2125    1.6688    0.5718 N.am      1 <0>        -0.7083
     11 C6          3.5436    2.2865    1.7066 C.3       1 <0>         0.1168
     12 C7          2.6766    3.4877    1.3173 C.3       1 <0>        -0.0808
     13 C8          1.8770    3.1431    0.0747 C.2       1 <0>        -0.1250
     14 C9          1.6904    4.0451   -0.9215 C.2       1 <0>         0.0817
     15 C10         2.1965    5.4312   -0.9893 C.2       1 <0>         0.5130
     16 O2          2.8748    6.0047   -0.1528 O.2       1 <0>        -0.5579
     17 N3          1.7619    5.9328   -2.1536 N.2       1 <0>        -0.7162
     18 C11         1.0563    5.0350   -2.8068 C.2       1 <0>         0.5692
     19 N4          0.9819    3.8661   -2.1131 N.pl3     1 <0>        -0.6705
     20 N5          0.4771    5.2468   -4.0277 N.2       1 <0>        -0.8527
     21 H2         -0.8954    1.9794    0.0253 H         1 <0>         0.1535
     22 H3          5.1230    1.9236    0.3550 H         1 <0>         0.4071
     23 H4          2.9118    1.5406    2.1889 H         1 <0>         0.0681
     24 H5          4.2983    2.6165    2.4205 H         1 <0>         0.0845
     25 H6          1.9957    3.7255    2.1345 H         1 <0>         0.0803
     26 H7          3.3154    4.3469    1.1126 H         1 <0>         0.1016
     27 H8          0.5214    3.0596   -2.3928 H         1 <0>         0.4083
     28 H9          0.5746    6.1055   -4.4684 H         1 <0>         0.3216
@<TRIPOS>BOND
     1    1    6 2
     2    1    2 1
     3    1   21 1
     4    2   13 1
     5    2    3 2
     6    3    4 1
     7    3    8 1
     8    4    5 1
     9    4    6 1
    10    6    7 1
    11    8    9 2
    12    8   10 am
    13   10   11 1
    14   10   22 1
    15   11   12 1
    16   11   23 1
    17   11   24 1
    18   12   13 1
    19   12   25 1
    20   12   26 1
    21   13   14 2
    22   14   19 1
    23   14   15 1
    24   15   16 2
    25   15   17 1
    26   17   18 2
    27   18   19 1
    28   18   20 1
    29   19   27 1
    30   20   28 1
@<TRIPOS>MOLECULE
ZINC17175232
   29    31     0     0     0
SMALL
USER_CHARGES

@<TRIPOS>ATOM
      1 C1         -0.0163    1.3522    0.0095 C.2       1 <0>        -0.1233
      2 C2          1.3145    1.7899   -0.0009 C.2       1 <0>        -0.1048
      3 C3          2.1168    0.6384   -0.0541 C.2       1 <0>        -0.0013
      4 N1          1.2937   -0.4395   -0.0184 N.pl3     1 <0>        -0.4850
      5 H1          1.5775   -1.3670   -0.0089 H         1 <0>         0.4308
      6 C4          0.0021   -0.0041    0.0020 C.2       1 <0>         0.0189
      7 Br1        -1.5262   -1.1176    0.0181 Br        1 <0>         0.0227
      8 C5          3.5767    0.7391   -0.1874 C.2       1 <0>         0.5973
      9 O1          4.1928    0.0172   -0.9493 O.2       1 <0>        -0.5214
     10 N2          4.2125    1.6688    0.5718 N.am      1 <0>        -0.7121
     11 C6          3.5436    2.2865    1.7066 C.3       1 <0>         0.1126
     12 C7          2.6766    3.4877    1.3173 C.3       1 <0>        -0.1046
     13 C8          1.8770    3.1431    0.0747 C.2       1 <0>         0.0171
     14 C9          1.6904    4.0451   -0.9215 C.2       1 <0>        -0.0013
     15 C10         2.1965    5.4312   -0.9893 C.2       1 <0>         0.5402
     16 O2          2.8748    6.0047   -0.1528 O.2       1 <0>        -0.4687
     17 N3          1.7619    5.9328   -2.1536 N.2       1 <0>        -0.6424
     18 C11         1.0563    5.0350   -2.8068 C.2       1 <0>         0.6571
     19 N4          0.9819    3.8661   -2.1131 N.pl3     1 <0>        -0.6656
     20 N5          0.4771    5.2468   -4.0277 N.pl3     1 <0>        -0.8040
     21 H2         -0.8954    1.9794    0.0253 H         1 <0>         0.1589
     22 H3          5.1230    1.9236    0.3550 H         1 <0>         0.4127
     23 H4          2.9118    1.5406    2.1889 H         1 <0>         0.0771
     24 H5          4.2983    2.6165    2.4205 H         1 <0>         0.0983
     25 H6          1.9957    3.7255    2.1345 H         1 <0>         0.1057
     26 H7          3.3154    4.3469    1.1126 H         1 <0>         0.1089
     27 H8          0.5214    3.0596   -2.3928 H         1 <0>         0.4258
     28 H9          0.5746    6.1055   -4.4684 H         1 <0>         0.4334
     29 H10        -0.0311    4.5384   -4.4529 H         1 <0>         0.4171
@<TRIPOS>BOND
     1    1    6 2
     2    1    2 1
     3    1   21 1
     4    2   13 1
     5    2    3 2
     6    3    4 1
     7    3    8 1
     8    4    5 1
     9    4    6 1
    10    6    7 1
    11    8    9 2
    12    8   10 am
    13   10   11 1
    14   10   22 1
    15   11   12 1
    16   11   23 1
    17   11   24 1
    18   12   13 1
    19   12   25 1
    20   12   26 1
    21   13   14 2
    22   14   19 1
    23   14   15 1
    24   15   16 2
    25   15   17 1
    26   17   18 2
    27   18   19 1
    28   18   20 1
    29   19   27 1
    30   20   28 1
    31   20   29 1
@<TRIPOS>MOLECULE
ZINC17175232
   29    31     0     0     0
SMALL
USER_CHARGES

@<TRIPOS>ATOM
      1 C1         -0.0163    1.3522    0.0095 C.2       1 <0>        -0.0939
      2 C2          1.3145    1.7899   -0.0009 C.2       1 <0>        -0.0817
      3 C3          2.1168    0.6384   -0.0541 C.2       1 <0>        -0.0085
      4 N1          1.2937   -0.4395   -0.0184 N.pl3     1 <0>        -0.4867
      5 H1          1.5775   -1.3670   -0.0089 H         1 <0>         0.4287
      6 C4          0.0021   -0.0041    0.0020 C.2       1 <0>         0.0190
      7 Br1        -1.5262   -1.1176    0.0181 Br        1 <0>         0.0181
      8 C5          3.5767    0.7391   -0.1874 C.2       1 <0>         0.6011
      9 O1          4.1928    0.0172   -0.9493 O.2       1 <0>        -0.5178
     10 N2          4.2125    1.6688    0.5718 N.am      1 <0>        -0.7188
     11 C6          3.5436    2.2865    1.7066 C.3       1 <0>         0.1140
     12 C7          2.6766    3.4877    1.3173 C.3       1 <0>        -0.1023
     13 C8          1.8770    3.1431    0.0747 C.2       1 <0>         0.0104
     14 C9          1.6904    4.0451   -0.9215 C.2       1 <0>         0.0011
     15 C10         0.9363    3.8581   -2.1778 C.2       1 <0>         0.5331
     16 O2          0.3478    2.8508   -2.5352 O.2       1 <0>        -0.4515
     17 N3          1.0276    5.0160   -2.8462 N.2       1 <0>        -0.6417
     18 C11         1.7387    5.8869   -2.1633 C.2       1 <0>         0.6550
     19 N4          2.1642    5.3588   -0.9829 N.pl3     1 <0>        -0.6695
     20 N5          2.0107    7.1602   -2.5824 N.pl3     1 <0>        -0.8051
     21 H2         -0.8954    1.9794    0.0253 H         1 <0>         0.1559
     22 H3          5.1230    1.9236    0.3550 H         1 <0>         0.4096
     23 H4          2.9118    1.5406    2.1889 H         1 <0>         0.0822
     24 H5          4.2983    2.6165    2.4205 H         1 <0>         0.0947
     25 H6          1.9957    3.7255    2.1345 H         1 <0>         0.1060
     26 H7          3.3154    4.3469    1.1126 H         1 <0>         0.0753
     27 H8          2.6983    5.8097   -0.3104 H         1 <0>         0.4239
     28 H9          1.6708    7.4730   -3.4354 H         1 <0>         0.4333
     29 H10         2.5433    7.7504   -2.0267 H         1 <0>         0.4164
@<TRIPOS>BOND
     1    1    6 2
     2    1    2 1
     3    1   21 1
     4    2   13 1
     5    2    3 2
     6    3    4 1
     7    3    8 1
     8    4    5 1
     9    4    6 1
    10    6    7 1
    11    8    9 2
    12    8   10 am
    13   10   11 1
    14   10   22 1
    15   11   12 1
    16   11   23 1
    17   11   24 1
    18   12   13 1
    19   12   25 1
    20   12   26 1
    21   13   14 2
    22   14   19 1
    23   14   15 1
    24   15   16 2
    25   15   17 1
    26   17   18 2
    27   18   19 1
    28   18   20 1
    29   19   27 1
    30   20   28 1
    31   20   29 1
@<TRIPOS>MOLECULE
ZINC17175232
   28    30     0     0     0
SMALL
USER_CHARGES

@<TRIPOS>ATOM
      1 C1         -0.0163    1.3522    0.0095 C.2       1 <0>        -0.0983
      2 C2          1.3145    1.7899   -0.0009 C.2       1 <0>        -0.0189
      3 C3          2.1168    0.6384   -0.0541 C.2       1 <0>        -0.0368
      4 N1          1.2937   -0.4395   -0.0184 N.pl3     1 <0>        -0.4973
      5 H1          1.5775   -1.3670   -0.0089 H         1 <0>         0.4202
      6 C4          0.0021   -0.0041    0.0020 C.2       1 <0>         0.0129
      7 Br1        -1.5262   -1.1176    0.0181 Br        1 <0>        -0.0030
      8 C5          3.5767    0.7391   -0.1874 C.2       1 <0>         0.6096
      9 O1          4.1928    0.0172   -0.9493 O.2       1 <0>        -0.5369
     10 N2          4.2125    1.6688    0.5718 N.am      1 <0>        -0.7148
     11 C6          3.5436    2.2865    1.7066 C.3       1 <0>         0.1186
     12 C7          2.6766    3.4877    1.3173 C.3       1 <0>        -0.0808
     13 C8          1.8770    3.1431    0.0747 C.2       1 <0>        -0.1306
     14 C9          1.6904    4.0451   -0.9215 C.2       1 <0>         0.0830
     15 C10         0.9363    3.8581   -2.1778 C.2       1 <0>         0.5087
     16 O2          0.3478    2.8508   -2.5352 O.2       1 <0>        -0.5423
     17 N3          1.0276    5.0160   -2.8462 N.2       1 <0>        -0.7196
     18 C11         1.7387    5.8869   -2.1633 C.2       1 <0>         0.5696
     19 N4          2.1642    5.3588   -0.9829 N.pl3     1 <0>        -0.6730
     20 N5          2.0107    7.1602   -2.5824 N.2       1 <0>        -0.8577
     21 H2         -0.8954    1.9794    0.0253 H         1 <0>         0.1497
     22 H3          5.1230    1.9236    0.3550 H         1 <0>         0.4047
     23 H4          2.9118    1.5406    2.1889 H         1 <0>         0.0739
     24 H5          4.2983    2.6165    2.4205 H         1 <0>         0.0821
     25 H6          1.9957    3.7255    2.1345 H         1 <0>         0.0832
     26 H7          3.3154    4.3469    1.1126 H         1 <0>         0.0659
     27 H8          2.6983    5.8097   -0.3104 H         1 <0>         0.4064
     28 H9          1.6708    7.4730   -3.4354 H         1 <0>         0.3214
@<TRIPOS>BOND
     1    1    6 2
     2    1    2 1
     3    1   21 1
     4    2   13 1
     5    2    3 2
     6    3    4 1
     7    3    8 1
     8    4    5 1
     9    4    6 1
    10    6    7 1
    11    8    9 2
    12    8   10 am
    13   10   11 1
    14   10   22 1
    15   11   12 1
    16   11   23 1
    17   11   24 1
    18   12   13 1
    19   12   25 1
    20   12   26 1
    21   13   14 2
    22   14   19 1
    23   14   15 1
    24   15   16 2
    25   15   17 1
    26   17   18 2
    27   18   19 1
    28   18   20 1
    29   19   27 1
    30   20   28 1
@<TRIPOS>MOLECULE
ZINC28563889
   39    42     0     0     0
SMALL
USER_CHARGES

@<TRIPOS>ATOM
      1 C1          0.0070    1.3571    0.5325 C.ar      1 <0>        -0.1055
      2 C2          1.1769    2.0767    0.3653 C.ar      1 <0>        -0.1165
      3 C3          2.3798    1.4182    0.2151 C.ar      1 <0>        -0.0737
      4 C4          2.4150    0.0230    0.2324 C.ar      1 <0>        -0.0233
      5 C5          1.2312   -0.6968    0.4019 C.ar      1 <0>        -0.1090
      6 C6          0.0349   -0.0260    0.5506 C.ar      1 <0>        -0.1156
      7 C7          3.7005   -0.6894    0.0715 C.2       1 <0>         0.2707
      8 N1          3.8583   -2.0443    0.0662 N.pl3     1 <0>        -0.5499
      9 H1          3.1563   -2.7062    0.1663 H         1 <0>         0.4251
     10 C8          5.2002   -2.2962   -0.1083 C.2       1 <0>         0.0328
     11 C9          5.8203   -1.0611   -0.2045 C.2       1 <0>         0.0748
     12 N2          4.8719   -0.1182   -0.0949 N.2       1 <0>        -0.4548
     13 C10         7.2700   -0.8239   -0.3988 C.ar      1 <0>         0.0148
     14 C11         7.9877   -1.5923   -1.3153 C.ar      1 <0>        -0.0966
     15 C12         9.3376   -1.3692   -1.4948 C.ar      1 <0>        -0.0930
     16 C13         9.9827   -0.3846   -0.7675 C.ar      1 <0>        -0.0593
     17 C14         9.2750    0.3850    0.1472 C.ar      1 <0>         0.1188
     18 C15         7.9190    0.1716    0.3294 C.ar      1 <0>        -0.1046
     19 O1          9.9126    1.3511    0.8596 O.3       1 <0>        -0.4852
     20 Cl1        11.6813   -0.1107   -0.9982 Cl        1 <0>        -0.0539
     21 C16         5.8493   -3.6188   -0.1788 C.ar      1 <0>         0.0234
     22 C17         7.0020   -3.8968    0.5688 C.ar      1 <0>        -0.1427
     23 C18         7.5750   -5.1466    0.4725 C.ar      1 <0>         0.1085
     24 N3          7.0535   -6.0735   -0.3094 N.ar      1 <0>        -0.4786
     25 C19         5.9697   -5.8543   -1.0302 C.ar      1 <0>         0.1067
     26 C20         5.3276   -4.6353   -0.9909 C.ar      1 <0>        -0.1652
     27 H2         -0.9316    1.8775    0.6538 H         1 <0>         0.1282
     28 H3          1.1482    3.1562    0.3521 H         1 <0>         0.1315
     29 H4          3.2922    1.9809    0.0840 H         1 <0>         0.1384
     30 H5          1.2516   -1.7766    0.4158 H         1 <0>         0.1176
     31 H6         -0.8818   -0.5818    0.6819 H         1 <0>         0.1293
     32 H7          7.4872   -2.3620   -1.8840 H         1 <0>         0.1313
     33 H8          9.8922   -1.9649   -2.2048 H         1 <0>         0.1410
     34 H9          7.3668    0.7719    1.0372 H         1 <0>         0.1428
     35 H10         9.9160    2.2181    0.4313 H         1 <0>         0.3951
     36 H11         7.4346   -3.1431    1.2101 H         1 <0>         0.1393
     37 H12         8.4633   -5.3707    1.0445 H         1 <0>         0.1625
     38 H13         5.5783   -6.6424   -1.6564 H         1 <0>         0.1607
     39 H14         4.4385   -4.4645   -1.5799 H         1 <0>         0.1341
@<TRIPOS>BOND
     1    1    6 ar
     2    1    2 ar
     3    1   27 1
     4    2    3 ar
     5    2   28 1
     6    3    4 ar
     7    3   29 1
     8    4    5 ar
     9    4    7 1
    10    5    6 ar
    11    5   30 1
    12    6   31 1
    13    7   12 2
    14    7    8 1
    15    8    9 1
    16    8   10 1
    17   10   11 2
    18   10   21 1
    19   11   12 1
    20   11   13 1
    21   13   18 ar
    22   13   14 ar
    23   14   15 ar
    24   14   32 1
    25   15   16 ar
    26   15   33 1
    27   16   17 ar
    28   16   20 1
    29   17   18 ar
    30   17   19 1
    31   18   34 1
    32   19   35 1
    33   21   26 ar
    34   21   22 ar
    35   22   23 ar
    36   22   36 1
    37   23   24 ar
    38   23   37 1
    39   24   25 ar
    40   25   26 ar
    41   25   38 1
    42   26   39 1
@<TRIPOS>MOLECULE
ZINC16052883
   47    50     0     0     0
SMALL
USER_CHARGES
4-[[2-[[4-chloro-3-(trifluoromethyl)phenyl]amino]-3H-benzimidazol-5-yl]oxy]-N-methyl-pyridine-2-carboxamide
@<TRIPOS>ATOM
      1 C1          3.7826    4.0221   -0.6758 C.3       1 <0>         0.0843
      2 N1          2.8147    3.6006    0.3400 N.am      1 <0>        -0.7134
      3 C2          1.6735    2.9865   -0.0302 C.2       1 <0>         0.5698
      4 O1          1.4474    2.7825   -1.2066 O.2       1 <0>        -0.5259
      5 C3          0.6946    2.5603    0.9972 C.ar      1 <0>         0.0946
      6 C4         -0.4814    1.9274    0.6080 C.ar      1 <0>        -0.1276
      7 C5         -1.3883    1.5279    1.5865 C.ar      1 <0>         0.1308
      8 C6         -1.0824    1.7913    2.9191 C.ar      1 <0>        -0.1513
      9 C7          0.1075    2.4252    3.2276 C.ar      1 <0>         0.1193
     10 N2          0.9478    2.7863    2.2811 N.ar      1 <0>        -0.4585
     11 O2         -2.5444    0.9021    1.2490 O.3       1 <0>        -0.2496
     12 C8         -2.4818   -0.4113    0.9028 C.ar      1 <0>         0.1300
     13 C9         -1.2461   -1.0441    0.8073 C.ar      1 <0>        -0.1855
     14 C10        -1.1683   -2.3730    0.4574 C.ar      1 <0>        -0.0293
     15 C11        -2.3369   -3.0931    0.1964 C.ar      1 <0>         0.0543
     16 C12        -3.5825   -2.4519    0.2940 C.ar      1 <0>         0.0841
     17 C13        -3.6476   -1.1140    0.6525 C.ar      1 <0>        -0.1305
     18 N3         -4.5341   -3.4089   -0.0173 N.pl3     1 <0>        -0.6198
     19 H1         -5.5248   -3.2748   -0.0398 H         1 <0>         0.4293
     20 C14        -3.8673   -4.5704   -0.2879 C.2       1 <0>         0.5311
     21 N4         -2.5778   -4.3828   -0.1618 N.2       1 <0>        -0.5149
     22 N5         -4.4645   -5.7642   -0.6415 N.pl3     1 <0>        -0.6366
     23 C15        -5.8516   -5.8300   -0.8076 C.ar      1 <0>         0.1757
     24 C16        -6.5391   -4.7527   -1.3521 C.ar      1 <0>        -0.1384
     25 C17        -7.9086   -4.8205   -1.5154 C.ar      1 <0>        -0.0685
     26 C18        -8.5962   -5.9607   -1.1374 C.ar      1 <0>        -0.0179
     27 C19        -7.9140   -7.0352   -0.5948 C.ar      1 <0>        -0.1384
     28 C20        -6.5435   -6.9746   -0.4337 C.ar      1 <0>        -0.0901
     29 C21        -8.6662   -8.2747   -0.1840 C.3       1 <0>         0.5099
     30 F1         -7.7686   -9.2151    0.3329 F         1 <0>        -0.1717
     31 F2         -9.6104   -7.9446    0.7941 F         1 <0>        -0.1659
     32 F3         -9.3179   -8.8152   -1.2977 F         1 <0>        -0.1655
     33 Cl1       -10.3178   -6.0430   -1.3451 Cl        1 <0>        -0.0333
     34 H2          4.6354    4.4966   -0.1904 H         1 <0>         0.0806
     35 H3          4.1221    3.1517   -1.2374 H         1 <0>         0.0640
     36 H4          3.3104    4.7314   -1.3554 H         1 <0>         0.0637
     37 H5          2.9952    3.7635    1.2790 H         1 <0>         0.4138
     38 H6         -0.6857    1.7444   -0.4365 H         1 <0>         0.1583
     39 H7         -1.7649    1.4996    3.7037 H         1 <0>         0.1535
     40 H8          0.3505    2.6273    4.2603 H         1 <0>         0.1757
     41 H9         -0.3421   -0.4887    1.0087 H         1 <0>         0.1337
     42 H10        -0.2061   -2.8580    0.3844 H         1 <0>         0.1392
     43 H11        -4.6050   -0.6205    0.7320 H         1 <0>         0.1369
     44 H12        -3.9219   -6.5571   -0.7748 H         1 <0>         0.4399
     45 H13        -6.0030   -3.8627   -1.6472 H         1 <0>         0.1459
     46 H14        -8.4436   -3.9832   -1.9387 H         1 <0>         0.1560
     47 H15        -6.0109   -7.8151   -0.0138 H         1 <0>         0.1582
@<TRIPOS>BOND
     1    1    2 1
     2    1   34 1
     3    1   35 1
     4    1   36 1
     5    2    3 am
     6    2   37 1
     7    3    4 2
     8    3    5 1
     9    5   10 ar
    10    5    6 ar
    11    6    7 ar
    12    6   38 1
    13    7    8 ar
    14    7   11 1
    15    8    9 ar
    16    8   39 1
    17    9   10 ar
    18    9   40 1
    19   11   12 1
    20   12   17 ar
    21   12   13 ar
    22   13   14 ar
    23   13   41 1
    24   14   15 ar
    25   14   42 1
    26   15   21 1
    27   15   16 ar
    28   16   17 ar
    29   16   18 1
    30   17   43 1
    31   18   19 1
    32   18   20 1
    33   20   21 2
    34   20   22 1
    35   22   23 1
    36   22   44 1
    37   23   28 ar
    38   23   24 ar
    39   24   25 ar
    40   24   45 1
    41   25   26 ar
    42   25   46 1
    43   26   27 ar
    44   26   33 1
    45   27   28 ar
    46   27   29 1
    47   28   47 1
    48   29   30 1
    49   29   31 1
    50   29   32 1
@<TRIPOS>MOLECULE
ZINC13310237
   20    21     0     0     0
SMALL
USER_CHARGES

@<TRIPOS>ATOM
      1 C1         -0.0163    1.3532    0.0095 C.2       1 <0>        -0.0974
      2 C2          1.3149    1.7871   -0.0009 C.2       1 <0>        -0.1950
      3 C3          2.1132    0.6351   -0.0540 C.2       1 <0>         0.0127
      4 N1          1.2937   -0.4372   -0.0182 N.pl3     1 <0>        -0.4785
      5 H1          1.5780   -1.3646   -0.0088 H         1 <0>         0.4321
      6 C4          0.0021   -0.0041    0.0020 C.2       1 <0>         0.0135
      7 Br1        -1.5253   -1.1188    0.0179 Br        1 <0>         0.0270
      8 C5          3.5791    0.7339   -0.1876 C.2       1 <0>         0.5955
      9 O1          4.1937    0.0111   -0.9487 O.2       1 <0>        -0.5104
     10 N2          4.2163    1.6630    0.5711 N.am      1 <0>        -0.7200
     11 C6          3.5481    2.2825    1.7054 C.3       1 <0>         0.1136
     12 C7          2.6829    3.4846    1.3154 C.3       1 <0>        -0.1822
     13 C8          1.8820    3.1413    0.0742 C.2       1 <0>         0.4302
     14 O2          1.7169    3.9477   -0.8163 O.2       1 <0>        -0.4312
     15 H2         -0.8945    1.9816    0.0252 H         1 <0>         0.1640
     16 H3          5.1273    1.9160    0.3545 H         1 <0>         0.4147
     17 H4          2.9152    1.5378    2.1881 H         1 <0>         0.0845
     18 H5          4.3032    2.6118    2.4192 H         1 <0>         0.1021
     19 H6          2.0028    3.7242    2.1328 H         1 <0>         0.1228
     20 H7          3.3231    4.3425    1.1099 H         1 <0>         0.1021
@<TRIPOS>BOND
     1    1    6 2
     2    1    2 1
     3    1   15 1
     4    2   13 1
     5    2    3 2
     6    3    4 1
     7    3    8 1
     8    4    5 1
     9    4    6 1
    10    6    7 1
    11    8    9 2
    12    8   10 am
    13   10   11 1
    14   10   16 1
    15   11   12 1
    16   11   17 1
    17   11   18 1
    18   12   13 1
    19   12   19 1
    20   12   20 1
    21   13   14 2
@<TRIPOS>MOLECULE
ZINC40897376
   42    44     0     0     0
SMALL
USER_CHARGES

@<TRIPOS>ATOM
      1 C1          1.0957   -8.4997   -5.5527 C.3       1 <0>         0.0267
      2 O1         -0.0179   -7.9972   -4.8114 O.3       1 <0>        -0.3143
      3 C2          0.2418   -7.4835   -3.5803 C.ar      1 <0>         0.1486
      4 C3          1.5433   -7.4586   -3.0985 C.ar      1 <0>        -0.2230
      5 C4          1.8088   -6.9367   -1.8471 C.ar      1 <0>        -0.0582
      6 C5          0.7799   -6.4383   -1.0711 C.ar      1 <0>        -0.1824
      7 C6         -0.5243   -6.4610   -1.5478 C.ar      1 <0>         0.1995
      8 C7         -0.7920   -6.9789   -2.8074 C.ar      1 <0>        -0.1553
      9 N1         -1.5664   -5.9567   -0.7618 N.am      1 <0>        -0.6784
     10 C8         -2.7928   -6.5111   -0.8323 C.2       1 <0>         0.7036
     11 O2         -2.9719   -7.5071   -1.5064 O.2       1 <0>        -0.5458
     12 N2         -3.8207   -5.9616   -0.1556 N.am      1 <0>        -0.6812
     13 C9         -5.0693   -6.5974   -0.1405 C.ar      1 <0>         0.1708
     14 C10        -6.2332   -5.8414   -0.1012 C.ar      1 <0>        -0.1305
     15 C11        -7.4633   -6.4684   -0.0868 C.ar      1 <0>        -0.0957
     16 C12        -7.5364   -7.8537   -0.1115 C.ar      1 <0>         0.0598
     17 C13        -6.3738   -8.6097   -0.1507 C.ar      1 <0>        -0.1058
     18 C14        -5.1432   -7.9836   -0.1705 C.ar      1 <0>        -0.1046
     19 O3         -8.7479   -8.4706   -0.0969 O.3       1 <0>        -0.2490
     20 C15        -9.1627   -9.0327    1.0667 C.ar      1 <0>         0.1636
     21 C16       -10.3378   -9.7787    1.1206 C.ar      1 <0>        -0.2007
     22 C17       -10.7250  -10.3343    2.3226 C.ar      1 <0>         0.1334
     23 N3         -9.9980  -10.1657    3.4110 N.ar      1 <0>        -0.5062
     24 C18        -8.8792   -9.4659    3.4000 C.ar      1 <0>         0.1346
     25 C19        -8.4211   -8.8833    2.2364 C.ar      1 <0>        -0.2483
     26 H1          0.7504   -8.8793   -6.5143 H         1 <0>         0.1016
     27 H2          1.8153   -7.6975   -5.7159 H         1 <0>         0.0568
     28 H3          1.5707   -9.3056   -4.9932 H         1 <0>         0.0570
     29 H4          2.3495   -7.8481   -3.7025 H         1 <0>         0.1303
     30 H5          2.8223   -6.9185   -1.4746 H         1 <0>         0.1314
     31 H6          0.9900   -6.0312   -0.0931 H         1 <0>         0.1282
     32 H7         -1.8047   -6.9933   -3.1824 H         1 <0>         0.1442
     33 H8         -1.4061   -5.2080   -0.1662 H         1 <0>         0.4118
     34 H9         -3.6961   -5.1260    0.3210 H         1 <0>         0.4114
     35 H10        -6.1764   -4.7630   -0.0817 H         1 <0>         0.1375
     36 H11        -8.3687   -5.8805   -0.0560 H         1 <0>         0.1388
     37 H12        -6.4313   -9.6880   -0.1700 H         1 <0>         0.1353
     38 H13        -4.2382   -8.5721   -0.2051 H         1 <0>         0.1458
     39 H14       -10.9377   -9.9200    0.2337 H         1 <0>         0.1448
     40 H15       -11.6347  -10.9142    2.3736 H         1 <0>         0.1652
     41 H16        -8.3131   -9.3511    4.3126 H         1 <0>         0.1592
     42 H17        -7.5025   -8.3154    2.2333 H         1 <0>         0.1394
@<TRIPOS>BOND
     1    1    2 1
     2    1   26 1
     3    1   27 1
     4    1   28 1
     5    2    3 1
     6    3    8 ar
     7    3    4 ar
     8    4    5 ar
     9    4   29 1
    10    5    6 ar
    11    5   30 1
    12    6    7 ar
    13    6   31 1
    14    7    8 ar
    15    7    9 1
    16    8   32 1
    17    9   10 am
    18    9   33 1
    19   10   11 2
    20   10   12 am
    21   12   13 1
    22   12   34 1
    23   13   18 ar
    24   13   14 ar
    25   14   15 ar
    26   14   35 1
    27   15   16 ar
    28   15   36 1
    29   16   17 ar
    30   16   19 1
    31   17   18 ar
    32   17   37 1
    33   18   38 1
    34   19   20 1
    35   20   25 ar
    36   20   21 ar
    37   21   22 ar
    38   21   39 1
    39   22   23 ar
    40   22   40 1
    41   23   24 ar
    42   24   25 ar
    43   24   41 1
    44   25   42 1
@<TRIPOS>MOLECULE
ZINC40897376
   43    45     0     0     0
SMALL
USER_CHARGES

@<TRIPOS>ATOM
      1 C1         -5.1405   -8.6251    1.8617 C.3       1 <0>         0.0256
      2 O1         -3.9548   -8.0905    2.4537 O.3       1 <0>        -0.3145
      3 C2         -3.0316   -7.5564    1.6116 C.ar      1 <0>         0.1494
      4 C3         -3.2655   -7.5422    0.2434 C.ar      1 <0>        -0.2190
      5 C4         -2.3277   -6.9996   -0.6140 C.ar      1 <0>        -0.0566
      6 C5         -1.1542   -6.4698   -0.1126 C.ar      1 <0>        -0.1800
      7 C6         -0.9147   -6.4817    1.2553 C.ar      1 <0>         0.1924
      8 C7         -1.8585   -7.0204    2.1187 C.ar      1 <0>        -0.1553
      9 N1          0.2740   -5.9456    1.7631 N.am      1 <0>        -0.6737
     10 C8          0.8397   -6.4822    2.8624 C.2       1 <0>         0.7045
     11 O2          0.3706   -7.4886    3.3580 O.2       1 <0>        -0.5443
     12 N2          1.9255   -5.9033    3.4123 N.am      1 <0>        -0.6841
     13 C9          2.5785   -6.5191    4.4883 C.ar      1 <0>         0.1996
     14 C10         3.1751   -5.7444    5.4741 C.ar      1 <0>        -0.1320
     15 C11         3.8180   -6.3518    6.5344 C.ar      1 <0>        -0.0779
     16 C12         3.8680   -7.7360    6.6149 C.ar      1 <0>         0.0103
     17 C13         3.2720   -8.5106    5.6302 C.ar      1 <0>        -0.0956
     18 C14         2.6242   -7.9043    4.5722 C.ar      1 <0>        -0.1070
     19 O3          4.5016   -8.3336    7.6590 O.3       1 <0>        -0.2076
     20 C15         5.7304   -8.8658    7.4384 C.ar      1 <0>         0.2466
     21 C16         6.3830   -9.5922    8.4317 C.ar      1 <0>        -0.1596
     22 C17         7.6312  -10.1175    8.1681 C.ar      1 <0>         0.1642
     23 N3          8.2060   -9.9385    6.9938 N.ar      1 <0>        -0.4724
     24 C18         7.6201   -9.2562    6.0280 C.ar      1 <0>         0.1683
     25 C19         6.3688   -8.7045    6.2109 C.ar      1 <0>        -0.2126
     26 H1         -4.8733   -9.4269    1.1735 H         1 <0>         0.0580
     27 H2         -5.7911   -9.0184    2.6428 H         1 <0>         0.1033
     28 H3         -5.6616   -7.8376    1.3173 H         1 <0>         0.0585
     29 H4         -4.1815   -7.9562   -0.1514 H         1 <0>         0.1325
     30 H5         -2.5122   -6.9898   -1.6781 H         1 <0>         0.1336
     31 H6         -0.4227   -6.0465   -0.7850 H         1 <0>         0.1289
     32 H7         -1.6768   -7.0266    3.1833 H         1 <0>         0.1429
     33 H8          0.6907   -5.1878    1.3239 H         1 <0>         0.4133
     34 H9          2.2549   -5.0604    3.0633 H         1 <0>         0.4156
     35 H10         3.1366   -4.6669    5.4113 H         1 <0>         0.1464
     36 H11         4.2825   -5.7493    7.3010 H         1 <0>         0.1449
     37 H12         3.3112   -9.5881    5.6934 H         1 <0>         0.1398
     38 H13         2.1568   -8.5074    3.8078 H         1 <0>         0.1540
     39 H14         5.9185   -9.7417    9.3952 H         1 <0>         0.1930
     40 H15         8.1445  -10.6821    8.9325 H         1 <0>         0.2166
     41 H16         8.1245   -9.1318    5.0812 H         1 <0>         0.2115
     42 H17         5.8928   -8.1512    5.4148 H         1 <0>         0.1854
     43 H18         9.0843  -10.3189    6.8361 H         1 <0>         0.4529
@<TRIPOS>BOND
     1    1    2 1
     2    1   26 1
     3    1   27 1
     4    1   28 1
     5    2    3 1
     6    3    8 ar
     7    3    4 ar
     8    4    5 ar
     9    4   29 1
    10    5    6 ar
    11    5   30 1
    12    6    7 ar
    13    6   31 1
    14    7    8 ar
    15    7    9 1
    16    8   32 1
    17    9   10 am
    18    9   33 1
    19   10   11 2
    20   10   12 am
    21   12   13 1
    22   12   34 1
    23   13   18 ar
    24   13   14 ar
    25   14   15 ar
    26   14   35 1
    27   15   16 ar
    28   15   36 1
    29   16   17 ar
    30   16   19 1
    31   17   18 ar
    32   17   37 1
    33   18   38 1
    34   19   20 1
    35   20   25 ar
    36   20   21 ar
    37   21   22 ar
    38   21   39 1
    39   22   23 ar
    40   22   40 1
    41   23   24 ar
    42   23   43 1
    43   24   25 ar
    44   24   41 1
    45   25   42 1
@<TRIPOS>MOLECULE
ZINC11617039
   55    58     0     0     0
SMALL
USER_CHARGES

@<TRIPOS>ATOM
      1 H1          0.2120    6.2074    3.3921 H         1 <0>         0.1353
      2 C1         -0.6814    5.6062    3.3098 C.ar      1 <0>         0.0196
      3 C2         -1.0741    5.1311    2.1031 C.ar      1 <0>        -0.1998
      4 C3         -2.2288    4.3474    1.9606 C.ar      1 <0>         0.2426
      5 C4         -3.0111    4.0257    3.0293 C.ar      1 <0>        -0.1858
      6 C5         -2.6578    4.4884    4.3143 C.ar      1 <0>         0.1374
      7 C6         -1.4433    5.3059    4.4600 C.ar      1 <0>        -0.2352
      8 C7         -1.3367    5.6110    5.8041 C.2       1 <0>         0.1330
      9 N1         -2.3705    5.0424    6.4391 N.pl3     1 <0>        -0.3190
     10 N2         -3.1795    4.3626    5.5213 N.2       1 <0>        -0.3200
     11 C8         -2.6225    5.1281    7.8797 C.3       1 <0>         0.0831
     12 H2         -3.2434    5.9992    8.0888 H         1 <0>         0.0888
     13 H3         -3.1369    4.2268    8.2129 H         1 <0>         0.0992
     14 H4         -1.6744    5.2222    8.4094 H         1 <0>         0.0983
     15 C9         -0.2495    6.4365    6.4425 C.3       1 <0>        -0.1025
     16 H5         -0.5455    7.4855    6.4477 H         1 <0>         0.0927
     17 H6         -0.0907    6.0987    7.4666 H         1 <0>         0.0807
     18 H7          0.6740    6.3223    5.8749 H         1 <0>         0.0943
     19 H8         -3.8955    3.4210    2.8932 H         1 <0>         0.1075
     20 N3         -2.5862    3.8853    0.6908 N.pl3     1 <0>        -0.5925
     21 C10        -3.6562    3.0160    0.5454 C.ar      1 <0>         0.5430
     22 C11        -3.4766    1.6392    0.6984 C.ar      1 <0>        -0.2193
     23 C12        -4.5711    0.8111    0.5450 C.ar      1 <0>         0.2156
     24 N4         -5.7510    1.3422    0.2594 N.ar      1 <0>        -0.5411
     25 C13        -5.8925    2.6520    0.1199 C.ar      1 <0>         0.6254
     26 N5         -4.8692    3.4808    0.2639 N.ar      1 <0>        -0.5160
     27 N6         -7.1427    3.1682   -0.1788 N.pl3     1 <0>        -0.6061
     28 C14        -7.2911    4.5338   -0.4396 C.ar      1 <0>         0.0902
     29 C15        -6.2697    5.2382   -1.0645 C.ar      1 <0>        -0.0370
     30 C16        -6.4197    6.5867   -1.3210 C.ar      1 <0>        -0.1186
     31 C17        -7.5850    7.2362   -0.9562 C.ar      1 <0>         0.0334
     32 C18        -8.6034    6.5381   -0.3338 C.ar      1 <0>        -0.6606
     33 C19        -8.4623    5.1877   -0.0798 C.ar      1 <0>        -0.0140
     34 S1        -10.0857    7.3705    0.1294 S.o2      1 <0>         2.7024
     35 O1        -10.5091    8.1093   -1.0082 O.2       1 <0>        -0.9461
     36 O2        -10.9137    6.4040    0.7615 O.2       1 <0>        -0.9598
     37 N7         -9.6818    8.4799    1.2907 N.pl3     1 <0>        -1.2481
     38 C20        -7.7450    8.7080   -1.2374 C.3       1 <0>        -0.1567
     39 H9         -8.1929    8.8433   -2.2218 H         1 <0>         0.1090
     40 H10        -8.3897    9.1545   -0.4804 H         1 <0>         0.0769
     41 H11        -6.7680    9.1908   -1.2132 H         1 <0>         0.0924
     42 H12        -4.4665   -0.2581    0.6563 H         1 <0>         0.2280
     43 H13        -2.5039    1.2316    0.9310 H         1 <0>         0.1988
     44 C21        -1.8301    4.3196   -0.4864 C.3       1 <0>         0.0917
     45 H14        -1.0078    3.6271   -0.6659 H         1 <0>         0.0746
     46 H15        -2.4881    4.3354   -1.3553 H         1 <0>         0.0729
     47 H16        -1.4320    5.3196   -0.3140 H         1 <0>         0.0953
     48 H17        -0.4834    5.3620    1.2289 H         1 <0>         0.1346
     49 H18        -7.9152    2.5823   -0.2071 H         1 <0>         0.4391
     50 H19        -5.3592    4.7318   -1.3490 H         1 <0>         0.1427
     51 H20        -5.6260    7.1349   -1.8068 H         1 <0>         0.1482
     52 H21        -9.2599    4.6421    0.4024 H         1 <0>         0.1564
     53 H22        -8.7604    8.5635    1.5820 H         1 <0>         0.4174
     54 H23       -10.3667    9.0460    1.6797 H         1 <0>         0.4270
     55 H24        -6.5221    0.7638    0.1506 H         1 <0>         0.4504
@<TRIPOS>BOND
     1    1    2 1
     2    2    7 ar
     3    2    3 ar
     4    3    4 ar
     5    3   48 1
     6    4    5 ar
     7    4   20 1
     8    5    6 ar
     9    5   19 1
    10    6   10 2
    11    6    7 ar
    12    7    8 2
    13    8    9 1
    14    8   15 1
    15    9   10 1
    16    9   11 1
    17   11   12 1
    18   11   13 1
    19   11   14 1
    20   15   16 1
    21   15   17 1
    22   15   18 1
    23   20   21 1
    24   20   44 1
    25   21   26 ar
    26   21   22 ar
    27   22   23 ar
    28   22   43 1
    29   23   24 ar
    30   23   42 1
    31   24   25 ar
    32   24   55 1
    33   25   26 ar
    34   25   27 1
    35   27   28 1
    36   27   49 1
    37   28   33 ar
    38   28   29 ar
    39   29   30 ar
    40   29   50 1
    41   30   31 ar
    42   30   51 1
    43   31   32 ar
    44   31   38 1
    45   32   33 ar
    46   32   34 1
    47   33   52 1
    48   34   35 2
    49   34   36 2
    50   34   37 1
    51   37   53 1
    52   37   54 1
    53   38   39 1
    54   38   40 1
    55   38   41 1
    56   44   45 1
    57   44   46 1
    58   44   47 1
@<TRIPOS>MOLECULE
ZINC40393428
   43    46     0     0     0
SMALL
USER_CHARGES

@<TRIPOS>ATOM
      1 C1          1.0860   -0.4602    0.7525 C.ar      1 <0>        -0.0841
      2 C2          2.2745    0.2438    0.7392 C.ar      1 <0>        -0.1151
      3 C3          2.3811    1.4103   -0.0065 C.ar      1 <0>         0.1760
      4 C4          1.2918    1.8661   -0.7371 C.ar      1 <0>        -0.1379
      5 C5          0.1052    1.1577   -0.7200 C.ar      1 <0>        -0.0148
      6 C6          0.0027   -0.0047    0.0245 C.ar      1 <0>        -0.1235
      7 Cl1        -1.2579    1.7264   -1.6324 Cl        1 <0>        -0.0629
      8 N1          3.5838    2.1253   -0.0212 N.am      1 <0>        -0.6779
      9 C7          4.7585    1.4702    0.0657 C.2       1 <0>         0.7004
     10 O1          4.7784    0.2546    0.0596 O.2       1 <0>        -0.5033
     11 N2          5.9109    2.1627    0.1596 N.am      1 <0>        -0.6266
     12 C8          7.1223    1.4870    0.2493 C.2       1 <0>         0.2860
     13 N3          7.3361    0.1891    0.2518 N.2       1 <0>        -0.5158
     14 C9          8.5589   -0.3008    0.3445 C.2       1 <0>         0.0768
     15 C10         9.5748    0.5917    0.4362 C.2       1 <0>        -0.2162
     16 S1          8.6723    2.1310    0.3736 S.3       1 <0>         0.1280
     17 C11        11.0579    0.3512    0.5526 C.3       1 <0>        -0.0363
     18 C12        11.6753    0.2860   -0.8457 C.3       1 <0>         0.1313
     19 N4         13.1171    0.0522   -0.7326 N.pl3     1 <0>        -0.7061
     20 C13        13.8949   -0.0448   -1.8749 C.ar      1 <0>         0.4986
     21 C14        15.2577   -0.2712   -1.7887 C.ar      1 <0>        -0.2996
     22 C15        16.0555   -0.3716   -2.9487 C.ar      1 <0>         0.1938
     23 C16        17.4235   -0.6022   -2.7204 C.2       1 <0>        -0.1561
     24 C17        17.8907   -0.7126   -1.4622 C.2       1 <0>        -0.1043
     25 S2         16.4217   -0.4971   -0.4711 S.3       1 <0>         0.0744
     26 N5         15.3968   -0.2319   -4.1261 N.ar      1 <0>        -0.5372
     27 C18        14.1074   -0.0188   -4.1645 C.ar      1 <0>         0.3437
     28 N6         13.3491    0.0719   -3.0857 N.ar      1 <0>        -0.5638
     29 H1          1.0044   -1.3699    1.3289 H         1 <0>         0.1384
     30 H2          3.1201   -0.1128    1.3086 H         1 <0>         0.1426
     31 H3          1.3716    2.7733   -1.3178 H         1 <0>         0.1376
     32 H4         -0.9253   -0.5572    0.0363 H         1 <0>         0.1366
     33 H5          3.5722    3.0925   -0.0941 H         1 <0>         0.4112
     34 H6          5.8950    3.1325    0.1645 H         1 <0>         0.4247
     35 H7          8.7413   -1.3653    0.3475 H         1 <0>         0.1767
     36 H8         11.5152    1.1660    1.1141 H         1 <0>         0.0881
     37 H9         11.2335   -0.5911    1.0716 H         1 <0>         0.0988
     38 H10        11.2181   -0.5287   -1.4072 H         1 <0>         0.0778
     39 H11        11.4997    1.2283   -1.3647 H         1 <0>         0.0747
     40 H12        13.5272   -0.0346    0.1422 H         1 <0>         0.4118
     41 H13        18.1015   -0.6915   -3.5564 H         1 <0>         0.1518
     42 H14        18.9044   -0.8881   -1.1337 H         1 <0>         0.2028
     43 H15        13.6355    0.0848   -5.1304 H         1 <0>         0.1990
@<TRIPOS>BOND
     1    1    6 ar
     2    1    2 ar
     3    1   29 1
     4    2    3 ar
     5    2   30 1
     6    3    4 ar
     7    3    8 1
     8    4    5 ar
     9    4   31 1
    10    5    6 ar
    11    5    7 1
    12    6   32 1
    13    8    9 am
    14    8   33 1
    15    9   10 2
    16    9   11 am
    17   11   12 1
    18   11   34 1
    19   12   16 1
    20   12   13 2
    21   13   14 1
    22   14   15 2
    23   14   35 1
    24   15   16 1
    25   15   17 1
    26   17   18 1
    27   17   36 1
    28   17   37 1
    29   18   19 1
    30   18   38 1
    31   18   39 1
    32   19   20 1
    33   19   40 1
    34   20   28 ar
    35   20   21 ar
    36   21   25 1
    37   21   22 ar
    38   22   23 1
    39   22   26 ar
    40   23   24 2
    41   23   41 1
    42   24   25 1
    43   24   42 1
    44   26   27 ar
    45   27   28 ar
    46   27   43 1
@<TRIPOS>MOLECULE
ZINC18710085
   53    57     0     0     0
SMALL
USER_CHARGES

@<TRIPOS>ATOM
      1 C1          0.0890    1.3306    0.4873 C.3       1 <0>         0.0749
      2 N1          0.4081   -0.0534    0.1284 N.pl3     1 <0>        -0.5085
      3 C2          0.3528   -0.6077   -1.1416 C.ar      1 <0>         0.0507
      4 C3          0.0137   -0.1123   -2.3916 C.ar      1 <0>        -0.0838
      5 C4          0.0591   -0.9388   -3.4947 C.ar      1 <0>        -0.1077
      6 C5          0.4436   -2.2696   -3.3617 C.ar      1 <0>         0.0751
      7 C6          0.7843   -2.7778   -2.1231 C.ar      1 <0>        -0.0835
      8 C7          0.7420   -1.9496   -0.9988 C.ar      1 <0>         0.0911
      9 N2          1.0108   -2.1503    0.3180 N.2       1 <0>        -0.5208
     10 C8          0.8212   -1.0367    0.9810 C.2       1 <0>         0.5369
     11 N3          1.0073   -0.8814    2.3399 N.pl3     1 <0>        -0.6412
     12 C9          1.5328   -1.9319    3.0980 C.ar      1 <0>         0.2053
     13 C10         2.3998   -2.8463    2.5135 C.ar      1 <0>        -0.1275
     14 C11         2.9176   -3.8826    3.2654 C.ar      1 <0>        -0.0424
     15 C12         2.5735   -4.0107    4.5987 C.ar      1 <0>        -0.2053
     16 C13         1.7106   -3.1021    5.1837 C.ar      1 <0>        -0.0432
     17 C14         1.1938   -2.0602    4.4389 C.ar      1 <0>        -0.1549
     18 C15         3.1396   -5.1433    5.4158 C.3       1 <0>         0.5100
     19 F1          4.3412   -4.7372    6.0062 F         1 <0>        -0.1771
     20 F2          2.2267   -5.5000    6.4140 F         1 <0>        -0.1778
     21 F3          3.3767   -6.2442    4.5857 F         1 <0>        -0.1766
     22 O1          0.4838   -3.0743   -4.4569 O.3       1 <0>        -0.2390
     23 C16        -0.5198   -3.9726   -4.6248 C.ar      1 <0>         0.1693
     24 C17        -1.5519   -4.0724   -3.6928 C.ar      1 <0>        -0.2330
     25 C18        -2.5577   -4.9965   -3.8940 C.ar      1 <0>         0.1462
     26 N4         -2.5549   -5.7828   -4.9518 N.ar      1 <0>        -0.5008
     27 C19        -1.5918   -5.7224   -5.8653 C.ar      1 <0>         0.2185
     28 C20        -0.5464   -4.8114   -5.7333 C.ar      1 <0>        -0.1453
     29 C21        -1.6332   -6.6264   -7.0353 C.2       1 <0>         0.2951
     30 N5         -2.5993   -7.5546   -7.2938 N.pl3     1 <0>        -0.5196
     31 H1         -3.3797   -7.7419   -6.7491 H         1 <0>         0.4364
     32 C22        -2.2593   -8.1700   -8.4662 C.2       1 <0>        -0.1211
     33 C23        -1.1072   -7.6076   -8.8883 C.2       1 <0>         0.0664
     34 N6         -0.7487   -6.6689   -8.0066 N.2       1 <0>        -0.4582
     35 C24        -3.0256   -9.2688   -9.1565 C.3       1 <0>         0.5516
     36 F4         -3.9502   -8.7065  -10.0431 F         1 <0>        -0.1675
     37 F5         -2.1361  -10.0835   -9.8651 F         1 <0>        -0.1592
     38 F6         -3.7018  -10.0363   -8.2021 F         1 <0>        -0.1759
     39 H2          0.9883    1.9420    0.4122 H         1 <0>         0.0804
     40 H3         -0.6705    1.7164   -0.1926 H         1 <0>         0.0932
     41 H4         -0.2881    1.3632    1.5095 H         1 <0>         0.0841
     42 H5         -0.2858    0.9195   -2.5011 H         1 <0>         0.1337
     43 H6         -0.2058   -0.5511   -4.4673 H         1 <0>         0.1432
     44 H7          1.0819   -3.8113   -2.0243 H         1 <0>         0.1405
     45 H8          0.7733   -0.0434    2.7688 H         1 <0>         0.4223
     46 H9          2.6684   -2.7473    1.4722 H         1 <0>         0.1551
     47 H10         3.5917   -4.5939    2.8116 H         1 <0>         0.1402
     48 H11         1.4439   -3.2049    6.2251 H         1 <0>         0.1410
     49 H12         0.5234   -1.3483    4.8975 H         1 <0>         0.1374
     50 H13        -1.5643   -3.4335   -2.8221 H         1 <0>         0.1469
     51 H14        -3.3584   -5.0766   -3.1737 H         1 <0>         0.1687
     52 H15         0.2337   -4.7602   -6.4784 H         1 <0>         0.1618
     53 H16        -0.5687   -7.8687   -9.7873 H         1 <0>         0.1936
@<TRIPOS>BOND
     1    1    2 1
     2    1   39 1
     3    1   40 1
     4    1   41 1
     5    2   10 1
     6    2    3 1
     7    3    8 ar
     8    3    4 ar
     9    4    5 ar
    10    4   42 1
    11    5    6 ar
    12    5   43 1
    13    6    7 ar
    14    6   22 1
    15    7    8 ar
    16    7   44 1
    17    8    9 1
    18    9   10 2
    19   10   11 1
    20   11   12 1
    21   11   45 1
    22   12   17 ar
    23   12   13 ar
    24   13   14 ar
    25   13   46 1
    26   14   15 ar
    27   14   47 1
    28   15   16 ar
    29   15   18 1
    30   16   17 ar
    31   16   48 1
    32   17   49 1
    33   18   19 1
    34   18   20 1
    35   18   21 1
    36   22   23 1
    37   23   28 ar
    38   23   24 ar
    39   24   25 ar
    40   24   50 1
    41   25   26 ar
    42   25   51 1
    43   26   27 ar
    44   27   28 ar
    45   27   29 1
    46   28   52 1
    47   29   34 2
    48   29   30 1
    49   30   31 1
    50   30   32 1
    51   32   33 2
    52   32   35 1
    53   33   34 1
    54   33   53 1
    55   35   36 1
    56   35   37 1
    57   35   38 1
@<TRIPOS>MOLECULE
ZINC18710082
   51    54     0     0     0
SMALL
USER_CHARGES
N-(3,3-dimethylindolin-6-yl)-2-(4-pyridylmethylamino)pyridine-3-carboxamide
@<TRIPOS>ATOM
      1 C1         -0.1736   12.3280    1.7993 C.3       1 <0>        -0.1353
      2 C2          0.1708   11.8132    0.4003 C.3       1 <0>        -0.0256
      3 C3         -1.0658   11.8695   -0.5114 C.3       1 <0>         0.1234
      4 N1         -1.3159   10.4807   -0.9061 N.pl3     1 <0>        -0.7429
      5 C4         -0.3660    9.6387   -0.3256 C.ar      1 <0>         0.2160
      6 C5          0.5375   10.3468    0.4531 C.ar      1 <0>        -0.1735
      7 C6          1.5592    9.6928    1.1152 C.ar      1 <0>        -0.0387
      8 C7          1.6921    8.3220    1.0083 C.ar      1 <0>        -0.1957
      9 C8          0.7942    7.6005    0.2318 C.ar      1 <0>         0.1856
     10 C9         -0.2273    8.2550   -0.4368 C.ar      1 <0>        -0.1821
     11 N2          0.9251    6.2127    0.1203 N.am      1 <0>        -0.6647
     12 C10        -0.1735    5.4372    0.0302 C.2       1 <0>         0.5789
     13 O1         -1.2750    5.9485   -0.0352 O.2       1 <0>        -0.5287
     14 C11        -0.0401    3.9694    0.0111 C.ar      1 <0>        -0.2727
     15 C12         1.2239    3.3691   -0.0284 C.ar      1 <0>         0.0067
     16 C13         1.2952    1.9877   -0.0446 C.ar      1 <0>        -0.2460
     17 C14         0.1281    1.2446   -0.0215 C.ar      1 <0>         0.1889
     18 N3         -1.0535    1.8288    0.0102 N.ar      1 <0>        -0.5475
     19 C15        -1.1794    3.1469    0.0326 C.ar      1 <0>         0.4585
     20 N4         -2.4385    3.7170    0.0712 N.pl3     1 <0>        -0.6966
     21 C16        -3.6235    2.8669    0.2103 C.3       1 <0>         0.1646
     22 C17        -4.8603    3.7278    0.2259 C.ar      1 <0>        -0.0635
     23 C18        -5.3699    4.2164    1.4192 C.ar      1 <0>        -0.1527
     24 C19        -6.5037    5.0063    1.3940 C.ar      1 <0>         0.0990
     25 N5         -7.1042    5.2881    0.2543 N.ar      1 <0>        -0.4796
     26 C20        -6.6504    4.8370   -0.8988 C.ar      1 <0>         0.0984
     27 C21        -5.5189    4.0453   -0.9522 C.ar      1 <0>        -0.1533
     28 C22         1.3163   12.6286   -0.2029 C.3       1 <0>        -0.1347
     29 H1          0.6875   12.2011    2.4554 H         1 <0>         0.0611
     30 H2         -0.4352   13.3847    1.7435 H         1 <0>         0.0600
     31 H3         -1.0186   11.7650    2.1958 H         1 <0>         0.0571
     32 H4         -0.8602   12.4810   -1.3900 H         1 <0>         0.0683
     33 H5         -1.9215   12.2676    0.0338 H         1 <0>         0.0682
     34 H6         -2.0366   10.1891   -1.4861 H         1 <0>         0.4122
     35 H7          2.2565   10.2556    1.7181 H         1 <0>         0.1233
     36 H8          2.4915    7.8130    1.5263 H         1 <0>         0.1249
     37 H9         -0.9211    7.6916   -1.0433 H         1 <0>         0.1338
     38 H10         1.8066    5.8081    0.1078 H         1 <0>         0.4114
     39 H11         2.1214    3.9696   -0.0455 H         1 <0>         0.1354
     40 H12         2.2547    1.4928   -0.0753 H         1 <0>         0.1405
     41 H13         0.1860    0.1663   -0.0342 H         1 <0>         0.1633
     42 H14        -2.5372    4.6797    0.0061 H         1 <0>         0.4269
     43 H15        -3.6739    2.1736   -0.6293 H         1 <0>         0.0815
     44 H16        -3.5601    2.3050    1.1421 H         1 <0>         0.0787
     45 H17        -4.8851    3.9853    2.3562 H         1 <0>         0.1361
     46 H18        -6.9051    5.3935    2.3188 H         1 <0>         0.1583
     47 H19        -7.1692    5.0889   -1.8119 H         1 <0>         0.1582
     48 H20        -5.1525    3.6783   -1.8995 H         1 <0>         0.1363
     49 H21         1.5192   12.2770   -1.2145 H         1 <0>         0.0571
     50 H22         1.0360   13.6815   -0.2335 H         1 <0>         0.0599
     51 H23         2.2099   12.5082    0.4097 H         1 <0>         0.0612
@<TRIPOS>BOND
     1    1    2 1
     2    1   29 1
     3    1   30 1
     4    1   31 1
     5    2    6 1
     6    2    3 1
     7    2   28 1
     8    3    4 1
     9    3   32 1
    10    3   33 1
    11    4    5 1
    12    4   34 1
    13    5   10 ar
    14    5    6 ar
    15    6    7 ar
    16    7    8 ar
    17    7   35 1
    18    8    9 ar
    19    8   36 1
    20    9   10 ar
    21    9   11 1
    22   10   37 1
    23   11   12 am
    24   11   38 1
    25   12   13 2
    26   12   14 1
    27   14   19 ar
    28   14   15 ar
    29   15   16 ar
    30   15   39 1
    31   16   17 ar
    32   16   40 1
    33   17   18 ar
    34   17   41 1
    35   18   19 ar
    36   19   20 1
    37   20   21 1
    38   20   42 1
    39   21   22 1
    40   21   43 1
    41   21   44 1
    42   22   27 ar
    43   22   23 ar
    44   23   24 ar
    45   23   45 1
    46   24   25 ar
    47   24   46 1
    48   25   26 ar
    49   26   27 ar
    50   26   47 1
    51   27   48 1
    52   28   49 1
    53   28   50 1
    54   28   51 1
@<TRIPOS>MOLECULE
ZINC03963016
   42    46     0     0     0
SMALL
USER_CHARGES
3-(morpholinoBLAHyl)phenol
@<TRIPOS>ATOM
      1 C1         -1.2199    1.7485    0.0174 C.ar      1 <0>        -0.1114
      2 C2         -1.2454    3.1288    0.0308 C.ar      1 <0>        -0.0774
      3 C3         -0.0514    3.8476    0.0228 C.ar      1 <0>        -0.0316
      4 C4          1.1652    3.1691    0.0075 C.ar      1 <0>        -0.0947
      5 C5          1.1814    1.7842    0.0004 C.ar      1 <0>         0.0969
      6 C6         -0.0126    1.0758    0.0080 C.ar      1 <0>        -0.1204
      7 O1          2.3662    1.1187   -0.0145 O.3       1 <0>        -0.4955
      8 C7         -0.0760    5.3307    0.0300 C.ar      1 <0>         0.3845
      9 N1          1.0710    5.9932    0.0217 N.ar      1 <0>        -0.4874
     10 C8          1.0827    7.3220    0.0274 C.ar      1 <0>         0.1715
     11 C9          2.1340    8.3518    0.0216 C.ar      1 <0>        -0.1770
     12 C10         3.5264    8.3236    0.0080 C.ar      1 <0>         0.0114
     13 C11         4.2037    9.5307    0.0066 C.ar      1 <0>        -0.1955
     14 C12         3.4805   10.7116    0.0188 C.ar      1 <0>         0.1704
     15 N2          2.1641   10.7119    0.0316 N.ar      1 <0>        -0.4762
     16 C13         1.4636    9.5855    0.0336 C.ar      1 <0>         0.3115
     17 O2          0.1349    9.3460    0.0455 O.3       1 <0>        -0.1672
     18 C14        -0.1299    8.0233    0.0423 C.ar      1 <0>        -0.0415
     19 C15        -1.3182    7.2817    0.0506 C.ar      1 <0>         0.4009
     20 N3         -1.2469    5.9562    0.0390 N.ar      1 <0>        -0.5158
     21 N4         -2.5483    7.9214    0.0658 N.pl3     1 <0>        -0.4671
     22 C16        -2.6536    8.8336    1.2139 C.3       1 <0>         0.0181
     23 C17        -3.9995    9.5613    1.1590 C.3       1 <0>         0.0659
     24 O3         -5.0560    8.5977    1.1343 O.3       1 <0>        -0.3796
     25 C18        -4.9848    7.6934    0.0286 C.3       1 <0>         0.0595
     26 C19        -3.6490    6.9468    0.0722 C.3       1 <0>         0.0258
     27 H1         -2.1460    1.1928    0.0184 H         1 <0>         0.1359
     28 H2         -2.1904    3.6515    0.0423 H         1 <0>         0.1394
     29 H3          2.0932    3.7215    0.0009 H         1 <0>         0.1435
     30 H4          0.0021   -0.0041    0.0020 H         1 <0>         0.1341
     31 H5          2.7007    0.9308   -0.9022 H         1 <0>         0.3927
     32 H6          4.0626    7.3862   -0.0010 H         1 <0>         0.1508
     33 H7          5.2835    9.5514   -0.0034 H         1 <0>         0.1556
     34 H8          4.0084   11.6537    0.0174 H         1 <0>         0.1815
     35 H9         -2.5862    8.2625    2.1399 H         1 <0>         0.0633
     36 H10        -1.8440    9.5623    1.1753 H         1 <0>         0.1014
     37 H11        -4.0451   10.1746    0.2590 H         1 <0>         0.0678
     38 H12        -4.1066   10.1965    2.0382 H         1 <0>         0.1107
     39 H13        -5.0591    8.2524   -0.9042 H         1 <0>         0.0641
     40 H14        -5.8042    6.9772    0.0900 H         1 <0>         0.1096
     41 H15        -3.5659    6.2983   -0.8000 H         1 <0>         0.1026
     42 H16        -3.5970    6.3450    0.9795 H         1 <0>         0.0691
@<TRIPOS>BOND
     1    1    6 ar
     2    1    2 ar
     3    1   27 1
     4    2    3 ar
     5    2   28 1
     6    3    4 ar
     7    3    8 1
     8    4    5 ar
     9    4   29 1
    10    5    6 ar
    11    5    7 1
    12    6   30 1
    13    7   31 1
    14    8   20 ar
    15    8    9 ar
    16    9   10 ar
    17   10   18 ar
    18   10   11 1
    19   11   16 ar
    20   11   12 ar
    21   12   13 ar
    22   12   32 1
    23   13   14 ar
    24   13   33 1
    25   14   15 ar
    26   14   34 1
    27   15   16 ar
    28   16   17 1
    29   17   18 1
    30   18   19 ar
    31   19   20 ar
    32   19   21 1
    33   21   26 1
    34   21   22 1
    35   22   23 1
    36   22   35 1
    37   22   36 1
    38   23   24 1
    39   23   37 1
    40   23   38 1
    41   24   25 1
    42   25   26 1
    43   25   39 1
    44   25   40 1
    45   26   41 1
    46   26   42 1
@<TRIPOS>MOLECULE
ZINC23247639
   69    72     0     0     0
SMALL
USER_CHARGES
1-[4-[(4-ethylpiperazin-1-yl)methyl]-3-(trifluoromethyl)phenyl]-3-[4-(6-methylaminopyrimidin-4-yl)oxyphenyl]urea
@<TRIPOS>ATOM
      1 C1          8.9417    3.3719    8.2172 C.3       1 <0>        -0.1901
      2 C2         10.1498    2.9102    7.3997 C.3       1 <0>        -0.0070
      3 N1          9.9972    3.3533    6.0075 N.4       1 <0>        -0.4011
      4 C3         11.2367    3.1387    5.2477 C.3       1 <0>         0.0016
      5 C4         11.0629    3.6845    3.8284 C.3       1 <0>         0.0271
      6 N2          9.9288    3.0094    3.1822 N.3       1 <0>        -0.5300
      7 C5          8.6893    3.2240    3.9420 C.3       1 <0>         0.0232
      8 C6          8.8631    2.6781    5.3612 C.3       1 <0>        -0.0016
      9 C7          9.7762    3.4524    1.7899 C.3       1 <0>         0.0786
     10 C8          8.7879    2.5601    1.0842 C.ar      1 <0>        -0.0666
     11 C9          7.5022    3.0092    0.8434 C.ar      1 <0>        -0.0932
     12 C10         6.5958    2.1959    0.1923 C.ar      1 <0>        -0.0888
     13 C11         6.9731    0.9214   -0.2106 C.ar      1 <0>         0.1880
     14 C12         8.2646    0.4735    0.0326 C.ar      1 <0>        -0.1043
     15 C13         9.1683    1.2940    0.6793 C.ar      1 <0>        -0.1369
     16 C14        10.5702    0.8086    0.9441 C.3       1 <0>         0.5111
     17 F1         10.7250   -0.4786    0.4184 F         1 <0>        -0.1776
     18 F2         11.4860    1.6739    0.3362 F         1 <0>        -0.1774
     19 F3         10.8008    0.7797    2.3237 F         1 <0>        -0.1628
     20 N3          6.0552    0.0926   -0.8655 N.am      1 <0>        -0.6979
     21 C15         4.7513    0.1311   -0.5266 C.2       1 <0>         0.7117
     22 O1          4.3858    0.8194    0.4067 O.2       1 <0>        -0.5623
     23 N4          3.8526   -0.5934   -1.2222 N.am      1 <0>        -0.6900
     24 C16         2.4863   -0.4790   -0.9335 C.ar      1 <0>         0.1635
     25 C17         1.5516   -0.5518   -1.9576 C.ar      1 <0>        -0.1265
     26 C18         0.2052   -0.4394   -1.6724 C.ar      1 <0>        -0.0923
     27 C19        -0.2137   -0.2543   -0.3628 C.ar      1 <0>         0.0841
     28 C20         0.7198   -0.1815    0.6609 C.ar      1 <0>        -0.0957
     29 C21         2.0665   -0.2932    0.3769 C.ar      1 <0>        -0.1058
     30 O2         -1.5393   -0.1385   -0.0833 O.3       1 <0>        -0.2424
     31 C22        -2.3129   -1.2454   -0.1983 C.ar      1 <0>         0.3836
     32 C23        -3.6894   -1.1637   -0.0277 C.ar      1 <0>        -0.3134
     33 C24        -4.4409   -2.3284   -0.1601 C.ar      1 <0>         0.4631
     34 N5         -3.8165   -3.4721   -0.4341 N.ar      1 <0>        -0.5936
     35 C25        -2.5082   -3.5081   -0.5840 C.ar      1 <0>         0.3760
     36 N6         -1.7644   -2.4263   -0.4707 N.ar      1 <0>        -0.6039
     37 N7         -5.8178   -2.2988   -0.0034 N.pl3     1 <0>        -0.7218
     38 C26        -6.4937   -1.0344    0.2979 C.3       1 <0>         0.0891
     39 H1          9.0560    3.0401    9.2597 H         1 <0>         0.1066
     40 H2          8.0243    2.9380    7.7928 H         1 <0>         0.0798
     41 H3          8.8763    4.4695    8.1868 H         1 <0>         0.0803
     42 H4         11.0672    3.3441    7.8241 H         1 <0>         0.1306
     43 H5         10.2153    1.8126    7.4301 H         1 <0>         0.1269
     44 H6         12.0665    3.6630    5.7442 H         1 <0>         0.1361
     45 H7         11.4577    2.0621    5.2031 H         1 <0>         0.1357
     46 H8         10.8699    4.7665    3.8728 H         1 <0>         0.0625
     47 H9         11.9796    3.4990    3.2494 H         1 <0>         0.1239
     48 H10         8.4684    4.3007    3.9867 H         1 <0>         0.0621
     49 H11         7.8594    2.6998    3.4455 H         1 <0>         0.1239
     50 H12         9.0569    1.5962    5.3178 H         1 <0>         0.1351
     51 H13         7.9470    2.8635    5.9412 H         1 <0>         0.1359
     52 H14         9.4106    4.4897    1.7732 H         1 <0>         0.0663
     53 H15        10.7489    3.3982    1.2791 H         1 <0>         0.1073
     54 H16         7.2082    3.9988    1.1607 H         1 <0>         0.1358
     55 H17         5.5933    2.5489    0.0003 H         1 <0>         0.1466
     56 H18         8.5625   -0.5152   -0.2838 H         1 <0>         0.1447
     57 H19         6.3979   -0.5903   -1.6569 H         1 <0>         0.4387
     58 H20         4.1917   -1.2745   -2.0166 H         1 <0>         0.4355
     59 H21         1.8775   -0.6959   -2.9771 H         1 <0>         0.1334
     60 H22        -0.5220   -0.4960   -2.4689 H         1 <0>         0.1303
     61 H23         0.3932   -0.0371    1.6801 H         1 <0>         0.1327
     62 H24         2.7931   -0.2369    1.1740 H         1 <0>         0.1442
     63 H25        -4.1646   -0.2205    0.1982 H         1 <0>         0.1466
     64 H26        -2.0315   -4.4515   -0.8058 H         1 <0>         0.2000
     65 H27        -6.4030   -3.2246   -0.1053 H         1 <0>         0.4376
     66 H28        -7.5762   -1.2091    0.3856 H         1 <0>         0.0864
     67 H29        -6.3028   -0.3146   -0.5117 H         1 <0>         0.0603
     68 H30        -6.1096   -0.6302    1.2461 H         1 <0>         0.0599
     69 H31         9.7882    4.4332    6.0188 H         1 <0>         0.4364
@<TRIPOS>BOND
     1    1    2 1
     2    1   39 1
     3    1   40 1
     4    1   41 1
     5    2    3 1
     6    2   42 1
     7    2   43 1
     8    3    8 1
     9    3    4 1
    10    3   69 1
    11    4    5 1
    12    4   44 1
    13    4   45 1
    14    5    6 1
    15    5   46 1
    16    5   47 1
    17    6    7 1
    18    6    9 1
    19    7    8 1
    20    7   48 1
    21    7   49 1
    22    8   50 1
    23    8   51 1
    24    9   10 1
    25    9   52 1
    26    9   53 1
    27   10   15 ar
    28   10   11 ar
    29   11   12 ar
    30   11   54 1
    31   12   13 ar
    32   12   55 1
    33   13   14 ar
    34   13   20 1
    35   14   15 ar
    36   14   56 1
    37   15   16 1
    38   16   17 1
    39   16   18 1
    40   16   19 1
    41   20   21 am
    42   20   57 1
    43   21   22 2
    44   21   23 am
    45   23   24 1
    46   23   58 1
    47   24   29 ar
    48   24   25 ar
    49   25   26 ar
    50   25   59 1
    51   26   27 ar
    52   26   60 1
    53   27   28 ar
    54   27   30 1
    55   28   29 ar
    56   28   61 1
    57   29   62 1
    58   30   31 1
    59   31   36 ar
    60   31   32 ar
    61   32   33 ar
    62   32   63 1
    63   33   34 ar
    64   33   37 1
    65   34   35 ar
    66   35   36 ar
    67   35   64 1
    68   37   38 1
    69   37   65 1
    70   38   66 1
    71   38   67 1
    72   38   68 1
@<TRIPOS>MOLECULE
ZINC23247639
   69    72     0     0     0
SMALL
USER_CHARGES
1-[4-[(4-ethylpiperazin-1-yl)methyl]-3-(trifluoromethyl)phenyl]-3-[4-(6-methylaminopyrimidin-4-yl)oxyphenyl]urea
@<TRIPOS>ATOM
      1 C1          8.9417    3.3719    8.2172 C.3       1 <0>        -0.1569
      2 C2         10.1498    2.9102    7.3997 C.3       1 <0>         0.0486
      3 N1          9.9972    3.3533    6.0075 N.3       1 <0>        -0.5379
      4 C3         11.2367    3.1387    5.2477 C.3       1 <0>         0.0250
      5 C4         11.0629    3.6845    3.8284 C.3       1 <0>         0.0004
      6 N2          9.9288    3.0094    3.1822 N.4       1 <0>        -0.4202
      7 C5          8.6893    3.2240    3.9420 C.3       1 <0>        -0.0009
      8 C6          8.8631    2.6781    5.3612 C.3       1 <0>         0.0222
      9 C7          9.7762    3.4524    1.7899 C.3       1 <0>         0.0266
     10 C8          8.7879    2.5601    1.0842 C.ar      1 <0>        -0.1272
     11 C9          7.5022    3.0092    0.8434 C.ar      1 <0>        -0.0630
     12 C10         6.5958    2.1959    0.1923 C.ar      1 <0>        -0.0846
     13 C11         6.9731    0.9214   -0.2106 C.ar      1 <0>         0.2154
     14 C12         8.2646    0.4735    0.0326 C.ar      1 <0>        -0.0955
     15 C13         9.1683    1.2940    0.6793 C.ar      1 <0>        -0.1507
     16 C14        10.5702    0.8086    0.9441 C.3       1 <0>         0.5109
     17 F1         10.7250   -0.4786    0.4184 F         1 <0>        -0.1491
     18 F2         11.4860    1.6739    0.3362 F         1 <0>        -0.1584
     19 F3         10.8008    0.7797    2.3237 F         1 <0>        -0.1724
     20 N3          6.0552    0.0926   -0.8655 N.am      1 <0>        -0.6988
     21 C15         4.7513    0.1311   -0.5266 C.2       1 <0>         0.7114
     22 O1          4.3858    0.8194    0.4067 O.2       1 <0>        -0.5584
     23 N4          3.8526   -0.5934   -1.2222 N.am      1 <0>        -0.6858
     24 C16         2.4863   -0.4790   -0.9335 C.ar      1 <0>         0.1577
     25 C17         1.5516   -0.5518   -1.9576 C.ar      1 <0>        -0.1240
     26 C18         0.2052   -0.4394   -1.6724 C.ar      1 <0>        -0.0926
     27 C19        -0.2137   -0.2543   -0.3628 C.ar      1 <0>         0.0883
     28 C20         0.7198   -0.1815    0.6609 C.ar      1 <0>        -0.0957
     29 C21         2.0665   -0.2932    0.3769 C.ar      1 <0>        -0.1046
     30 O2         -1.5393   -0.1385   -0.0833 O.3       1 <0>        -0.2426
     31 C22        -2.3129   -1.2454   -0.1983 C.ar      1 <0>         0.3832
     32 C23        -3.6894   -1.1637   -0.0277 C.ar      1 <0>        -0.3126
     33 C24        -4.4409   -2.3284   -0.1601 C.ar      1 <0>         0.4635
     34 N5         -3.8165   -3.4721   -0.4341 N.ar      1 <0>        -0.5931
     35 C25        -2.5082   -3.5081   -0.5840 C.ar      1 <0>         0.3762
     36 N6         -1.7644   -2.4263   -0.4707 N.ar      1 <0>        -0.6049
     37 N7         -5.8178   -2.2988   -0.0034 N.pl3     1 <0>        -0.7212
     38 C26        -6.4937   -1.0344    0.2979 C.3       1 <0>         0.0887
     39 H1          9.0560    3.0401    9.2597 H         1 <0>         0.0714
     40 H2          8.0243    2.9380    7.7928 H         1 <0>         0.0562
     41 H3          8.8763    4.4695    8.1868 H         1 <0>         0.0696
     42 H4         11.0672    3.3441    7.8241 H         1 <0>         0.0895
     43 H5         10.2153    1.8126    7.4301 H         1 <0>         0.0455
     44 H6         12.0665    3.6630    5.7442 H         1 <0>         0.1253
     45 H7         11.4577    2.0621    5.2031 H         1 <0>         0.0582
     46 H8         10.8699    4.7665    3.8728 H         1 <0>         0.1369
     47 H9         11.9796    3.4990    3.2494 H         1 <0>         0.1329
     48 H10         8.4684    4.3007    3.9867 H         1 <0>         0.1355
     49 H11         7.8594    2.6998    3.4455 H         1 <0>         0.1312
     50 H12         9.0569    1.5962    5.3178 H         1 <0>         0.0572
     51 H13         7.9470    2.8635    5.9412 H         1 <0>         0.1266
     52 H14         9.4106    4.4897    1.7732 H         1 <0>         0.1472
     53 H15        10.7489    3.3982    1.2791 H         1 <0>         0.1420
     54 H16         7.2082    3.9988    1.1607 H         1 <0>         0.1512
     55 H17         5.5933    2.5489    0.0003 H         1 <0>         0.1583
     56 H18         8.5625   -0.5152   -0.2838 H         1 <0>         0.1556
     57 H19         6.3979   -0.5903   -1.6569 H         1 <0>         0.4440
     58 H20         4.1917   -1.2745   -2.0166 H         1 <0>         0.4371
     59 H21         1.8775   -0.6959   -2.9771 H         1 <0>         0.1338
     60 H22        -0.5220   -0.4960   -2.4689 H         1 <0>         0.1313
     61 H23         0.3932   -0.0371    1.6801 H         1 <0>         0.1341
     62 H24         2.7931   -0.2369    1.1740 H         1 <0>         0.1440
     63 H25        -4.1646   -0.2205    0.1982 H         1 <0>         0.1470
     64 H26        -2.0315   -4.4515   -0.8058 H         1 <0>         0.2001
     65 H27        -6.4030   -3.2246   -0.1053 H         1 <0>         0.4380
     66 H28        -7.5762   -1.2091    0.3856 H         1 <0>         0.0868
     67 H29        -6.3028   -0.3146   -0.5117 H         1 <0>         0.0604
     68 H30        -6.1096   -0.6302    1.2461 H         1 <0>         0.0603
     69 H31        10.1379    1.9295    3.1711 H         1 <0>         0.4253
@<TRIPOS>BOND
     1    1    2 1
     2    1   39 1
     3    1   40 1
     4    1   41 1
     5    2    3 1
     6    2   42 1
     7    2   43 1
     8    3    8 1
     9    3    4 1
    10    4    5 1
    11    4   44 1
    12    4   45 1
    13    5    6 1
    14    5   46 1
    15    5   47 1
    16    6    7 1
    17    6    9 1
    18    6   69 1
    19    7    8 1
    20    7   48 1
    21    7   49 1
    22    8   50 1
    23    8   51 1
    24    9   10 1
    25    9   52 1
    26    9   53 1
    27   10   15 ar
    28   10   11 ar
    29   11   12 ar
    30   11   54 1
    31   12   13 ar
    32   12   55 1
    33   13   14 ar
    34   13   20 1
    35   14   15 ar
    36   14   56 1
    37   15   16 1
    38   16   17 1
    39   16   18 1
    40   16   19 1
    41   20   21 am
    42   20   57 1
    43   21   22 2
    44   21   23 am
    45   23   24 1
    46   23   58 1
    47   24   29 ar
    48   24   25 ar
    49   25   26 ar
    50   25   59 1
    51   26   27 ar
    52   26   60 1
    53   27   28 ar
    54   27   30 1
    55   28   29 ar
    56   28   61 1
    57   29   62 1
    58   30   31 1
    59   31   36 ar
    60   31   32 ar
    61   32   33 ar
    62   32   63 1
    63   33   34 ar
    64   33   37 1
    65   34   35 ar
    66   35   36 ar
    67   35   64 1
    68   37   38 1
    69   37   65 1
    70   38   66 1
    71   38   67 1
    72   38   68 1
@<TRIPOS>MOLECULE
ZINC23247639
   68    71     0     0     0
SMALL
USER_CHARGES
1-[4-[(4-ethylpiperazin-1-yl)methyl]-3-(trifluoromethyl)phenyl]-3-[4-(6-methylaminopyrimidin-4-yl)oxyphenyl]urea
@<TRIPOS>ATOM
      1 C1          8.9417    3.3719    8.2172 C.3       1 <0>        -0.1510
      2 C2         10.1498    2.9102    7.3997 C.3       1 <0>         0.0499
      3 N1          9.9972    3.3533    6.0075 N.3       1 <0>        -0.5402
      4 C3         11.2367    3.1387    5.2477 C.3       1 <0>         0.0569
      5 C4         11.0629    3.6845    3.8284 C.3       1 <0>         0.0590
      6 N2          9.9288    3.0094    3.1822 N.3       1 <0>        -0.5268
      7 C5          8.6893    3.2240    3.9420 C.3       1 <0>         0.0561
      8 C6          8.8631    2.6781    5.3612 C.3       1 <0>         0.0550
      9 C7          9.7762    3.4524    1.7899 C.3       1 <0>         0.0729
     10 C8          8.7879    2.5601    1.0842 C.ar      1 <0>        -0.0447
     11 C9          7.5022    3.0092    0.8434 C.ar      1 <0>        -0.0942
     12 C10         6.5958    2.1959    0.1923 C.ar      1 <0>        -0.0884
     13 C11         6.9731    0.9214   -0.2106 C.ar      1 <0>         0.1720
     14 C12         8.2646    0.4735    0.0326 C.ar      1 <0>        -0.1038
     15 C13         9.1683    1.2940    0.6793 C.ar      1 <0>        -0.1404
     16 C14        10.5702    0.8086    0.9441 C.3       1 <0>         0.5095
     17 F1         10.7250   -0.4786    0.4184 F         1 <0>        -0.1841
     18 F2         11.4860    1.6739    0.3362 F         1 <0>        -0.1795
     19 F3         10.8008    0.7797    2.3237 F         1 <0>        -0.1519
     20 N3          6.0552    0.0926   -0.8655 N.am      1 <0>        -0.6948
     21 C15         4.7513    0.1311   -0.5266 C.2       1 <0>         0.7096
     22 O1          4.3858    0.8194    0.4067 O.2       1 <0>        -0.5587
     23 N4          3.8526   -0.5934   -1.2222 N.am      1 <0>        -0.6930
     24 C16         2.4863   -0.4790   -0.9335 C.ar      1 <0>         0.1697
     25 C17         1.5516   -0.5518   -1.9576 C.ar      1 <0>        -0.1297
     26 C18         0.2052   -0.4394   -1.6724 C.ar      1 <0>        -0.0930
     27 C19        -0.2137   -0.2543   -0.3628 C.ar      1 <0>         0.0783
     28 C20         0.7198   -0.1815    0.6609 C.ar      1 <0>        -0.0936
     29 C21         2.0665   -0.2932    0.3769 C.ar      1 <0>        -0.1059
     30 O2         -1.5393   -0.1385   -0.0833 O.3       1 <0>        -0.2412
     31 C22        -2.3129   -1.2454   -0.1983 C.ar      1 <0>         0.3851
     32 C23        -3.6894   -1.1637   -0.0277 C.ar      1 <0>        -0.3141
     33 C24        -4.4409   -2.3284   -0.1601 C.ar      1 <0>         0.4620
     34 N5         -3.8165   -3.4721   -0.4341 N.ar      1 <0>        -0.5954
     35 C25        -2.5082   -3.5081   -0.5840 C.ar      1 <0>         0.3753
     36 N6         -1.7644   -2.4263   -0.4707 N.ar      1 <0>        -0.6017
     37 N7         -5.8178   -2.2988   -0.0034 N.pl3     1 <0>        -0.7231
     38 C26        -6.4937   -1.0344    0.2979 C.3       1 <0>         0.0898
     39 H1          9.0560    3.0401    9.2597 H         1 <0>         0.0595
     40 H2          8.0243    2.9380    7.7928 H         1 <0>         0.0547
     41 H3          8.8763    4.4695    8.1868 H         1 <0>         0.0631
     42 H4         11.0672    3.3441    7.8241 H         1 <0>         0.0746
     43 H5         10.2153    1.8126    7.4301 H         1 <0>         0.0335
     44 H6         12.0665    3.6630    5.7442 H         1 <0>         0.0800
     45 H7         11.4577    2.0621    5.2031 H         1 <0>         0.0441
     46 H8         10.8699    4.7665    3.8728 H         1 <0>         0.0445
     47 H9         11.9796    3.4990    3.2494 H         1 <0>         0.0809
     48 H10         8.4684    4.3007    3.9867 H         1 <0>         0.0435
     49 H11         7.8594    2.6998    3.4455 H         1 <0>         0.0808
     50 H12         9.0569    1.5962    5.3178 H         1 <0>         0.0425
     51 H13         7.9470    2.8635    5.9412 H         1 <0>         0.0819
     52 H14         9.4106    4.4897    1.7732 H         1 <0>         0.0550
     53 H15        10.7489    3.3982    1.2791 H         1 <0>         0.0962
     54 H16         7.2082    3.9988    1.1607 H         1 <0>         0.1355
     55 H17         5.5933    2.5489    0.0003 H         1 <0>         0.1427
     56 H18         8.5625   -0.5152   -0.2838 H         1 <0>         0.1409
     57 H19         6.3979   -0.5903   -1.6569 H         1 <0>         0.4343
     58 H20         4.1917   -1.2745   -2.0166 H         1 <0>         0.4332
     59 H21         1.8775   -0.6959   -2.9771 H         1 <0>         0.1323
     60 H22        -0.5220   -0.4960   -2.4689 H         1 <0>         0.1282
     61 H23         0.3932   -0.0371    1.6801 H         1 <0>         0.1328
     62 H24         2.7931   -0.2369    1.1740 H         1 <0>         0.1466
     63 H25        -4.1646   -0.2205    0.1982 H         1 <0>         0.1463
     64 H26        -2.0315   -4.4515   -0.8058 H         1 <0>         0.1996
     65 H27        -6.4030   -3.2246   -0.1053 H         1 <0>         0.4362
     66 H28        -7.5762   -1.2091    0.3856 H         1 <0>         0.0851
     67 H29        -6.3028   -0.3146   -0.5117 H         1 <0>         0.0598
     68 H30        -6.1096   -0.6302    1.2461 H         1 <0>         0.0599
@<TRIPOS>BOND
     1    1    2 1
     2    1   39 1
     3    1   40 1
     4    1   41 1
     5    2    3 1
     6    2   42 1
     7    2   43 1
     8    3    8 1
     9    3    4 1
    10    4    5 1
    11    4   44 1
    12    4   45 1
    13    5    6 1
    14    5   46 1
    15    5   47 1
    16    6    7 1
    17    6    9 1
    18    7    8 1
    19    7   48 1
    20    7   49 1
    21    8   50 1
    22    8   51 1
    23    9   10 1
    24    9   52 1
    25    9   53 1
    26   10   15 ar
    27   10   11 ar
    28   11   12 ar
    29   11   54 1
    30   12   13 ar
    31   12   55 1
    32   13   14 ar
    33   13   20 1
    34   14   15 ar
    35   14   56 1
    36   15   16 1
    37   16   17 1
    38   16   18 1
    39   16   19 1
    40   20   21 am
    41   20   57 1
    42   21   22 2
    43   21   23 am
    44   23   24 1
    45   23   58 1
    46   24   29 ar
    47   24   25 ar
    48   25   26 ar
    49   25   59 1
    50   26   27 ar
    51   26   60 1
    52   27   28 ar
    53   27   30 1
    54   28   29 ar
    55   28   61 1
    56   29   62 1
    57   30   31 1
    58   31   36 ar
    59   31   32 ar
    60   32   33 ar
    61   32   63 1
    62   33   34 ar
    63   33   37 1
    64   34   35 ar
    65   35   36 ar
    66   35   64 1
    67   37   38 1
    68   37   65 1
    69   38   66 1
    70   38   67 1
    71   38   68 1
@<TRIPOS>MOLECULE
ZINC00007301
   28    30     0     0     0
SMALL
USER_CHARGES
4-[5-(4-fluorophenyl)-3H-imidazol-4-yl]pyridine
@<TRIPOS>ATOM
      1 C1         -0.0126    1.0758    0.0080 C.ar      1 <0>        -0.0609
      2 C2          1.1719    1.7829    0.0004 C.ar      1 <0>        -0.1530
      3 C3          1.1544    3.1684    0.0076 C.ar      1 <0>         0.1035
      4 C4         -0.0516    3.8505    0.0229 C.ar      1 <0>        -0.1516
      5 C5         -1.2414    3.1524    0.0314 C.ar      1 <0>        -0.0738
      6 C6         -1.2291    1.7578    0.0174 C.ar      1 <0>        -0.0195
      7 C7         -2.5040    1.0033    0.0193 C.2       1 <0>         0.0742
      8 C8         -3.6712    1.3683    0.6662 C.2       1 <0>         0.0152
      9 N1         -4.5870    0.3774    0.3922 N.pl3     1 <0>        -0.5598
     10 H1         -5.5334    0.3404    0.7130 H         1 <0>         0.4317
     11 C9         -3.9714   -0.5349   -0.3895 C.2       1 <0>         0.2081
     12 N2         -2.7423   -0.1605   -0.6126 N.2       1 <0>        -0.4786
     13 C10        -3.8906    2.5764    1.4845 C.ar      1 <0>         0.0270
     14 C11        -2.9469    2.9819    2.4379 C.ar      1 <0>        -0.1463
     15 C12        -3.1905    4.1199    3.1766 C.ar      1 <0>         0.1070
     16 N3         -4.2977    4.8171    3.0028 N.ar      1 <0>        -0.4807
     17 C13        -5.2147    4.4681    2.1198 C.ar      1 <0>         0.1063
     18 C14        -5.0512    3.3473    1.3343 C.ar      1 <0>        -0.1677
     19 F1          2.3170    3.8565   -0.0007 F         1 <0>        -0.1378
     20 H2          0.0021   -0.0041    0.0020 H         1 <0>         0.1386
     21 H3          2.1144    1.2557   -0.0114 H         1 <0>         0.1394
     22 H4         -0.0602    4.9304    0.0284 H         1 <0>         0.1381
     23 H5         -2.1809    3.6849    0.0436 H         1 <0>         0.1289
     24 H6         -4.4281   -1.4346   -0.7747 H         1 <0>         0.2163
     25 H7         -2.0409    2.4137    2.5887 H         1 <0>         0.1396
     26 H8         -2.4676    4.4427    3.9112 H         1 <0>         0.1618
     27 H9         -6.1056    5.0689    2.0116 H         1 <0>         0.1601
     28 H10        -5.8057    3.0678    0.6139 H         1 <0>         0.1338
@<TRIPOS>BOND
     1    1    6 ar
     2    1    2 ar
     3    1   20 1
     4    2    3 ar
     5    2   21 1
     6    3    4 ar
     7    3   19 1
     8    4    5 ar
     9    4   22 1
    10    5    6 ar
    11    5   23 1
    12    6    7 1
    13    7   12 1
    14    7    8 2
    15    8    9 1
    16    8   13 1
    17    9   10 1
    18    9   11 1
    19   11   12 2
    20   11   24 1
    21   13   18 ar
    22   13   14 ar
    23   14   15 ar
    24   14   25 1
    25   15   16 ar
    26   15   26 1
    27   16   17 ar
    28   17   18 ar
    29   17   27 1
    30   18   28 1
@<TRIPOS>MOLECULE
ZINC00007301
   29    31     0     0     0
SMALL
USER_CHARGES
4-[5-(4-fluorophenyl)-3H-imidazol-4-yl]pyridine
@<TRIPOS>ATOM
      1 C1         -0.0126    1.0758    0.0080 C.ar      1 <0>        -0.0620
      2 C2          1.1719    1.7829    0.0004 C.ar      1 <0>        -0.1474
      3 C3          1.1544    3.1684    0.0076 C.ar      1 <0>         0.1433
      4 C4         -0.0516    3.8505    0.0229 C.ar      1 <0>        -0.1465
      5 C5         -1.2414    3.1524    0.0314 C.ar      1 <0>        -0.0465
      6 C6         -1.2291    1.7578    0.0174 C.ar      1 <0>        -0.0854
      7 C7         -2.5040    1.0033    0.0193 C.2       1 <0>         0.1093
      8 C8         -3.6712    1.3683    0.6662 C.2       1 <0>         0.1083
      9 N1         -4.5870    0.3774    0.3922 N.pl3     1 <0>        -0.5069
     10 H1         -5.5334    0.3404    0.7130 H         1 <0>         0.4760
     11 C9         -3.9714   -0.5349   -0.3895 C.cat     1 <0>         0.3153
     12 C10        -3.8906    2.5764    1.4845 C.ar      1 <0>        -0.0221
     13 C11        -2.9469    2.9819    2.4379 C.ar      1 <0>        -0.1327
     14 C12        -3.1905    4.1199    3.1766 C.ar      1 <0>         0.1168
     15 N2         -4.2977    4.8171    3.0028 N.ar      1 <0>        -0.4577
     16 C13        -5.2147    4.4681    2.1198 C.ar      1 <0>         0.1168
     17 C14        -5.0512    3.3473    1.3343 C.ar      1 <0>        -0.1484
     18 F1          2.3170    3.8565   -0.0007 F         1 <0>        -0.1203
     19 H2          0.0021   -0.0041    0.0020 H         1 <0>         0.1381
     20 H3          2.1144    1.2557   -0.0114 H         1 <0>         0.1528
     21 H4         -0.0602    4.9304    0.0284 H         1 <0>         0.1528
     22 H5         -2.1809    3.6849    0.0436 H         1 <0>         0.1397
     23 H6         -4.4281   -1.4346   -0.7747 H         1 <0>         0.2704
     24 H7         -2.0409    2.4137    2.5887 H         1 <0>         0.1461
     25 H8         -2.4676    4.4427    3.9112 H         1 <0>         0.1721
     26 H9         -6.1056    5.0689    2.0116 H         1 <0>         0.1715
     27 H10        -5.8057    3.0678    0.6139 H         1 <0>         0.1425
     28 N3         -2.7419   -0.1608   -0.6129 N.pl3     1 <0>        -0.4793
     29 H11        -2.0605   -0.6752   -1.1833 H         1 <0>         0.4836
@<TRIPOS>BOND
     1    1    6 ar
     2    1    2 ar
     3    1   19 1
     4    2    3 ar
     5    2   20 1
     6    3    4 ar
     7    3   18 1
     8    4    5 ar
     9    4   21 1
    10    5    6 ar
    11    5   22 1
    12    6    7 1
    13    7    8 2
    14    7   28 1
    15    8    9 1
    16    8   12 1
    17    9   10 1
    18    9   11 1
    19   11   23 1
    20   11   28 2
    21   12   17 ar
    22   12   13 ar
    23   13   14 ar
    24   13   24 1
    25   14   15 ar
    26   14   25 1
    27   15   16 ar
    28   16   17 ar
    29   16   26 1
    30   17   27 1
    31   28   29 1
@<TRIPOS>MOLECULE
ZINC01007417
   29    31     0     0     0
SMALL
USER_CHARGES
3-[(3,5-dibromo-4-hydroxy-phenyl)methylene]indolin-2-one
@<TRIPOS>ATOM
      1 C1          3.5573   -1.5721   -0.0317 C.ar      1 <0>        -0.1409
      2 C2          3.1667   -2.8509    0.3292 C.ar      1 <0>        -0.0771
      3 C3          1.8510   -3.1210    0.6460 C.ar      1 <0>        -0.1378
      4 C4          0.9007   -2.1064    0.6049 C.ar      1 <0>         0.1483
      5 C5          1.2988   -0.8155    0.2334 C.ar      1 <0>        -0.1120
      6 C6          2.6284   -0.5521   -0.0782 C.ar      1 <0>        -0.0581
      7 C7          0.0832    0.0282    0.2881 C.2       1 <0>        -0.1511
      8 C8         -0.0164    1.3607    0.0095 C.2       1 <0>         0.0243
      9 C9         -1.3351    1.9948   -0.0772 C.ar      1 <0>        -0.0929
     10 C10        -2.4082    1.3090   -0.6629 C.ar      1 <0>         0.0073
     11 C11        -3.6463    1.9069   -0.7356 C.ar      1 <0>        -0.1225
     12 C12        -3.8303    3.1941   -0.2408 C.ar      1 <0>         0.1822
     13 C13        -2.7673    3.8818    0.3360 C.ar      1 <0>        -0.1284
     14 C14        -1.5264    3.2912    0.4201 C.ar      1 <0>        -0.0334
     15 Br1        -3.0273    5.6308    1.0063 Br        1 <0>        -0.0198
     16 O1         -5.0516    3.7811   -0.3206 O.3       1 <0>        -0.4722
     17 Br2        -5.0975    0.9800   -1.5172 Br        1 <0>        -0.0192
     18 C15        -0.9962   -0.8841    0.7020 C.2       1 <0>         0.5527
     19 O2         -2.1650   -0.5838    0.8632 O.2       1 <0>        -0.4878
     20 N1         -0.4636   -2.1063    0.8708 N.am      1 <0>        -0.6538
     21 H1          4.5900   -1.3726   -0.2768 H         1 <0>         0.1324
     22 H2          3.8989   -3.6441    0.3634 H         1 <0>         0.1336
     23 H3          1.5588   -4.1221    0.9266 H         1 <0>         0.1297
     24 H4          2.9320    0.4454   -0.3595 H         1 <0>         0.1306
     25 H5          0.8762    1.9470   -0.1514 H         1 <0>         0.1530
     26 H6         -2.2652    0.3117   -1.0519 H         1 <0>         0.1437
     27 H7         -0.7019    3.8260    0.8680 H         1 <0>         0.1486
     28 H8         -5.1932    4.2853   -1.1335 H         1 <0>         0.4008
     29 H9         -0.9672   -2.8889    1.1441 H         1 <0>         0.4199
@<TRIPOS>BOND
     1    1    6 ar
     2    1    2 ar
     3    1   21 1
     4    2    3 ar
     5    2   22 1
     6    3    4 ar
     7    3   23 1
     8    4   20 1
     9    4    5 ar
    10    5    6 ar
    11    5    7 1
    12    6   24 1
    13    7    8 2
    14    7   18 1
    15    8    9 1
    16    8   25 1
    17    9   14 ar
    18    9   10 ar
    19   10   11 ar
    20   10   26 1
    21   11   12 ar
    22   11   17 1
    23   12   13 ar
    24   12   16 1
    25   13   14 ar
    26   13   15 1
    27   14   27 1
    28   16   28 1
    29   18   19 2
    30   18   20 am
    31   20   29 1
@<TRIPOS>MOLECULE
ZINC19632618
   69    73     0     0     0
SMALL
USER_CHARGES

@<TRIPOS>ATOM
      1 C1         -0.1643    1.5374    0.2772 C.3       1 <0>        -0.1166
      2 C2          0.0708    0.1281   -0.2021 C.ar      1 <0>        -0.1228
      3 C3         -0.6192   -0.3521   -1.2987 C.ar      1 <0>        -0.0806
      4 C4         -0.4070   -1.6434   -1.7410 C.ar      1 <0>        -0.1294
      5 C5          0.5017   -2.4641   -1.0837 C.ar      1 <0>         0.1504
      6 C6          1.1965   -1.9850    0.0175 C.ar      1 <0>        -0.1394
      7 C7          0.9852   -0.6852    0.4558 C.ar      1 <0>         0.1826
      8 N1          1.6874   -0.1967    1.5617 N.pl3     1 <0>        -0.6314
      9 C8          2.1285   -1.0695    2.5429 C.ar      1 <0>         0.5659
     10 N2          1.7764   -2.3456    2.4776 N.ar      1 <0>        -0.5577
     11 C9          2.1776   -3.2107    3.3953 C.ar      1 <0>         0.1910
     12 C10         2.9764   -2.7714    4.4364 C.ar      1 <0>        -0.2706
     13 C11         3.3313   -1.4207    4.4789 C.ar      1 <0>         0.2697
     14 N3          2.8950   -0.6087    3.5185 N.ar      1 <0>        -0.5576
     15 C12         4.1856   -0.9008    5.5740 C.ar      1 <0>        -0.1200
     16 C13         4.4510    0.4679    5.6793 C.ar      1 <0>        -0.0267
     17 C14         5.2541    0.9026    6.7193 C.ar      1 <0>        -0.1772
     18 C15         5.7636   -0.0222    7.6129 C.ar      1 <0>         0.1192
     19 N4          5.4957   -1.3077    7.4879 N.ar      1 <0>        -0.4844
     20 C16         4.7320   -1.7677    6.5181 C.ar      1 <0>         0.1336
     21 N5          0.7153   -3.7716   -1.5315 N.am      1 <0>        -0.6649
     22 C17         0.7404   -4.0356   -2.8529 C.2       1 <0>         0.5545
     23 O1          0.4912   -3.1555   -3.6535 O.2       1 <0>        -0.5086
     24 C18         1.0709   -5.3955   -3.3287 C.ar      1 <0>        -0.1216
     25 C19         1.3519   -6.4100   -2.4119 C.ar      1 <0>        -0.0841
     26 C20         1.6592   -7.6771   -2.8626 C.ar      1 <0>        -0.1244
     27 C21         1.6892   -7.9435   -4.2200 C.ar      1 <0>        -0.0692
     28 C22         1.4117   -6.9425   -5.1341 C.ar      1 <0>        -0.0994
     29 C23         1.0978   -5.6724   -4.6966 C.ar      1 <0>        -0.0536
     30 C24         2.0262   -9.3299   -4.7050 C.3       1 <0>         0.0939
     31 N6          0.7933  -10.1196   -4.8258 N.3       1 <0>        -0.5345
     32 C25         0.1866  -10.3538   -3.5078 C.3       1 <0>         0.0185
     33 C26        -1.1228  -11.1262   -3.6823 C.3       1 <0>        -0.0025
     34 N7         -0.8513  -12.4061   -4.3498 N.4       1 <0>        -0.3884
     35 C27        -0.2685  -12.1554   -5.6746 C.3       1 <0>        -0.0024
     36 C28         1.0481  -11.3916   -5.5166 C.3       1 <0>         0.0250
     37 C29        -2.1059  -13.1551   -4.5009 C.3       1 <0>        -0.0460
     38 H1          0.5251    2.2130   -0.2290 H         1 <0>         0.0728
     39 H2         -1.1901    1.8307    0.0540 H         1 <0>         0.0743
     40 H3          0.0021    1.5877    1.3533 H         1 <0>         0.0627
     41 H4         -1.3262    0.2836   -1.8111 H         1 <0>         0.1320
     42 H5         -0.9481   -2.0158   -2.5982 H         1 <0>         0.1349
     43 H6          1.9030   -2.6209    0.5302 H         1 <0>         0.1479
     44 H7          1.8658    0.7534    1.6418 H         1 <0>         0.4260
     45 H8          1.8844   -4.2483    3.3325 H         1 <0>         0.1734
     46 H9          3.3172   -3.4566    5.1985 H         1 <0>         0.1507
     47 H10         4.0401    1.1680    4.9670 H         1 <0>         0.1466
     48 H11         5.4807    1.9525    6.8318 H         1 <0>         0.1437
     49 H12         6.3909    0.3135    8.4254 H         1 <0>         0.1633
     50 H13         4.5316   -2.8268    6.4514 H         1 <0>         0.1617
     51 H14         0.8453   -4.4884   -0.8911 H         1 <0>         0.4084
     52 H15         1.3291   -6.2032   -1.3521 H         1 <0>         0.1294
     53 H16         1.8771   -8.4627   -2.1544 H         1 <0>         0.1265
     54 H17         1.4372   -7.1570   -6.1922 H         1 <0>         0.1340
     55 H18         0.8770   -4.8931   -5.4110 H         1 <0>         0.1424
     56 H19         2.5135   -9.2661   -5.6779 H         1 <0>         0.1008
     57 H20         2.6973   -9.8107   -3.9933 H         1 <0>         0.0595
     58 H21         0.8718  -10.9344   -2.8900 H         1 <0>         0.0618
     59 H22        -0.0167   -9.3975   -3.0259 H         1 <0>         0.1265
     60 H23        -1.5673  -11.3133   -2.7048 H         1 <0>         0.1359
     61 H24        -1.8127  -10.5393   -4.2887 H         1 <0>         0.1379
     62 H25        -0.0795  -13.1056   -6.1741 H         1 <0>         0.1367
     63 H26        -0.9627  -11.5633   -6.2708 H         1 <0>         0.1381
     64 H27         1.4733  -11.1924   -6.5003 H         1 <0>         0.1253
     65 H28         1.7474  -11.9892   -4.9320 H         1 <0>         0.0621
     66 H29        -2.8061  -12.5737   -5.1008 H         1 <0>         0.1233
     67 H30        -1.9046  -14.1049   -4.9963 H         1 <0>         0.1246
     68 H31        -2.5379  -13.3423   -3.5179 H         1 <0>         0.1243
     69 H32        -0.2036  -12.9443   -3.7940 H         1 <0>         0.4222
@<TRIPOS>BOND
     1    1    2 1
     2    1   38 1
     3    1   39 1
     4    1   40 1
     5    2    7 ar
     6    2    3 ar
     7    3    4 ar
     8    3   41 1
     9    4    5 ar
    10    4   42 1
    11    5    6 ar
    12    5   21 1
    13    6    7 ar
    14    6   43 1
    15    7    8 1
    16    8    9 1
    17    8   44 1
    18    9   14 ar
    19    9   10 ar
    20   10   11 ar
    21   11   12 ar
    22   11   45 1
    23   12   13 ar
    24   12   46 1
    25   13   14 ar
    26   13   15 1
    27   15   20 ar
    28   15   16 ar
    29   16   17 ar
    30   16   47 1
    31   17   18 ar
    32   17   48 1
    33   18   19 ar
    34   18   49 1
    35   19   20 ar
    36   20   50 1
    37   21   22 am
    38   21   51 1
    39   22   23 2
    40   22   24 1
    41   24   29 ar
    42   24   25 ar
    43   25   26 ar
    44   25   52 1
    45   26   27 ar
    46   26   53 1
    47   27   28 ar
    48   27   30 1
    49   28   29 ar
    50   28   54 1
    51   29   55 1
    52   30   31 1
    53   30   56 1
    54   30   57 1
    55   31   36 1
    56   31   32 1
    57   32   33 1
    58   32   58 1
    59   32   59 1
    60   33   34 1
    61   33   60 1
    62   33   61 1
    63   34   35 1
    64   34   37 1
    65   34   69 1
    66   35   36 1
    67   35   62 1
    68   35   63 1
    69   36   64 1
    70   36   65 1
    71   37   66 1
    72   37   67 1
    73   37   68 1
@<TRIPOS>MOLECULE
ZINC19632618
   69    73     0     0     0
SMALL
USER_CHARGES

@<TRIPOS>ATOM
      1 C1         -0.1643    1.5374    0.2772 C.3       1 <0>        -0.1179
      2 C2          0.0708    0.1281   -0.2021 C.ar      1 <0>        -0.1195
      3 C3         -0.6192   -0.3521   -1.2987 C.ar      1 <0>        -0.0803
      4 C4         -0.4070   -1.6434   -1.7410 C.ar      1 <0>        -0.1287
      5 C5          0.5017   -2.4641   -1.0837 C.ar      1 <0>         0.1452
      6 C6          1.1965   -1.9850    0.0175 C.ar      1 <0>        -0.1374
      7 C7          0.9852   -0.6852    0.4558 C.ar      1 <0>         0.1839
      8 N1          1.6874   -0.1967    1.5617 N.pl3     1 <0>        -0.6318
      9 C8          2.1285   -1.0695    2.5429 C.ar      1 <0>         0.5654
     10 N2          1.7764   -2.3456    2.4776 N.ar      1 <0>        -0.5590
     11 C9          2.1776   -3.2107    3.3953 C.ar      1 <0>         0.1907
     12 C10         2.9764   -2.7714    4.4364 C.ar      1 <0>        -0.2695
     13 C11         3.3313   -1.4207    4.4789 C.ar      1 <0>         0.2707
     14 N3          2.8950   -0.6087    3.5185 N.ar      1 <0>        -0.5571
     15 C12         4.1856   -0.9008    5.5740 C.ar      1 <0>        -0.1213
     16 C13         4.4510    0.4679    5.6793 C.ar      1 <0>        -0.0264
     17 C14         5.2541    0.9026    6.7193 C.ar      1 <0>        -0.1772
     18 C15         5.7636   -0.0222    7.6129 C.ar      1 <0>         0.1201
     19 N4          5.4957   -1.3077    7.4879 N.ar      1 <0>        -0.4842
     20 C16         4.7320   -1.7677    6.5181 C.ar      1 <0>         0.1342
     21 N5          0.7153   -3.7716   -1.5315 N.am      1 <0>        -0.6603
     22 C17         0.7404   -4.0356   -2.8529 C.2       1 <0>         0.5491
     23 O1          0.4912   -3.1555   -3.6535 O.2       1 <0>        -0.5015
     24 C18         1.0709   -5.3955   -3.3287 C.ar      1 <0>        -0.0938
     25 C19         1.3519   -6.4100   -2.4119 C.ar      1 <0>        -0.0834
     26 C20         1.6592   -7.6771   -2.8626 C.ar      1 <0>        -0.1009
     27 C21         1.6892   -7.9435   -4.2200 C.ar      1 <0>        -0.1382
     28 C22         1.4117   -6.9425   -5.1341 C.ar      1 <0>        -0.0966
     29 C23         1.0978   -5.6724   -4.6966 C.ar      1 <0>        -0.0538
     30 C24         2.0262   -9.3299   -4.7050 C.3       1 <0>         0.0425
     31 N6          0.7933  -10.1196   -4.8258 N.4       1 <0>        -0.3856
     32 C25         0.1989  -10.3052   -3.4955 C.3       1 <0>        -0.0078
     33 C26        -1.0954  -11.1117   -3.6230 C.3       1 <0>         0.0256
     34 N7         -0.7986  -12.4159   -4.2323 N.3       1 <0>        -0.5431
     35 C27        -0.1799  -12.2456   -5.5546 C.3       1 <0>         0.0239
     36 C28         1.1068  -11.4297   -5.4112 C.3       1 <0>        -0.0024
     37 C29        -2.0090  -13.2436   -4.3201 C.3       1 <0>         0.0192
     38 H1          0.5251    2.2130   -0.2290 H         1 <0>         0.0738
     39 H2         -1.1901    1.8307    0.0540 H         1 <0>         0.0752
     40 H3          0.0021    1.5877    1.3533 H         1 <0>         0.0636
     41 H4         -1.3262    0.2836   -1.8111 H         1 <0>         0.1330
     42 H5         -0.9481   -2.0158   -2.5982 H         1 <0>         0.1345
     43 H6          1.9030   -2.6209    0.5302 H         1 <0>         0.1487
     44 H7          1.8658    0.7534    1.6418 H         1 <0>         0.4265
     45 H8          1.8844   -4.2483    3.3325 H         1 <0>         0.1737
     46 H9          3.3172   -3.4566    5.1985 H         1 <0>         0.1513
     47 H10         4.0401    1.1680    4.9670 H         1 <0>         0.1465
     48 H11         5.4807    1.9525    6.8318 H         1 <0>         0.1439
     49 H12         6.3909    0.3135    8.4254 H         1 <0>         0.1636
     50 H13         4.5316   -2.8268    6.4514 H         1 <0>         0.1618
     51 H14         0.8453   -4.4884   -0.8911 H         1 <0>         0.4091
     52 H15         1.3291   -6.2032   -1.3521 H         1 <0>         0.1399
     53 H16         1.8771   -8.4627   -2.1544 H         1 <0>         0.1405
     54 H17         1.4372   -7.1570   -6.1922 H         1 <0>         0.1409
     55 H18         0.8770   -4.8931   -5.4110 H         1 <0>         0.1513
     56 H19         2.5135   -9.2661   -5.6779 H         1 <0>         0.1411
     57 H20         2.6973   -9.8107   -3.9933 H         1 <0>         0.1402
     58 H21         0.8998  -10.8418   -2.8560 H         1 <0>         0.1385
     59 H22        -0.0212   -9.3320   -3.0568 H         1 <0>         0.1352
     60 H23        -1.5289  -11.2624   -2.6343 H         1 <0>         0.1235
     61 H24        -1.8016  -10.5690   -4.2513 H         1 <0>         0.0601
     62 H25         0.0544  -13.2235   -5.9751 H         1 <0>         0.1247
     63 H26        -0.8711  -11.7216   -6.2147 H         1 <0>         0.0606
     64 H27         1.5598  -11.2902   -6.3927 H         1 <0>         0.1372
     65 H28         1.8030  -11.9606   -4.7619 H         1 <0>         0.1392
     66 H29        -2.7542  -12.7340   -4.9308 H         1 <0>         0.0396
     67 H30        -1.7610  -14.2028   -4.7745 H         1 <0>         0.0842
     68 H31        -2.4099  -13.4082   -3.3199 H         1 <0>         0.0844
     69 H32         0.1396   -9.6332   -5.4209 H         1 <0>         0.4206
@<TRIPOS>BOND
     1    1    2 1
     2    1   38 1
     3    1   39 1
     4    1   40 1
     5    2    7 ar
     6    2    3 ar
     7    3    4 ar
     8    3   41 1
     9    4    5 ar
    10    4   42 1
    11    5    6 ar
    12    5   21 1
    13    6    7 ar
    14    6   43 1
    15    7    8 1
    16    8    9 1
    17    8   44 1
    18    9   14 ar
    19    9   10 ar
    20   10   11 ar
    21   11   12 ar
    22   11   45 1
    23   12   13 ar
    24   12   46 1
    25   13   14 ar
    26   13   15 1
    27   15   20 ar
    28   15   16 ar
    29   16   17 ar
    30   16   47 1
    31   17   18 ar
    32   17   48 1
    33   18   19 ar
    34   18   49 1
    35   19   20 ar
    36   20   50 1
    37   21   22 am
    38   21   51 1
    39   22   23 2
    40   22   24 1
    41   24   29 ar
    42   24   25 ar
    43   25   26 ar
    44   25   52 1
    45   26   27 ar
    46   26   53 1
    47   27   28 ar
    48   27   30 1
    49   28   29 ar
    50   28   54 1
    51   29   55 1
    52   30   31 1
    53   30   56 1
    54   30   57 1
    55   31   36 1
    56   31   32 1
    57   31   69 1
    58   32   33 1
    59   32   58 1
    60   32   59 1
    61   33   34 1
    62   33   60 1
    63   33   61 1
    64   34   35 1
    65   34   37 1
    66   35   36 1
    67   35   62 1
    68   35   63 1
    69   36   64 1
    70   36   65 1
    71   37   66 1
    72   37   67 1
    73   37   68 1
@<TRIPOS>MOLECULE
ZINC19632618
   68    72     0     0     0
SMALL
USER_CHARGES

@<TRIPOS>ATOM
      1 C1         -0.1643    1.5374    0.2772 C.3       1 <0>        -0.1139
      2 C2          0.0708    0.1281   -0.2021 C.ar      1 <0>        -0.1276
      3 C3         -0.6192   -0.3521   -1.2987 C.ar      1 <0>        -0.0809
      4 C4         -0.4070   -1.6434   -1.7410 C.ar      1 <0>        -0.1296
      5 C5          0.5017   -2.4641   -1.0837 C.ar      1 <0>         0.1575
      6 C6          1.1965   -1.9850    0.0175 C.ar      1 <0>        -0.1408
      7 C7          0.9852   -0.6852    0.4558 C.ar      1 <0>         0.1805
      8 N1          1.6874   -0.1967    1.5617 N.pl3     1 <0>        -0.6310
      9 C8          2.1285   -1.0695    2.5429 C.ar      1 <0>         0.5658
     10 N2          1.7764   -2.3456    2.4776 N.ar      1 <0>        -0.5548
     11 C9          2.1776   -3.2107    3.3953 C.ar      1 <0>         0.1930
     12 C10         2.9764   -2.7714    4.4364 C.ar      1 <0>        -0.2707
     13 C11         3.3313   -1.4207    4.4789 C.ar      1 <0>         0.2660
     14 N3          2.8950   -0.6087    3.5185 N.ar      1 <0>        -0.5591
     15 C12         4.1856   -0.9008    5.5740 C.ar      1 <0>        -0.1161
     16 C13         4.4510    0.4679    5.6793 C.ar      1 <0>        -0.0277
     17 C14         5.2541    0.9026    6.7193 C.ar      1 <0>        -0.1780
     18 C15         5.7636   -0.0222    7.6129 C.ar      1 <0>         0.1167
     19 N4          5.4957   -1.3077    7.4879 N.ar      1 <0>        -0.4846
     20 C16         4.7320   -1.7677    6.5181 C.ar      1 <0>         0.1331
     21 N5          0.7153   -3.7716   -1.5315 N.am      1 <0>        -0.6684
     22 C17         0.7404   -4.0356   -2.8529 C.2       1 <0>         0.5607
     23 O1          0.4912   -3.1555   -3.6535 O.2       1 <0>        -0.5149
     24 C18         1.0709   -5.3955   -3.3287 C.ar      1 <0>        -0.1367
     25 C19         1.3519   -6.4100   -2.4119 C.ar      1 <0>        -0.0845
     26 C20         1.6592   -7.6771   -2.8626 C.ar      1 <0>        -0.1214
     27 C21         1.6892   -7.9435   -4.2200 C.ar      1 <0>        -0.0481
     28 C22         1.4117   -6.9425   -5.1341 C.ar      1 <0>        -0.1045
     29 C23         1.0978   -5.6724   -4.6966 C.ar      1 <0>        -0.0549
     30 C24         2.0262   -9.3299   -4.7050 C.3       1 <0>         0.0887
     31 N6          0.7933  -10.1196   -4.8258 N.3       1 <0>        -0.5346
     32 C25         0.1854  -10.3517   -3.5082 C.3       1 <0>         0.0528
     33 C26        -1.1341  -11.1069   -3.6840 C.3       1 <0>         0.0560
     34 N7         -0.8794  -12.3787   -4.3748 N.3       1 <0>        -0.5467
     35 C27        -0.2715  -12.1466   -5.6924 C.3       1 <0>         0.0557
     36 C28         1.0481  -11.3914   -5.5165 C.3       1 <0>         0.0569
     37 C29        -2.1122  -13.1683   -4.4955 C.3       1 <0>         0.0243
     38 H1          0.5251    2.2130   -0.2290 H         1 <0>         0.0707
     39 H2         -1.1901    1.8307    0.0540 H         1 <0>         0.0727
     40 H3          0.0021    1.5877    1.3533 H         1 <0>         0.0612
     41 H4         -1.3262    0.2836   -1.8111 H         1 <0>         0.1306
     42 H5         -0.9481   -2.0158   -2.5982 H         1 <0>         0.1361
     43 H6          1.9030   -2.6209    0.5302 H         1 <0>         0.1478
     44 H7          1.8658    0.7534    1.6418 H         1 <0>         0.4247
     45 H8          1.8844   -4.2483    3.3325 H         1 <0>         0.1749
     46 H9          3.3172   -3.4566    5.1985 H         1 <0>         0.1504
     47 H10         4.0401    1.1680    4.9670 H         1 <0>         0.1465
     48 H11         5.4807    1.9525    6.8318 H         1 <0>         0.1424
     49 H12         6.3909    0.3135    8.4254 H         1 <0>         0.1620
     50 H13         4.5316   -2.8268    6.4514 H         1 <0>         0.1624
     51 H14         0.8453   -4.4884   -0.8911 H         1 <0>         0.4098
     52 H15         1.3291   -6.2032   -1.3521 H         1 <0>         0.1256
     53 H16         1.8771   -8.4627   -2.1544 H         1 <0>         0.1277
     54 H17         1.4372   -7.1570   -6.1922 H         1 <0>         0.1323
     55 H18         0.8770   -4.8931   -5.4110 H         1 <0>         0.1380
     56 H19         2.5135   -9.2661   -5.6779 H         1 <0>         0.0885
     57 H20         2.6973   -9.8107   -3.9933 H         1 <0>         0.0490
     58 H21         0.8640  -10.9435   -2.8938 H         1 <0>         0.0436
     59 H22        -0.0051   -9.3950   -3.0219 H         1 <0>         0.0840
     60 H23        -1.5725  -11.3056   -2.7060 H         1 <0>         0.0799
     61 H24        -1.8225  -10.5033   -4.2756 H         1 <0>         0.0432
     62 H25        -0.0810  -13.1033   -6.1787 H         1 <0>         0.0811
     63 H26        -0.9501  -11.5548   -6.3068 H         1 <0>         0.0437
     64 H27         1.4864  -11.1926   -6.4945 H         1 <0>         0.0821
     65 H28         1.7364  -11.9950   -4.9250 H         1 <0>         0.0450
     66 H29        -2.8511  -12.6037   -5.0641 H         1 <0>         0.0271
     67 H30        -1.8953  -14.1043   -5.0104 H         1 <0>         0.0693
     68 H31        -2.5051  -13.3830   -3.5017 H         1 <0>         0.0693
@<TRIPOS>BOND
     1    1    2 1
     2    1   38 1
     3    1   39 1
     4    1   40 1
     5    2    7 ar
     6    2    3 ar
     7    3    4 ar
     8    3   41 1
     9    4    5 ar
    10    4   42 1
    11    5    6 ar
    12    5   21 1
    13    6    7 ar
    14    6   43 1
    15    7    8 1
    16    8    9 1
    17    8   44 1
    18    9   14 ar
    19    9   10 ar
    20   10   11 ar
    21   11   12 ar
    22   11   45 1
    23   12   13 ar
    24   12   46 1
    25   13   14 ar
    26   13   15 1
    27   15   20 ar
    28   15   16 ar
    29   16   17 ar
    30   16   47 1
    31   17   18 ar
    32   17   48 1
    33   18   19 ar
    34   18   49 1
    35   19   20 ar
    36   20   50 1
    37   21   22 am
    38   21   51 1
    39   22   23 2
    40   22   24 1
    41   24   29 ar
    42   24   25 ar
    43   25   26 ar
    44   25   52 1
    45   26   27 ar
    46   26   53 1
    47   27   28 ar
    48   27   30 1
    49   28   29 ar
    50   28   54 1
    51   29   55 1
    52   30   31 1
    53   30   56 1
    54   30   57 1
    55   31   36 1
    56   31   32 1
    57   32   33 1
    58   32   58 1
    59   32   59 1
    60   33   34 1
    61   33   60 1
    62   33   61 1
    63   34   35 1
    64   34   37 1
    65   35   36 1
    66   35   62 1
    67   35   63 1
    68   36   64 1
    69   36   65 1
    70   37   66 1
    71   37   67 1
    72   37   68 1
