@<TRIPOS>MOLECULE
ZINC06261799
   31    32     0     0     0
SMALL
USER_CHARGES

@<TRIPOS>ATOM
      1 C1         -0.0184    1.5028    0.0103 C.3       1 <0>        -0.1404
      2 C2          0.0021   -0.0041    0.0020 C.2       1 <0>         0.2395
      3 N1          0.0216   -0.6582    1.1210 N.2       1 <0>        -0.2879
      4 O1          0.0237    0.0432    2.3511 O.3       1 <0>        -0.2018
      5 C3          0.0448   -0.7543    3.4364 C.2       1 <0>         0.5195
      6 O2          0.0600   -1.9621    3.3028 O.2       1 <0>        -0.4730
      7 C4          0.0496   -0.1619    4.7868 C.ar      1 <0>        -0.1662
      8 C5          0.0263    1.2272    4.9429 C.ar      1 <0>        -0.0233
      9 C6          0.0303    1.7762    6.2055 C.ar      1 <0>        -0.1640
     10 C7          0.0579    0.9514    7.3241 C.ar      1 <0>         0.1680
     11 C8          0.0812   -0.4303    7.1734 C.ar      1 <0>        -0.2207
     12 C9          0.0715   -0.9877    5.9145 C.ar      1 <0>        -0.0068
     13 O3          0.0627    1.4967    8.5668 O.3       1 <0>        -0.3097
     14 C10         0.0916    0.5916    9.6723 C.3       1 <0>         0.0221
     15 C11        -0.0001   -0.7319   -1.2746 C.2       1 <0>         0.1127
     16 N2         -0.0124   -0.2577   -2.5151 N.2       1 <0>        -0.4616
     17 C12        -0.0119   -1.0591   -3.5496 C.2       1 <0>         0.0211
     18 C13         0.0014   -2.4094   -3.3625 C.2       1 <0>        -0.1863
     19 S1          0.0210   -2.4943   -1.5760 S.3       1 <0>         0.0931
     20 H1          1.0042    1.8801    0.0026 H         1 <0>         0.0969
     21 H2         -0.5455    1.8639   -0.8728 H         1 <0>         0.0954
     22 H3         -0.5286    1.8543    0.9071 H         1 <0>         0.0892
     23 H4          0.0055    1.8687    4.0743 H         1 <0>         0.1445
     24 H5          0.0123    2.8492    6.3269 H         1 <0>         0.1430
     25 H6          0.1026   -1.0675    8.0452 H         1 <0>         0.1412
     26 H7          0.0854   -2.0614    5.7984 H         1 <0>         0.1436
     27 H8         -0.7875   -0.0518    9.6381 H         1 <0>         0.0609
     28 H9          0.9920   -0.0203    9.6174 H         1 <0>         0.0609
     29 H10         0.0924    1.1566   10.6044 H         1 <0>         0.1057
     30 H11        -0.0224   -0.6515   -4.5497 H         1 <0>         0.1781
     31 H12         0.0035   -3.2067   -4.0910 H         1 <0>         0.2065
@<TRIPOS>BOND
     1    1    2 1
     2    1   20 1
     3    1   21 1
     4    1   22 1
     5    2    3 2
     6    2   15 1
     7    3    4 1
     8    4    5 1
     9    5    6 2
    10    5    7 1
    11    7   12 ar
    12    7    8 ar
    13    8    9 ar
    14    8   23 1
    15    9   10 ar
    16    9   24 1
    17   10   11 ar
    18   10   13 1
    19   11   12 ar
    20   11   25 1
    21   12   26 1
    22   13   14 1
    23   14   27 1
    24   14   28 1
    25   14   29 1
    26   15   19 1
    27   15   16 2
    28   16   17 1
    29   17   18 2
    30   17   30 1
    31   18   19 1
    32   18   31 1
@<TRIPOS>MOLECULE
ZINC00457477
   36    37     0     0     0
SMALL
USER_CHARGES

@<TRIPOS>ATOM
      1 C1         -0.0184    1.5028    0.0103 C.3       1 <0>        -0.1135
      2 C2          0.0021   -0.0041    0.0020 C.2       1 <0>        -0.1314
      3 C3          0.0057   -0.6706   -1.1694 C.2       1 <0>        -0.0500
      4 C4          0.0261   -2.1400   -1.1763 C.2       1 <0>         0.1788
      5 N1          0.0301   -2.7923   -2.3146 N.2       1 <0>        -0.2540
      6 O1          0.0498   -4.2082   -2.3192 O.3       1 <0>        -0.2078
      7 C5          0.0519   -4.7532   -3.5541 C.2       1 <0>         0.5057
      8 O2          0.0375   -4.0353   -4.5358 O.2       1 <0>        -0.4761
      9 C6          0.0714   -6.2062   -3.7116 C.2       1 <0>        -0.2019
     10 C7          0.0735   -6.7513   -4.9466 C.2       1 <0>         0.0101
     11 C8          0.0931   -8.2141   -5.1051 C.ar      1 <0>        -0.0884
     12 C9          0.1038   -9.0432   -3.9787 C.ar      1 <0>        -0.0950
     13 C10         0.1218  -10.4129   -4.1356 C.ar      1 <0>        -0.1234
     14 C11         0.1292  -10.9678   -5.4036 C.ar      1 <0>        -0.1003
     15 C12         0.1186  -10.1542   -6.5232 C.ar      1 <0>        -0.1236
     16 C13         0.0953   -8.7827   -6.3830 C.ar      1 <0>        -0.0872
     17 C14         0.0425   -2.8769    0.0950 C.2       1 <0>        -0.1065
     18 C15         0.0388   -2.2032    1.2624 C.2       1 <0>        -0.1270
     19 C16         0.0241   -0.7410    1.2649 C.2       1 <0>         0.4050
     20 O3          0.0258   -0.1345    2.3230 O.2       1 <0>        -0.4243
     21 C17         0.0551   -2.9579    2.5667 C.3       1 <0>        -0.1125
     22 H1          1.0042    1.8801    0.0026 H         1 <0>         0.0839
     23 H2         -0.5455    1.8639   -0.8728 H         1 <0>         0.0794
     24 H3         -0.5286    1.8543    0.9071 H         1 <0>         0.0818
     25 H4         -0.0068   -0.1256   -2.1017 H         1 <0>         0.1566
     26 H5          0.0842   -6.8438   -2.8400 H         1 <0>         0.1443
     27 H6          0.0607   -6.1138   -5.8182 H         1 <0>         0.1414
     28 H7          0.0984   -8.6117   -2.9887 H         1 <0>         0.1299
     29 H8          0.1304  -11.0545   -3.2669 H         1 <0>         0.1286
     30 H9          0.1436  -12.0415   -5.5200 H         1 <0>         0.1271
     31 H10         0.1249  -10.5947   -7.5093 H         1 <0>         0.1292
     32 H11         0.0830   -8.1492   -7.2576 H         1 <0>         0.1308
     33 H12         0.0572   -3.9568    0.0940 H         1 <0>         0.1514
     34 H13         0.0687   -4.0292    2.3665 H         1 <0>         0.0748
     35 H14         0.9441   -2.6830    3.1344 H         1 <0>         0.0820
     36 H15        -0.8357   -2.7072    3.1427 H         1 <0>         0.0820
@<TRIPOS>BOND
     1    1    2 1
     2    1   22 1
     3    1   23 1
     4    1   24 1
     5    2   19 1
     6    2    3 2
     7    3    4 1
     8    3   25 1
     9    4    5 2
    10    4   17 1
    11    5    6 1
    12    6    7 1
    13    7    8 2
    14    7    9 1
    15    9   10 2
    16    9   26 1
    17   10   11 1
    18   10   27 1
    19   11   16 ar
    20   11   12 ar
    21   12   13 ar
    22   12   28 1
    23   13   14 ar
    24   13   29 1
    25   14   15 ar
    26   14   30 1
    27   15   16 ar
    28   15   31 1
    29   16   32 1
    30   17   18 2
    31   17   33 1
    32   18   19 1
    33   18   21 1
    34   19   20 2
    35   21   34 1
    36   21   35 1
    37   21   36 1
@<TRIPOS>MOLECULE
ZINC06261798
   27    28     0     0     0
SMALL
USER_CHARGES

@<TRIPOS>ATOM
      1 C1         -0.0184    1.5028    0.0103 C.3       1 <0>        -0.1410
      2 C2          0.0021   -0.0041    0.0020 C.2       1 <0>         0.2426
      3 N1          0.0216   -0.6582    1.1210 N.2       1 <0>        -0.2884
      4 O1          0.0237    0.0432    2.3511 O.3       1 <0>        -0.2019
      5 C3          0.0448   -0.7542    3.4363 C.2       1 <0>         0.5176
      6 O2          0.0600   -1.9618    3.3026 O.2       1 <0>        -0.4655
      7 C4          0.0496   -0.1612    4.7878 C.ar      1 <0>        -0.1366
      8 C5          0.0264    1.2269    4.9445 C.ar      1 <0>        -0.0346
      9 C6          0.0310    1.7751    6.2090 C.ar      1 <0>        -0.1652
     10 C7          0.0590    0.9518    7.3244 C.ar      1 <0>         0.1394
     11 C8          0.0826   -0.4266    7.1748 C.ar      1 <0>        -0.1630
     12 C9          0.0715   -0.9860    5.9153 C.ar      1 <0>        -0.0205
     13 F1          0.0638    1.4946    8.5616 F         1 <0>        -0.1287
     14 C10        -0.0001   -0.7319   -1.2746 C.2       1 <0>         0.1102
     15 N2         -0.0124   -0.2577   -2.5151 N.2       1 <0>        -0.4606
     16 C11        -0.0124   -1.0591   -3.5496 C.2       1 <0>         0.0209
     17 C12         0.0005   -2.4094   -3.3625 C.2       1 <0>        -0.1848
     18 S1          0.0210   -2.4943   -1.5760 S.3       1 <0>         0.0946
     19 H1          1.0042    1.8801    0.0026 H         1 <0>         0.0975
     20 H2         -0.5455    1.8639   -0.8728 H         1 <0>         0.0961
     21 H3         -0.5286    1.8543    0.9071 H         1 <0>         0.0892
     22 H4          0.0052    1.8690    4.0765 H         1 <0>         0.1480
     23 H5          0.0131    2.8480    6.3313 H         1 <0>         0.1480
     24 H6          0.1051   -1.0631    8.0471 H         1 <0>         0.1498
     25 H7          0.0850   -2.0597    5.8000 H         1 <0>         0.1516
     26 H8         -0.0229   -0.6515   -4.5497 H         1 <0>         0.1785
     27 H9          0.0021   -3.2067   -4.0910 H         1 <0>         0.2069
@<TRIPOS>BOND
     1    1    2 1
     2    1   19 1
     3    1   20 1
     4    1   21 1
     5    2    3 2
     6    2   14 1
     7    3    4 1
     8    4    5 1
     9    5    6 2
    10    5    7 1
    11    7   12 ar
    12    7    8 ar
    13    8    9 ar
    14    8   22 1
    15    9   10 ar
    16    9   23 1
    17   10   11 ar
    18   10   13 1
    19   11   12 ar
    20   11   24 1
    21   12   25 1
    22   14   18 1
    23   14   15 2
    24   15   16 1
    25   16   17 2
    26   16   26 1
    27   17   18 1
    28   17   27 1
@<TRIPOS>MOLECULE
ZINC06261794
   33    34     0     0     0
SMALL
USER_CHARGES
1-thiazol-2-ylethylideneamino cyclohexanecarboxylate
@<TRIPOS>ATOM
      1 C1         -1.5476    2.1330   -6.0476 C.3       1 <0>        -0.1424
      2 C2         -0.3163    1.2874   -5.8473 C.2       1 <0>         0.1642
      3 N1          0.0908    1.0092   -4.6485 N.2       1 <0>        -0.3036
      4 O1         -0.5218    1.4311   -3.6840 O.3       1 <0>        -0.1119
      5 C3         -0.0473    1.1066   -2.4714 C.2       1 <0>         0.4624
      6 O2          0.9485    0.4227   -2.3734 O.2       1 <0>        -0.4486
      7 C4         -0.7527    1.5927   -1.2315 C.3       1 <0>        -0.0669
      8 C5         -0.0127    1.0858    0.0080 C.3       1 <0>        -0.1070
      9 C6         -0.7288    1.5792    1.2668 C.3       1 <0>        -0.1185
     10 C7         -0.7496    3.1091    1.2752 C.3       1 <0>        -0.1260
     11 C8         -1.4896    3.6159    0.0357 C.3       1 <0>        -0.1175
     12 C9         -0.7734    3.1225   -1.2231 C.3       1 <0>        -0.1154
     13 C10         0.4228    0.7783   -7.0110 C.2       1 <0>         0.1433
     14 N2          1.5169    0.0267   -7.0516 N.2       1 <0>        -0.4673
     15 C11         2.0483   -0.3401   -8.1897 C.2       1 <0>         0.0252
     16 C12         1.4760    0.0510   -9.3636 C.2       1 <0>        -0.1913
     17 S1          0.0865    0.9976   -8.7535 S.3       1 <0>         0.0532
     18 H1         -1.2626    3.1839   -6.0969 H         1 <0>         0.0914
     19 H2         -2.0384    1.8456   -6.9775 H         1 <0>         0.0828
     20 H3         -2.2324    1.9810   -5.2134 H         1 <0>         0.0885
     21 H4         -1.7753    1.2154   -1.2238 H         1 <0>         0.1165
     22 H5          0.0021   -0.0041    0.0020 H         1 <0>         0.0755
     23 H6          1.0099    1.4631    0.0003 H         1 <0>         0.0757
     24 H7         -1.7514    1.2020    1.2746 H         1 <0>         0.0668
     25 H8         -0.2017    1.2182    2.1499 H         1 <0>         0.0720
     26 H9          0.2730    3.4864    1.2675 H         1 <0>         0.0650
     27 H10        -1.2598    3.4606    2.1720 H         1 <0>         0.0673
     28 H11        -1.5044    4.7058    0.0417 H         1 <0>         0.0712
     29 H12        -2.5122    3.2386    0.0434 H         1 <0>         0.0682
     30 H13         0.2491    3.4998   -1.2308 H         1 <0>         0.0719
     31 H14        -1.3006    3.4836   -2.1062 H         1 <0>         0.0774
     32 H15         2.9386   -0.9513   -8.1991 H         1 <0>         0.1731
     33 H16         1.7758   -0.1569  -10.3801 H         1 <0>         0.2048
@<TRIPOS>BOND
     1    1    2 1
     2    1   18 1
     3    1   19 1
     4    1   20 1
     5    2    3 2
     6    2   13 1
     7    3    4 1
     8    4    5 1
     9    5    6 2
    10    5    7 1
    11    7   12 1
    12    7    8 1
    13    7   21 1
    14    8    9 1
    15    8   22 1
    16    8   23 1
    17    9   10 1
    18    9   24 1
    19    9   25 1
    20   10   11 1
    21   10   26 1
    22   10   27 1
    23   11   12 1
    24   11   28 1
    25   11   29 1
    26   12   30 1
    27   12   31 1
    28   13   17 1
    29   13   14 2
    30   14   15 1
    31   15   16 2
    32   15   32 1
    33   16   17 1
    34   16   33 1
@<TRIPOS>MOLECULE
ZINC00102112
   36    37     0     0     0
SMALL
USER_CHARGES

@<TRIPOS>ATOM
      1 C1         -0.0184    1.5028    0.0103 C.3       1 <0>        -0.1136
      2 C2          0.0021   -0.0041    0.0020 C.2       1 <0>        -0.1312
      3 C3          0.0056   -0.6706   -1.1694 C.2       1 <0>        -0.0500
      4 C4          0.0255   -2.1401   -1.1763 C.2       1 <0>         0.1794
      5 N1          0.0295   -2.7923   -2.3144 N.2       1 <0>        -0.2523
      6 O1          0.0487   -4.2082   -2.3190 O.3       1 <0>        -0.2088
      7 C5          0.0508   -4.7527   -3.5527 C.2       1 <0>         0.5206
      8 O2          0.0368   -4.0355   -4.5333 O.2       1 <0>        -0.4718
      9 C6          0.0700   -6.2182   -3.7115 C.ar      1 <0>        -0.1680
     10 C7          0.0803   -7.0456   -2.5843 C.ar      1 <0>        -0.0232
     11 C8          0.0983   -8.4136   -2.7372 C.ar      1 <0>        -0.1641
     12 C9          0.1067   -8.9728   -4.0100 C.ar      1 <0>         0.1693
     13 C10         0.0964   -8.1539   -5.1335 C.ar      1 <0>        -0.2206
     14 C11         0.0721   -6.7850   -4.9897 C.ar      1 <0>        -0.0060
     15 O3          0.1253  -10.3217   -4.1562 O.3       1 <0>        -0.3093
     16 C12         0.1330  -10.8294   -5.4920 C.3       1 <0>         0.0219
     17 C13         0.0416   -2.8771    0.0952 C.2       1 <0>        -0.1071
     18 C14         0.0379   -2.2034    1.2625 C.2       1 <0>        -0.1262
     19 C15         0.0241   -0.7410    1.2650 C.2       1 <0>         0.4049
     20 O4          0.0258   -0.1346    2.3231 O.2       1 <0>        -0.4240
     21 C16         0.0538   -2.9580    2.5668 C.3       1 <0>        -0.1127
     22 H1          1.0042    1.8801    0.0026 H         1 <0>         0.0839
     23 H2         -0.5455    1.8639   -0.8728 H         1 <0>         0.0795
     24 H3         -0.5286    1.8543    0.9071 H         1 <0>         0.0818
     25 H4         -0.0065   -0.1255   -2.1017 H         1 <0>         0.1568
     26 H5          0.0746   -6.6120   -1.5952 H         1 <0>         0.1433
     27 H6          0.1063   -9.0533   -1.8671 H         1 <0>         0.1431
     28 H7          0.1030   -8.5924   -6.1205 H         1 <0>         0.1418
     29 H8          0.0597   -6.1496   -5.8630 H         1 <0>         0.1440
     30 H9          0.1480  -11.9190   -5.4664 H         1 <0>         0.1061
     31 H10        -0.7615  -10.4905   -6.0146 H         1 <0>         0.0612
     32 H11         1.0183  -10.4660   -6.0137 H         1 <0>         0.0612
     33 H12         0.0559   -3.9570    0.0942 H         1 <0>         0.1511
     34 H13         0.0671   -4.0294    2.3666 H         1 <0>         0.0750
     35 H14         0.9428   -2.6834    3.1346 H         1 <0>         0.0821
     36 H15        -0.8370   -2.7070    3.1427 H         1 <0>         0.0821
@<TRIPOS>BOND
     1    1    2 1
     2    1   22 1
     3    1   23 1
     4    1   24 1
     5    2   19 1
     6    2    3 2
     7    3    4 1
     8    3   25 1
     9    4    5 2
    10    4   17 1
    11    5    6 1
    12    6    7 1
    13    7    8 2
    14    7    9 1
    15    9   14 ar
    16    9   10 ar
    17   10   11 ar
    18   10   26 1
    19   11   12 ar
    20   11   27 1
    21   12   13 ar
    22   12   15 1
    23   13   14 ar
    24   13   28 1
    25   14   29 1
    26   15   16 1
    27   16   30 1
    28   16   31 1
    29   16   32 1
    30   17   18 2
    31   17   33 1
    32   18   19 1
    33   18   21 1
    34   19   20 2
    35   21   34 1
    36   21   35 1
    37   21   36 1
@<TRIPOS>MOLECULE
ZINC12350577
   27    28     0     0     0
SMALL
USER_CHARGES

@<TRIPOS>ATOM
      1 C1         -0.0184    1.5028    0.0103 C.3       1 <0>        -0.1411
      2 C2          0.0021   -0.0041    0.0020 C.2       1 <0>         0.2431
      3 N1          0.0216   -0.6582    1.1210 N.2       1 <0>        -0.2886
      4 O1          0.0237    0.0432    2.3511 O.3       1 <0>        -0.2015
      5 C3          0.0448   -0.7542    3.4362 C.2       1 <0>         0.5162
      6 O2          0.0600   -1.9617    3.3026 O.2       1 <0>        -0.4638
      7 C4          0.0496   -0.1609    4.7884 C.ar      1 <0>        -0.1202
      8 C5          0.0263    1.2268    4.9453 C.ar      1 <0>        -0.0518
      9 C6          0.0304    1.7747    6.2106 C.ar      1 <0>        -0.1216
     10 C7          0.0575    0.9519    7.3247 C.ar      1 <0>        -0.0012
     11 C8          0.0806   -0.4251    7.1756 C.ar      1 <0>        -0.1194
     12 C9          0.0715   -0.9852    5.9157 C.ar      1 <0>        -0.0378
     13 Cl1         0.0630    1.6494    8.9144 Cl        1 <0>        -0.0530
     14 C10        -0.0001   -0.7319   -1.2746 C.2       1 <0>         0.1099
     15 N2         -0.0124   -0.2577   -2.5151 N.2       1 <0>        -0.4604
     16 C11        -0.0119   -1.0591   -3.5496 C.2       1 <0>         0.0209
     17 C12         0.0014   -2.4094   -3.3625 C.2       1 <0>        -0.1846
     18 S1          0.0210   -2.4943   -1.5760 S.3       1 <0>         0.0946
     19 H1          1.0042    1.8801    0.0026 H         1 <0>         0.0976
     20 H2         -0.5455    1.8639   -0.8728 H         1 <0>         0.0962
     21 H3         -0.5286    1.8543    0.9071 H         1 <0>         0.0892
     22 H4          0.0055    1.8692    4.0775 H         1 <0>         0.1473
     23 H5          0.0128    2.8475    6.3333 H         1 <0>         0.1459
     24 H6          0.1021   -1.0613    8.0480 H         1 <0>         0.1476
     25 H7          0.0850   -2.0590    5.8008 H         1 <0>         0.1509
     26 H8         -0.0224   -0.6515   -4.5497 H         1 <0>         0.1785
     27 H9          0.0038   -3.2067   -4.0910 H         1 <0>         0.2069
@<TRIPOS>BOND
     1    1    2 1
     2    1   19 1
     3    1   20 1
     4    1   21 1
     5    2    3 2
     6    2   14 1
     7    3    4 1
     8    4    5 1
     9    5    6 2
    10    5    7 1
    11    7   12 ar
    12    7    8 ar
    13    8    9 ar
    14    8   22 1
    15    9   10 ar
    16    9   23 1
    17   10   11 ar
    18   10   13 1
    19   11   12 ar
    20   11   24 1
    21   12   25 1
    22   14   18 1
    23   14   15 2
    24   15   16 1
    25   16   17 2
    26   16   26 1
    27   17   18 1
    28   17   27 1
@<TRIPOS>MOLECULE
ZINC00898523
   77    81     0     0     0
SMALL
USER_CHARGES
(6,7-dimethoxy-1,2,3,4-tetrahydroisoquinolin-1-yl)methyl-ethyl-dimethoxy-BLAH
@<TRIPOS>ATOM
      1 C1         -0.7288    1.5792    1.2668 C.3       1 <0>        -0.1679
      2 C2         -0.0127    1.0858    0.0080 C.3       1 <0>        -0.1216
      3 C3         -0.7527    1.5927   -1.2315 C.3       1 <0>        -0.1048
      4 H1         -0.8448    2.6776   -1.1817 H         1 <0>         0.1057
      5 C4         -2.1475    0.9637   -1.2864 C.3       1 <0>        -0.0032
      6 C5         -4.2374    0.9639   -2.5196 C.3       1 <0>         0.0024
      7 C6         -5.0013    1.7737   -3.5678 C.3       1 <0>        -0.1074
      8 C7         -4.2419    1.7815   -4.8699 C.ar      1 <0>        -0.0747
      9 C8         -4.9172    2.1481   -6.0249 C.ar      1 <0>        -0.1671
     10 C9         -4.2599    2.1743   -7.2418 C.ar      1 <0>         0.1408
     11 C10        -2.9126    1.8301   -7.3048 C.ar      1 <0>         0.1181
     12 C11        -2.2442    1.4635   -6.1507 C.ar      1 <0>        -0.1588
     13 C12        -2.9080    1.4372   -4.9323 C.ar      1 <0>        -0.1389
     14 C13        -2.1390    1.0228   -3.7067 C.3       1 <0>         0.0997
     15 H2         -2.0228   -0.0610   -3.7060 H         1 <0>         0.1406
     16 C14        -0.7465    1.6568   -3.7283 C.3       1 <0>        -0.1493
     17 C15         0.0301    1.2034   -2.4883 C.3       1 <0>        -0.1097
     18 H3          0.1599    0.1215   -2.5157 H         1 <0>         0.0861
     19 C16         1.4008    1.8828   -2.4673 C.3       1 <0>        -0.1461
     20 C17         2.2293    1.3966   -3.6581 C.3       1 <0>         0.0924
     21 H4          1.6748    1.5762   -4.5793 H         1 <0>         0.1423
     22 C18         3.5286    2.1578   -3.7036 C.ar      1 <0>        -0.1384
     23 C19         3.4995    3.5248   -3.4663 C.ar      1 <0>        -0.1579
     24 C20         4.6665    4.2664   -3.4999 C.ar      1 <0>         0.1197
     25 C21         5.8769    3.6360   -3.7745 C.ar      1 <0>         0.1411
     26 C22         5.9012    2.2730   -4.0095 C.ar      1 <0>        -0.1686
     27 C23         4.7280    1.5335   -3.9725 C.ar      1 <0>        -0.0770
     28 C24         4.8074    0.0504   -4.2300 C.3       1 <0>        -0.1060
     29 C25         3.4181   -0.4978   -4.5565 C.3       1 <0>         0.0009
     30 O1          7.0296    4.3565   -3.8118 O.3       1 <0>        -0.2931
     31 C26         8.2327    3.6413   -4.1002 C.3       1 <0>         0.0193
     32 O2          4.6317    5.6056   -3.2662 O.3       1 <0>        -0.2926
     33 C27         3.3538    6.1832   -2.9914 C.3       1 <0>         0.0227
     34 O3         -2.2564    1.8546   -8.4956 O.3       1 <0>        -0.2920
     35 C28        -0.8750    1.4889   -8.4828 C.3       1 <0>         0.0239
     36 O4         -4.9266    2.5349   -8.3709 O.3       1 <0>        -0.2934
     37 C29        -6.3071    2.8753   -8.2285 C.3       1 <0>         0.0191
     38 H5         -0.7436    2.6691    1.2728 H         1 <0>         0.0645
     39 H6         -1.7514    1.2020    1.2746 H         1 <0>         0.0581
     40 H7         -0.2017    1.2182    2.1499 H         1 <0>         0.0731
     41 H8          0.0021   -0.0041    0.0020 H         1 <0>         0.0760
     42 H9          1.0099    1.4631    0.0003 H         1 <0>         0.0845
     43 H10        -2.0559   -0.1220   -1.3184 H         1 <0>         0.1343
     44 H11        -2.7131    1.2555   -0.4015 H         1 <0>         0.1408
     45 H12        -4.2626   -0.0932   -2.7841 H         1 <0>         0.1355
     46 H13        -4.6936    1.1100   -1.5405 H         1 <0>         0.1403
     47 H14        -5.9832    1.3271   -3.7246 H         1 <0>         0.1263
     48 H15        -5.1240    2.7976   -3.2148 H         1 <0>         0.1059
     49 H16        -5.9625    2.4151   -5.9737 H         1 <0>         0.1501
     50 H17        -1.1988    1.1967   -6.1980 H         1 <0>         0.1383
     51 H18        -0.2159    1.3404   -4.6264 H         1 <0>         0.1078
     52 H19        -0.8403    2.7427   -3.7240 H         1 <0>         0.1057
     53 H20         1.2718    2.9633   -2.5314 H         1 <0>         0.1207
     54 H21         1.9160    1.6328   -1.5399 H         1 <0>         0.1099
     55 H22         2.5597    4.0127   -3.2538 H         1 <0>         0.1428
     56 H23         6.8390    1.7816   -4.2227 H         1 <0>         0.1496
     57 H24         5.4765   -0.1358   -5.0701 H         1 <0>         0.1259
     58 H25         5.1948   -0.4507   -3.3428 H         1 <0>         0.1066
     59 H26         3.0969   -0.1258   -5.5294 H         1 <0>         0.1344
     60 H27         3.4487   -1.5873   -4.5729 H         1 <0>         0.1441
     61 H28         9.0754    4.3326   -4.0996 H         1 <0>         0.1150
     62 H29         8.3907    2.8751   -3.3412 H         1 <0>         0.0624
     63 H30         8.1496    3.1706   -5.0799 H         1 <0>         0.0627
     64 H31         3.4676    7.2542   -2.8240 H         1 <0>         0.1130
     65 H32         2.6898    6.0165   -3.8396 H         1 <0>         0.0572
     66 H33         2.9293    5.7193   -2.1010 H         1 <0>         0.0563
     67 H34        -0.4734    1.5507   -9.4942 H         1 <0>         0.1125
     68 H35        -0.3253    2.1684   -7.8314 H         1 <0>         0.0539
     69 H36        -0.7727    0.4687   -8.1129 H         1 <0>         0.0555
     70 H37        -6.7177    3.1430   -9.2021 H         1 <0>         0.1152
     71 H38        -6.8523    2.0213   -7.8266 H         1 <0>         0.0631
     72 H39        -6.4044    3.7213   -7.5481 H         1 <0>         0.0626
     73 N1         -2.8471    1.4624   -2.4927 N.4       1 <0>        -0.3902
     74 H40        -2.8613    2.4887   -2.4677 H         1 <0>         0.4296
     75 N2          2.4784   -0.0442   -3.5141 N.4       1 <0>        -0.5149
     76 H41         1.5923   -0.5541   -3.6094 H         1 <0>         0.4290
     77 H42         2.8819   -0.2291   -2.5882 H         1 <0>         0.4360
@<TRIPOS>BOND
     1    1    2 1
     2    1   38 1
     3    1   39 1
     4    1   40 1
     5    2    3 1
     6    2   41 1
     7    2   42 1
     8    3    4 1
     9    3   17 1
    10    3    5 1
    11    5   43 1
    12    5   44 1
    13    5   73 1
    14    6    7 1
    15    6   45 1
    16    6   46 1
    17    6   73 1
    18    7    8 1
    19    7   47 1
    20    7   48 1
    21    8   13 ar
    22    8    9 ar
    23    9   10 ar
    24    9   49 1
    25   10   11 ar
    26   10   36 1
    27   11   12 ar
    28   11   34 1
    29   12   13 ar
    30   12   50 1
    31   13   14 1
    32   14   15 1
    33   14   16 1
    34   14   73 1
    35   16   17 1
    36   16   51 1
    37   16   52 1
    38   17   18 1
    39   17   19 1
    40   19   20 1
    41   19   53 1
    42   19   54 1
    43   20   21 1
    44   20   22 1
    45   20   75 1
    46   22   27 ar
    47   22   23 ar
    48   23   24 ar
    49   23   55 1
    50   24   25 ar
    51   24   32 1
    52   25   26 ar
    53   25   30 1
    54   26   27 ar
    55   26   56 1
    56   27   28 1
    57   28   29 1
    58   28   57 1
    59   28   58 1
    60   29   59 1
    61   29   60 1
    62   29   75 1
    63   30   31 1
    64   31   61 1
    65   31   62 1
    66   31   63 1
    67   32   33 1
    68   33   64 1
    69   33   65 1
    70   33   66 1
    71   34   35 1
    72   35   67 1
    73   35   68 1
    74   35   69 1
    75   36   37 1
    76   37   70 1
    77   37   71 1
    78   37   72 1
    79   73   74 1
    80   75   76 1
    81   75   77 1
