@<TRIPOS>MOLECULE
ZINC04393164
   93    93     0     0     0
SMALL
USER_CHARGES
5-amino-N-(2-carbamoyl-2-methyl-propyl)-4-hydroxy-2-isopropyl-7-[[4-methoxy-3-(3-methoxypropoxy)phenyl]methyl]-8-methyl-nonanamide
@<TRIPOS>ATOM
      1 C1          2.7303    2.3271   -1.6084 C.3       1 <0>        -0.1554
      2 C2          1.8970    3.5781   -1.3229 C.3       1 <0>        -0.0942
      3 C3          2.1730    4.0604    0.1026 C.3       1 <0>        -0.1587
      4 C4          2.2738    4.6794   -2.3159 C.3       1 <0>        -0.0886
      5 H1          2.1745    4.3009   -3.3332 H         1 <0>         0.0650
      6 C5          1.3430    5.8786   -2.1249 C.3       1 <0>        -0.0808
      7 C6         -0.0627    5.4887   -2.5030 C.ar      1 <0>        -0.0922
      8 C7         -0.9040    4.9364   -1.5550 C.ar      1 <0>        -0.1065
      9 C8         -2.1945    4.5775   -1.8968 C.ar      1 <0>        -0.1680
     10 C9         -2.6456    4.7657   -3.1934 C.ar      1 <0>         0.1077
     11 C10        -1.8003    5.3256   -4.1465 C.ar      1 <0>         0.1073
     12 C11        -0.5080    5.6836   -3.7971 C.ar      1 <0>        -0.1772
     13 O1         -2.2399    5.5167   -5.4191 O.3       1 <0>        -0.2975
     14 C12        -1.3159    6.0915   -6.3453 C.3       1 <0>         0.0681
     15 C13        -1.9847    6.2285   -7.7145 C.3       1 <0>        -0.1252
     16 C14        -0.9954    6.8440   -8.7061 C.3       1 <0>         0.0683
     17 O2         -1.6201    6.9719   -9.9849 O.3       1 <0>        -0.3871
     18 C15        -0.7770    7.5396  -10.9895 C.3       1 <0>         0.0307
     19 O3         -3.9132    4.4084   -3.5325 O.3       1 <0>        -0.3037
     20 C16        -4.7261    3.8444   -2.5014 C.3       1 <0>         0.0240
     21 C17         3.7207    5.1129   -2.0719 C.3       1 <0>        -0.1393
     22 C18         4.1448    6.1068   -3.1550 C.3       1 <0>        -0.0060
     23 H2          3.4570    6.9524   -3.1617 H         1 <0>         0.1532
     24 C19         5.5620    6.6046   -2.8636 C.3       1 <0>         0.0902
     25 H3          5.5815    7.0966   -1.8912 H         1 <0>         0.1472
     26 C20         5.9861    7.5985   -3.9467 C.3       1 <0>        -0.1578
     27 C21         7.3396    8.2087   -3.5771 C.3       1 <0>        -0.0962
     28 H4          7.2933    8.6090   -2.5643 H         1 <0>         0.1028
     29 C22         8.4224    7.1302   -3.6502 C.3       1 <0>        -0.1014
     30 C23         8.4491    6.5290   -5.0569 C.3       1 <0>        -0.1511
     31 C24         9.7842    7.7525   -3.3356 C.3       1 <0>        -0.1755
     32 C25         7.6703    9.3187   -4.5413 C.2       1 <0>         0.5185
     33 O4          7.0087    9.4655   -5.5470 O.2       1 <0>        -0.5394
     34 N1          8.7014   10.1482   -4.2859 N.am      1 <0>        -0.7238
     35 C26         9.0556   11.1944   -5.2483 C.3       1 <0>         0.1402
     36 C27        10.2518   11.9891   -4.7206 C.3       1 <0>        -0.0969
     37 C28         9.8865   12.6312   -3.3807 C.3       1 <0>        -0.1449
     38 C29        11.4434   11.0491   -4.5276 C.3       1 <0>        -0.1468
     39 C30        10.6161   13.0653   -5.7106 C.2       1 <0>         0.5302
     40 O5          9.9815   13.1849   -6.7372 O.2       1 <0>        -0.5350
     41 N2         11.6472   13.8948   -5.4552 N.am      1 <0>        -0.8493
     42 O6          6.4638    5.4961   -2.8549 O.3       1 <0>        -0.5299
     43 H5          2.5176    1.5690   -0.8546 H         1 <0>         0.0638
     44 H6          2.4772    1.9393   -2.5952 H         1 <0>         0.0535
     45 H7          3.7897    2.5817   -1.5788 H         1 <0>         0.0557
     46 H8          0.8382    3.3411   -1.4277 H         1 <0>         0.0878
     47 H9          1.6498    5.0008    0.2757 H         1 <0>         0.0606
     48 H10         1.8214    3.3128    0.8136 H         1 <0>         0.0620
     49 H11         3.2445    4.2112    0.2340 H         1 <0>         0.0584
     50 H12         1.6750    6.7008   -2.7588 H         1 <0>         0.0666
     51 H13         1.3647    6.1928   -1.0814 H         1 <0>         0.0897
     52 H14        -0.5522    4.7854   -0.5451 H         1 <0>         0.1288
     53 H15        -2.8496    4.1462   -1.1544 H         1 <0>         0.1390
     54 H16         0.1514    6.1146   -4.5360 H         1 <0>         0.1263
     55 H17        -1.0103    7.0757   -5.9901 H         1 <0>         0.0624
     56 H18        -0.4401    5.4483   -6.4314 H         1 <0>         0.0572
     57 H19        -2.2903    5.2443   -8.0697 H         1 <0>         0.0863
     58 H20        -2.8604    6.8717   -7.6284 H         1 <0>         0.0877
     59 H21        -0.6898    7.8281   -8.3510 H         1 <0>         0.0510
     60 H22        -0.1196    6.2007   -8.7922 H         1 <0>         0.0478
     61 H23        -1.3244    7.6029  -11.9299 H         1 <0>         0.0924
     62 H24        -0.4669    8.5382  -10.6817 H         1 <0>         0.0438
     63 H25         0.1032    6.9108  -11.1230 H         1 <0>         0.0422
     64 H26        -4.2565    2.9357   -2.1248 H         1 <0>         0.0571
     65 H27        -4.8318    4.5626   -1.6884 H         1 <0>         0.0579
     66 H28        -5.7099    3.6046   -2.9047 H         1 <0>         0.1060
     67 H29         3.7978    5.5869   -1.0934 H         1 <0>         0.1195
     68 H30         4.3721    4.2396   -2.1050 H         1 <0>         0.1036
     69 H31         6.0698    7.0809   -4.9023 H         1 <0>         0.0785
     70 H32         5.2405    8.3896   -4.0261 H         1 <0>         0.0985
     71 H33         8.2044    6.3468   -2.9244 H         1 <0>         0.1162
     72 H34         8.5771    7.3254   -5.7900 H         1 <0>         0.0599
     73 H35         9.2783    5.8259   -5.1358 H         1 <0>         0.0662
     74 H36         7.5111    6.0074   -5.2470 H         1 <0>         0.0407
     75 H37         9.7577    8.2018   -2.3428 H         1 <0>         0.0602
     76 H38        10.5522    6.9795   -3.3642 H         1 <0>         0.0676
     77 H39        10.0129    8.5195   -4.0755 H         1 <0>         0.0679
     78 H40         9.2090   10.0526   -3.4648 H         1 <0>         0.4029
     79 H41         9.3158   10.7370   -6.2028 H         1 <0>         0.0798
     80 H42         8.2066   11.8641   -5.3858 H         1 <0>         0.0803
     81 H43         9.6230   11.8528   -2.6647 H         1 <0>         0.0670
     82 H44        10.7387   13.1973   -3.0048 H         1 <0>         0.0699
     83 H45         9.0376   13.3009   -3.5182 H         1 <0>         0.0679
     84 H46        11.7037   10.5916   -5.4822 H         1 <0>         0.0678
     85 H47        12.2957   11.6152   -4.1517 H         1 <0>         0.0700
     86 H48        11.1799   10.2707   -3.8116 H         1 <0>         0.0686
     87 H49        12.1548   13.7991   -4.6342 H         1 <0>         0.4024
     88 H50        11.8817   14.5875   -6.0925 H         1 <0>         0.4074
     89 H51         6.5506    5.0529   -3.7099 H         1 <0>         0.3695
     90 H52         4.6766    4.6032   -4.4568 H         1 <0>         0.4329
     91 H53         3.1713    5.2460   -4.7517 H         1 <0>         0.4398
     92 N3          4.1290    5.4619   -4.4797 N.4       1 <0>        -0.6524
     93 H54         4.5376    6.1014   -5.1713 H         1 <0>         0.4383
@<TRIPOS>BOND
     1    1    2 1
     2    1   43 1
     3    1   44 1
     4    1   45 1
     5    2    3 1
     6    2    4 1
     7    2   46 1
     8    3   47 1
     9    3   48 1
    10    3   49 1
    11    4    5 1
    12    4    6 1
    13    4   21 1
    14    6    7 1
    15    6   50 1
    16    6   51 1
    17    7   12 ar
    18    7    8 ar
    19    8    9 ar
    20    8   52 1
    21    9   10 ar
    22    9   53 1
    23   10   11 ar
    24   10   19 1
    25   11   12 ar
    26   11   13 1
    27   12   54 1
    28   13   14 1
    29   14   15 1
    30   14   55 1
    31   14   56 1
    32   15   16 1
    33   15   57 1
    34   15   58 1
    35   16   17 1
    36   16   59 1
    37   16   60 1
    38   17   18 1
    39   18   61 1
    40   18   62 1
    41   18   63 1
    42   19   20 1
    43   20   64 1
    44   20   65 1
    45   20   66 1
    46   21   22 1
    47   21   67 1
    48   21   68 1
    49   22   23 1
    50   22   24 1
    51   22   92 1
    52   24   25 1
    53   24   26 1
    54   24   42 1
    55   26   27 1
    56   26   69 1
    57   26   70 1
    58   27   28 1
    59   27   29 1
    60   27   32 1
    61   29   30 1
    62   29   31 1
    63   29   71 1
    64   30   72 1
    65   30   73 1
    66   30   74 1
    67   31   75 1
    68   31   76 1
    69   31   77 1
    70   32   33 2
    71   32   34 am
    72   34   35 1
    73   34   78 1
    74   35   36 1
    75   35   79 1
    76   35   80 1
    77   36   37 1
    78   36   38 1
    79   36   39 1
    80   37   81 1
    81   37   82 1
    82   37   83 1
    83   38   84 1
    84   38   85 1
    85   38   86 1
    86   39   40 2
    87   39   41 am
    88   41   87 1
    89   41   88 1
    90   42   89 1
    91   90   92 1
    92   91   92 1
    93   92   93 1
