@<TRIPOS>MOLECULE
ZINC00007460
   40    43     0     0     0
SMALL
USER_CHARGES

@<TRIPOS>ATOM
      1 C1          0.0099    1.3100   -0.6665 C.ar      1 <0>        -0.0873
      2 C2          1.1932    2.0449   -0.6736 C.ar      1 <0>        -0.1031
      3 C3          2.3989    1.4389   -0.4755 C.ar      1 <0>        -0.0878
      4 C4          2.4464    0.0575   -0.2619 C.ar      1 <0>        -0.1050
      5 C5          1.2413   -0.6922   -0.2545 C.ar      1 <0>        -0.0366
      6 C6          0.0201   -0.0377   -0.4614 C.ar      1 <0>        -0.1000
      7 C7          1.3338   -2.0791   -0.0357 C.ar      1 <0>         0.0670
      8 N1          2.5164   -2.6188    0.1508 N.ar      1 <0>        -0.2122
      9 N2          3.6082   -1.9490    0.1455 N.ar      1 <0>        -0.3148
     10 C8          3.6557   -0.6424   -0.0488 C.ar      1 <0>         0.3624
     11 N3          4.8682    0.0284   -0.0441 N.pl3     1 <0>        -0.6425
     12 C9          6.0641   -0.6900    0.0467 C.ar      1 <0>         0.1605
     13 C10         6.1747   -1.9364   -0.5565 C.ar      1 <0>        -0.1016
     14 C11         7.3572   -2.6438   -0.4652 C.ar      1 <0>        -0.0857
     15 C12         8.4313   -2.1122    0.2268 C.ar      1 <0>        -0.0509
     16 C13         8.3240   -0.8708    0.8288 C.ar      1 <0>        -0.0880
     17 C14         7.1459   -0.1562    0.7354 C.ar      1 <0>        -0.1365
     18 Cl1         9.9160   -3.0048    0.3406 Cl        1 <0>        -0.0690
     19 C15         0.0926   -2.9335   -0.0150 C.3       1 <0>        -0.0232
     20 C16        -0.1981   -3.4309   -1.4076 C.ar      1 <0>        -0.0363
     21 C17        -0.9979   -2.6976   -2.2706 C.ar      1 <0>        -0.1703
     22 C18        -1.2425   -3.1855   -3.5404 C.ar      1 <0>         0.0995
     23 N4         -0.7257   -4.3333   -3.9331 N.ar      1 <0>        -0.4856
     24 C19         0.0392   -5.0571   -3.1393 C.ar      1 <0>         0.1005
     25 C20         0.3326   -4.6300   -1.8581 C.ar      1 <0>        -0.1573
     26 H1         -0.9311    1.8168   -0.8216 H         1 <0>         0.1364
     27 H2          1.1553    3.1115   -0.8389 H         1 <0>         0.1355
     28 H3          3.3089    2.0205   -0.4838 H         1 <0>         0.1315
     29 H4         -0.9047   -0.5955   -0.4580 H         1 <0>         0.1411
     30 H5          4.8872    0.9963   -0.1038 H         1 <0>         0.4199
     31 H6          5.3365   -2.3519   -1.0962 H         1 <0>         0.1422
     32 H7          7.4438   -3.6128   -0.9340 H         1 <0>         0.1376
     33 H8          9.1638   -0.4583    1.3683 H         1 <0>         0.1380
     34 H9          7.0641    0.8146    1.2016 H         1 <0>         0.1341
     35 H10         0.2476   -3.7836    0.6494 H         1 <0>         0.1044
     36 H11        -0.7500   -2.3417    0.3426 H         1 <0>         0.0975
     37 H12        -1.4246   -1.7571   -1.9546 H         1 <0>         0.1331
     38 H13        -1.8645   -2.6203   -4.2187 H         1 <0>         0.1558
     39 H14         0.4444   -5.9925   -3.4961 H         1 <0>         0.1573
     40 H15         0.9637   -5.2248   -1.2145 H         1 <0>         0.1397
@<TRIPOS>BOND
     1    1    6 ar
     2    1    2 ar
     3    1   26 1
     4    2    3 ar
     5    2   27 1
     6    3    4 ar
     7    3   28 1
     8    4   10 ar
     9    4    5 ar
    10    5    6 ar
    11    5    7 ar
    12    6   29 1
    13    7    8 ar
    14    7   19 1
    15    8    9 ar
    16    9   10 ar
    17   10   11 1
    18   11   12 1
    19   11   30 1
    20   12   17 ar
    21   12   13 ar
    22   13   14 ar
    23   13   31 1
    24   14   15 ar
    25   14   32 1
    26   15   16 ar
    27   15   18 1
    28   16   17 ar
    29   16   33 1
    30   17   34 1
    31   19   20 1
    32   19   35 1
    33   19   36 1
    34   20   25 ar
    35   20   21 ar
    36   21   22 ar
    37   21   37 1
    38   22   23 ar
    39   22   38 1
    40   23   24 ar
    41   24   25 ar
    42   24   39 1
    43   25   40 1
@<TRIPOS>MOLECULE
ZINC12568108
   29    31     0     0     0
SMALL
USER_CHARGES
(3E)-3-[(4-hydroxyphenyl)methylene]indolin-2-one
@<TRIPOS>ATOM
      1 C1          2.0786    5.2758    0.1250 C.ar      1 <0>        -0.1417
      2 C2          1.5681    6.5571    0.2510 C.ar      1 <0>        -0.0792
      3 C3          0.2058    6.7675    0.3197 C.ar      1 <0>        -0.1386
      4 C4         -0.6701    5.6882    0.2764 C.ar      1 <0>         0.1455
      5 C5         -0.1494    4.3934    0.1527 C.ar      1 <0>        -0.1093
      6 C6          1.2246    4.1925    0.0755 C.ar      1 <0>        -0.0685
      7 C7         -1.3117    3.4763    0.1302 C.2       1 <0>        -0.1578
      8 C8         -1.2945    2.1159    0.0197 C.2       1 <0>         0.0279
      9 C9         -0.0495    1.4245   -0.3273 C.ar      1 <0>        -0.0978
     10 C10         0.7712    1.9231   -1.3484 C.ar      1 <0>        -0.0683
     11 C11         1.9318    1.2688   -1.6723 C.ar      1 <0>        -0.1534
     12 C12         2.2950    0.1123   -0.9904 C.ar      1 <0>         0.1250
     13 C13         1.4850   -0.3869    0.0240 C.ar      1 <0>        -0.1498
     14 C14         0.3220    0.2588    0.3568 C.ar      1 <0>        -0.0717
     15 O1          3.4447   -0.5312   -1.3157 O.3       1 <0>        -0.4981
     16 C15        -2.4898    4.3502    0.2594 C.2       1 <0>         0.5608
     17 O2         -3.6515    3.9867    0.2877 O.2       1 <0>        -0.5008
     18 N1         -2.0569    5.6199    0.3401 N.am      1 <0>        -0.6545
     19 H1          3.1462    5.1242    0.0651 H         1 <0>         0.1303
     20 H2          2.2421    7.4001    0.2891 H         1 <0>         0.1324
     21 H3         -0.1801    7.7712    0.4198 H         1 <0>         0.1287
     22 H4          1.6218    3.1930   -0.0223 H         1 <0>         0.1373
     23 H5         -2.1983    1.5490    0.1879 H         1 <0>         0.1482
     24 H6          0.4898    2.8206   -1.8791 H         1 <0>         0.1338
     25 H7          2.5650    1.6520   -2.4589 H         1 <0>         0.1354
     26 H8          1.7723   -1.2851    0.5503 H         1 <0>         0.1348
     27 H9         -0.3062   -0.1298    1.1446 H         1 <0>         0.1348
     28 H10         3.3378   -1.2049   -2.0011 H         1 <0>         0.3956
     29 H11        -2.6384    6.3909    0.4313 H         1 <0>         0.4192
@<TRIPOS>BOND
     1    1    6 ar
     2    1    2 ar
     3    1   19 1
     4    2    3 ar
     5    2   20 1
     6    3    4 ar
     7    3   21 1
     8    4   18 1
     9    4    5 ar
    10    5    6 ar
    11    5    7 1
    12    6   22 1
    13    7    8 2
    14    7   16 1
    15    8    9 1
    16    8   23 1
    17    9   14 ar
    18    9   10 ar
    19   10   11 ar
    20   10   24 1
    21   11   12 ar
    22   11   25 1
    23   12   13 ar
    24   12   15 1
    25   13   14 ar
    26   13   26 1
    27   14   27 1
    28   15   28 1
    29   16   17 2
    30   16   18 am
    31   18   29 1
@<TRIPOS>MOLECULE
ZINC24044436
   76    80     0     0     0
SMALL
USER_CHARGES
1-[5-tert-butyl-2-(p-tolyl)pyrazol-3-yl]-3-[4-(2-morpholinoethoxy)-1-naphthyl]urea
@<TRIPOS>ATOM
      1 C1          3.3307    9.5387   -0.3298 C.3       1 <0>        -0.1193
      2 C2          2.0898    8.6848   -0.2813 C.ar      1 <0>        -0.0892
      3 C3          0.9612    9.0673   -0.9828 C.ar      1 <0>        -0.0934
      4 C4         -0.1775    8.2868   -0.9403 C.ar      1 <0>        -0.1062
      5 C5         -0.1884    7.1174   -0.1919 C.ar      1 <0>         0.1564
      6 C6          0.9444    6.7392    0.5163 C.ar      1 <0>        -0.1500
      7 C7          2.0821    7.5207    0.4649 C.ar      1 <0>        -0.0924
      8 N1         -1.3424    6.3233   -0.1469 N.pl3     1 <0>        -0.3448
      9 C8         -1.3788    4.9645   -0.0790 C.2       1 <0>         0.3309
     10 C9         -2.6878    4.5925   -0.0483 C.2       1 <0>        -0.2629
     11 C10        -3.4651    5.7529   -0.1047 C.2       1 <0>         0.1115
     12 N2         -2.6643    6.7861   -0.1672 N.2       1 <0>        -0.2779
     13 C11        -4.9712    5.8052   -0.0954 C.3       1 <0>         0.0134
     14 C12        -5.4824    5.5257    1.3193 C.3       1 <0>        -0.1388
     15 C13        -5.4360    7.1933   -0.5406 C.3       1 <0>        -0.1390
     16 C14        -5.5242    4.7499   -1.0553 C.3       1 <0>        -0.1399
     17 N3         -0.2771    4.1104   -0.0417 N.am      1 <0>        -0.6731
     18 C15        -0.4603    2.7771    0.0314 C.2       1 <0>         0.7165
     19 O1         -1.5862    2.3190    0.0649 O.2       1 <0>        -0.5445
     20 N4          0.6045    1.9516    0.0675 N.am      1 <0>        -0.6819
     21 C16         0.4162    0.5655    0.0407 C.ar      1 <0>         0.1254
     22 C17        -0.6813    0.0024    0.6542 C.ar      1 <0>        -0.0743
     23 C18        -0.8835   -1.3742    0.6299 C.ar      1 <0>        -0.2061
     24 C19         0.0048   -2.2051    0.0082 C.ar      1 <0>         0.1395
     25 C20         1.1426   -1.6672   -0.6254 C.ar      1 <0>        -0.0565
     26 C21         1.3517   -0.2661   -0.6096 C.ar      1 <0>        -0.0251
     27 C22         2.4862    0.2686   -1.2409 C.ar      1 <0>        -0.1232
     28 C23         3.3687   -0.5639   -1.8588 C.ar      1 <0>        -0.0971
     29 C24         3.1636   -1.9422   -1.8742 C.ar      1 <0>        -0.1313
     30 C25         2.0750   -2.4951   -1.2724 C.ar      1 <0>        -0.0739
     31 O2         -0.2080   -3.5475    0.0012 O.3       1 <0>        -0.2916
     32 C26        -1.3823   -4.0216    0.6634 C.3       1 <0>         0.0605
     33 C27        -1.4510   -5.5459    0.5508 C.3       1 <0>         0.0539
     34 N5         -0.3065   -6.1409    1.2538 N.3       1 <0>        -0.5287
     35 C28        -0.1978   -7.5776    0.9617 C.3       1 <0>         0.0167
     36 C29         1.0390   -8.1436    1.6645 C.3       1 <0>         0.0615
     37 O3          0.9456   -7.8818    3.0674 O.3       1 <0>        -0.3849
     38 C30         0.8389   -6.4921    3.3879 C.3       1 <0>         0.0625
     39 C31        -0.3999   -5.9094    2.7026 C.3       1 <0>         0.0120
     40 H1          3.1476   10.4156   -0.9682 H         1 <0>         0.0687
     41 H2          4.1639    8.9515   -0.7434 H         1 <0>         0.0732
     42 H3          3.5863    9.8722    0.6868 H         1 <0>         0.0734
     43 H4          0.9703    9.9770   -1.5648 H         1 <0>         0.1335
     44 H5         -1.0587    8.5861   -1.4884 H         1 <0>         0.1355
     45 H6          0.9374    5.8324    1.1029 H         1 <0>         0.1262
     46 H7          2.9651    7.2245    1.0118 H         1 <0>         0.1343
     47 H8         -3.0598    3.5802    0.0092 H         1 <0>         0.1784
     48 H9         -6.5817    5.5639    1.3261 H         1 <0>         0.0656
     49 H10        -5.0849    6.2845    2.0094 H         1 <0>         0.0565
     50 H11        -5.1481    4.5278    1.6395 H         1 <0>         0.0614
     51 H12        -6.5353    7.2315   -0.5338 H         1 <0>         0.0604
     52 H13        -5.0684    7.3943   -1.5577 H         1 <0>         0.0568
     53 H14        -5.0385    7.9519    0.1496 H         1 <0>         0.0614
     54 H15        -6.6235    4.7882   -1.0484 H         1 <0>         0.0647
     55 H16        -5.1900    3.7520   -0.7351 H         1 <0>         0.0637
     56 H17        -5.1566    4.9509   -2.0724 H         1 <0>         0.0570
     57 H18         0.7414    4.5248   -0.0719 H         1 <0>         0.4294
     58 H19         1.6215    2.3677    0.1180 H         1 <0>         0.4280
     59 H20        -1.3959    0.6376    1.1566 H         1 <0>         0.1450
     60 H21        -1.7537   -1.7925    1.1139 H         1 <0>         0.1296
     61 H22         2.6580    1.3348   -1.2361 H         1 <0>         0.1222
     62 H23         4.2405   -0.1501   -2.3437 H         1 <0>         0.1243
     63 H24         3.8790   -2.5810   -2.3706 H         1 <0>         0.1250
     64 H25         1.9286   -3.5650   -1.2926 H         1 <0>         0.1353
     65 H26        -1.3465   -3.7335    1.7244 H         1 <0>         0.0659
     66 H27        -2.2726   -3.5787    0.1931 H         1 <0>         0.0716
     67 H28        -2.3868   -5.9052    1.0039 H         1 <0>         0.0605
     68 H29        -1.4216   -5.8370   -0.5096 H         1 <0>         0.0912
     69 H30        -1.0977   -8.0949    1.3258 H         1 <0>         0.0437
     70 H31        -0.1044   -7.7249   -0.1244 H         1 <0>         0.0891
     71 H32         1.0925   -9.2291    1.4949 H         1 <0>         0.1001
     72 H33         1.9424   -7.6643    1.2595 H         1 <0>         0.0618
     73 H34         0.7475   -6.3731    4.4776 H         1 <0>         0.0994
     74 H35         1.7375   -5.9645    3.0355 H         1 <0>         0.0616
     75 H36        -0.4553   -4.8284    2.8983 H         1 <0>         0.0869
     76 H37        -1.3031   -6.3997    3.0948 H         1 <0>         0.0443
@<TRIPOS>BOND
     1    1    2 1
     2    1   40 1
     3    1   41 1
     4    1   42 1
     5    2    7 ar
     6    2    3 ar
     7    3    4 ar
     8    3   43 1
     9    4    5 ar
    10    4   44 1
    11    5    6 ar
    12    5    8 1
    13    6    7 ar
    14    6   45 1
    15    7   46 1
    16    8   12 1
    17    8    9 1
    18    9   10 2
    19    9   17 1
    20   10   11 1
    21   10   47 1
    22   11   12 2
    23   11   13 1
    24   13   14 1
    25   13   15 1
    26   13   16 1
    27   14   48 1
    28   14   49 1
    29   14   50 1
    30   15   51 1
    31   15   52 1
    32   15   53 1
    33   16   54 1
    34   16   55 1
    35   16   56 1
    36   17   18 am
    37   17   57 1
    38   18   19 2
    39   18   20 am
    40   20   21 1
    41   20   58 1
    42   21   26 ar
    43   21   22 ar
    44   22   23 ar
    45   22   59 1
    46   23   24 ar
    47   23   60 1
    48   24   25 ar
    49   24   31 1
    50   25   30 ar
    51   25   26 ar
    52   26   27 ar
    53   27   28 ar
    54   27   61 1
    55   28   29 ar
    56   28   62 1
    57   29   30 ar
    58   29   63 1
    59   30   64 1
    60   31   32 1
    61   32   33 1
    62   32   65 1
    63   32   66 1
    64   33   34 1
    65   33   67 1
    66   33   68 1
    67   34   39 1
    68   34   35 1
    69   35   36 1
    70   35   69 1
    71   35   70 1
    72   36   37 1
    73   36   71 1
    74   36   72 1
    75   37   38 1
    76   38   39 1
    77   38   73 1
    78   38   74 1
    79   39   75 1
    80   39   76 1
@<TRIPOS>MOLECULE
ZINC20148984
   41    45     0     0     0
SMALL
USER_CHARGES
1-cyclopentyl-3-(1H-pyrrolo[3,2-e]pyridin-5-yl)pyrazolo[4,5-e]pyrimidin-4-amine
@<TRIPOS>ATOM
      1 C1          4.4845    4.9055    2.0125 C.2       1 <0>        -0.1900
      2 C2          5.5992    4.3307    1.5348 C.2       1 <0>         0.0669
      3 N1          5.2848    3.4893    0.5015 N.pl3     1 <0>        -0.5784
      4 H1          5.9256    2.9627   -0.0014 H         1 <0>         0.4233
      5 C3          3.9281    3.5001    0.2812 C.ar      1 <0>         0.2921
      6 C4          3.3669    4.3889    1.2195 C.ar      1 <0>        -0.1505
      7 C5          1.9890    4.6049    1.2249 C.ar      1 <0>         0.0123
      8 C6          1.2154    3.9130    0.2940 C.ar      1 <0>        -0.1086
      9 C7          1.8449    3.0477   -0.6050 C.ar      1 <0>         0.1517
     10 N2          3.1471    2.8701   -0.5872 N.ar      1 <0>        -0.4865
     11 C8         -0.2553    4.0974    0.2542 C.2       1 <0>         0.1769
     12 C9         -1.2579    3.0400    0.1283 C.ar      1 <0>        -0.3246
     13 C10        -1.2161    1.6416    0.0009 C.ar      1 <0>         0.5185
     14 N3         -2.3661    0.9828   -0.1017 N.ar      1 <0>        -0.6042
     15 C11        -3.5224    1.6223   -0.0898 C.ar      1 <0>         0.3863
     16 N4         -3.6100    2.9293    0.0228 N.ar      1 <0>        -0.5738
     17 C12        -2.5123    3.6779    0.1313 C.ar      1 <0>         0.3755
     18 N5         -2.2765    5.0144    0.2581 N.pl3     1 <0>        -0.3684
     19 N6         -0.8976    5.2388    0.3304 N.2       1 <0>        -0.2292
     20 C13        -3.3071    6.0542    0.3110 C.3       1 <0>         0.1632
     21 C14        -3.0862    7.0753   -0.8240 C.3       1 <0>        -0.1330
     22 C15        -3.4640    8.4369   -0.1879 C.3       1 <0>        -0.1220
     23 C16        -2.9184    8.3038    1.2556 C.3       1 <0>        -0.1210
     24 C17        -3.2009    6.8348    1.6328 C.3       1 <0>        -0.1322
     25 N7         -0.0104    0.9674   -0.0117 N.pl3     1 <0>        -0.8291
     26 H2          4.4234    5.6137    2.8256 H         1 <0>         0.1556
     27 H3          6.5967    4.5059    1.9100 H         1 <0>         0.1829
     28 H4          1.5348    5.2845    1.9308 H         1 <0>         0.1424
     29 H5          1.2485    2.5132   -1.3297 H         1 <0>         0.1671
     30 H6         -4.4328    1.0478   -0.1756 H         1 <0>         0.2050
     31 H7         -4.2959    5.6044    0.2215 H         1 <0>         0.1144
     32 H8         -2.0422    7.0775   -1.1374 H         1 <0>         0.0814
     33 H9         -3.7386    6.8539   -1.6687 H         1 <0>         0.0742
     34 H10        -4.5455    8.5726   -0.1810 H         1 <0>         0.0720
     35 H11        -2.9740    9.2575   -0.7119 H         1 <0>         0.0733
     36 H12        -3.4484    8.9788    1.9276 H         1 <0>         0.0704
     37 H13        -1.8473    8.5043    1.2786 H         1 <0>         0.0705
     38 H14        -4.1384    6.7646    2.1843 H         1 <0>         0.0772
     39 H15        -2.3825    6.4400    2.2349 H         1 <0>         0.0748
     40 H16         0.0305    0.0526   -0.3317 H         1 <0>         0.4120
     41 H17         0.7961    1.4102    0.2956 H         1 <0>         0.4116
@<TRIPOS>BOND
     1    1    6 1
     2    1    2 2
     3    1   26 1
     4    2    3 1
     5    2   27 1
     6    3    4 1
     7    3    5 1
     8    5   10 ar
     9    5    6 ar
    10    6    7 ar
    11    7    8 ar
    12    7   28 1
    13    8    9 ar
    14    8   11 1
    15    9   10 ar
    16    9   29 1
    17   11   19 2
    18   11   12 1
    19   12   17 ar
    20   12   13 ar
    21   13   14 ar
    22   13   25 1
    23   14   15 ar
    24   15   16 ar
    25   15   30 1
    26   16   17 ar
    27   17   18 1
    28   18   19 1
    29   18   20 1
    30   20   24 1
    31   20   21 1
    32   20   31 1
    33   21   22 1
    34   21   32 1
    35   21   33 1
    36   22   23 1
    37   22   34 1
    38   22   35 1
    39   23   24 1
    40   23   36 1
    41   23   37 1
    42   24   38 1
    43   24   39 1
    44   25   40 1
    45   25   41 1
@<TRIPOS>MOLECULE
ZINC02273180
   43    46     0     0     0
SMALL
USER_CHARGES
2-benzylsulfanyl-4-(2-thienyl)-5,6,7,8-tetrahydroquinoline-3-carbonitrile
@<TRIPOS>ATOM
      1 C1         -4.0053   -1.4830    0.0323 C.ar      1 <0>        -0.1113
      2 C2         -3.3683   -1.2374   -1.1696 C.ar      1 <0>        -0.1192
      3 C3         -2.0716   -0.7585   -1.1795 C.ar      1 <0>        -0.1003
      4 C4         -1.4117   -0.5257    0.0127 C.ar      1 <0>        -0.0864
      5 C5         -2.0468   -0.7767    1.2146 C.ar      1 <0>        -0.1004
      6 C6         -3.3455   -1.2502    1.2245 C.ar      1 <0>        -0.1193
      7 C7          0.0021   -0.0041    0.0020 C.3       1 <0>        -0.0581
      8 S1         -0.0225    1.8057    0.0120 S.3       1 <0>        -0.0350
      9 C8          1.7084    2.1353   -0.0028 C.ar      1 <0>         0.1668
     10 C9          2.1680    3.4638   -0.0000 C.ar      1 <0>        -0.0497
     11 C10         3.5611    3.6873   -0.0182 C.ar      1 <0>         0.1009
     12 C11         4.4208    2.5750   -0.0323 C.ar      1 <0>        -0.1146
     13 C12         3.8863    1.3106   -0.0279 C.ar      1 <0>         0.1854
     14 N1          2.5681    1.1336   -0.0109 N.ar      1 <0>        -0.4882
     15 C13         4.7478    0.0725   -0.0323 C.3       1 <0>        -0.0719
     16 C14         6.1677    0.4066   -0.4833 C.3       1 <0>        -0.1220
     17 C15         6.6768    1.5854    0.3548 C.3       1 <0>        -0.1219
     18 C16         5.9031    2.8363   -0.0572 C.3       1 <0>        -0.0776
     19 C17         4.1033    5.0574   -0.0219 C.2       1 <0>        -0.1480
     20 C18         4.0111    6.0264    0.9452 C.2       1 <0>        -0.1162
     21 C19         4.6080    7.2445    0.7191 C.2       1 <0>        -0.1601
     22 C20         5.2589    7.4557   -0.4557 C.2       1 <0>        -0.1615
     23 S2          5.0446    5.8916   -1.2891 S.3       1 <0>         0.0844
     24 C21         1.2474    4.5605    0.0211 C.1       1 <0>         0.2514
     25 N2          0.5170    5.4305    0.0379 N.1       1 <0>        -0.3834
     26 H1         -5.0187   -1.8564    0.0400 H         1 <0>         0.1246
     27 H2         -3.8838   -1.4192   -2.1011 H         1 <0>         0.1258
     28 H3         -1.5739   -0.5666   -2.1185 H         1 <0>         0.1254
     29 H4         -1.5297   -0.5990    2.1460 H         1 <0>         0.1253
     30 H5         -3.8433   -1.4417    2.1636 H         1 <0>         0.1258
     31 H6          0.5123   -0.3556   -0.8948 H         1 <0>         0.1063
     32 H7          0.5293   -0.3651    0.8851 H         1 <0>         0.1065
     33 H8          4.3179   -0.6619   -0.7134 H         1 <0>         0.0925
     34 H9          4.7795   -0.3460    0.9737 H         1 <0>         0.0930
     35 H10         6.1627    0.6813   -1.5381 H         1 <0>         0.0706
     36 H11         6.8144   -0.4576   -0.3322 H         1 <0>         0.0795
     37 H12         7.7408    1.7344    0.1710 H         1 <0>         0.0766
     38 H13         6.5110    1.3827    1.4128 H         1 <0>         0.0700
     39 H14         6.1999    3.1267   -1.0650 H         1 <0>         0.0848
     40 H15         6.1368    3.6469    0.6331 H         1 <0>         0.0822
     41 H16         3.4831    5.8349    1.8677 H         1 <0>         0.1352
     42 H17         4.5564    8.0253    1.4635 H         1 <0>         0.1405
     43 H18         5.7731    8.3420   -0.7972 H         1 <0>         0.1919
@<TRIPOS>BOND
     1    1    6 ar
     2    1    2 ar
     3    1   26 1
     4    2    3 ar
     5    2   27 1
     6    3    4 ar
     7    3   28 1
     8    4    5 ar
     9    4    7 1
    10    5    6 ar
    11    5   29 1
    12    6   30 1
    13    7    8 1
    14    7   31 1
    15    7   32 1
    16    8    9 1
    17    9   14 ar
    18    9   10 ar
    19   10   11 ar
    20   10   24 1
    21   11   12 ar
    22   11   19 1
    23   12   18 1
    24   12   13 ar
    25   13   14 ar
    26   13   15 1
    27   15   16 1
    28   15   33 1
    29   15   34 1
    30   16   17 1
    31   16   35 1
    32   16   36 1
    33   17   18 1
    34   17   37 1
    35   17   38 1
    36   18   39 1
    37   18   40 1
    38   19   23 1
    39   19   20 2
    40   20   21 1
    41   20   41 1
    42   21   22 2
    43   21   42 1
    44   22   23 1
    45   22   43 1
    46   24   25 3
@<TRIPOS>MOLECULE
ZINC02259037
   43    46     0     0     0
SMALL
USER_CHARGES
2-[(4-fluorophenyl)methylsulfanyl]-4-(2-thienyl)-5,6,7,8-tetrahydroquinoline-3-carbonitrile
@<TRIPOS>ATOM
      1 C1          1.9879   -8.9735   -5.2771 C.2       1 <0>        -0.1604
      2 C2          2.2110   -7.9924   -4.3395 C.2       1 <0>        -0.1157
      3 C3          1.2558   -7.7677   -3.3804 C.2       1 <0>        -0.1490
      4 S1          0.0042   -8.9621   -3.8216 S.3       1 <0>         0.0848
      5 C4          0.8275   -9.6806   -5.2333 C.2       1 <0>        -0.1610
      6 C5          1.2593   -6.7907   -2.2774 C.ar      1 <0>         0.1013
      7 C6          1.2770   -7.2195   -0.9386 C.ar      1 <0>        -0.1139
      8 C7          1.2803   -6.2858    0.0677 C.ar      1 <0>         0.1855
      9 N1          1.2666   -4.9862   -0.2155 N.ar      1 <0>        -0.4881
     10 C8          1.2440   -4.5198   -1.4503 C.ar      1 <0>         0.1664
     11 C9          1.2453   -5.4048   -2.5424 C.ar      1 <0>        -0.0489
     12 C10         1.2333   -4.9133   -3.8874 C.1       1 <0>         0.2507
     13 N2          1.2237   -4.5234   -4.9543 N.1       1 <0>        -0.3826
     14 S2          1.2193   -2.7804   -1.7306 S.3       1 <0>        -0.0344
     15 C11         1.2273   -2.1863   -0.0209 C.3       1 <0>        -0.0584
     16 C12         1.2082   -0.6795   -0.0127 C.ar      1 <0>        -0.0972
     17 C13         0.0021   -0.0041    0.0020 C.ar      1 <0>        -0.0701
     18 C14        -0.0167    1.3778    0.0096 C.ar      1 <0>        -0.1528
     19 C15         1.1732    2.0858    0.0021 C.ar      1 <0>         0.1077
     20 C16         2.3806    1.4083   -0.0131 C.ar      1 <0>        -0.1528
     21 C17         2.3969    0.0264   -0.0202 C.ar      1 <0>        -0.0701
     22 F1          1.1561    3.4366    0.0090 F         1 <0>        -0.1365
     23 C18         1.3090   -6.6731    1.5251 C.3       1 <0>        -0.0719
     24 C19         0.8899   -8.1305    1.7028 C.3       1 <0>        -0.1222
     25 C20         1.7289   -8.9945    0.7537 C.3       1 <0>        -0.1220
     26 C21         1.2861   -8.7023   -0.6786 C.3       1 <0>        -0.0779
     27 H1          2.7233   -9.1764   -6.0415 H         1 <0>         0.1406
     28 H2          3.1220   -7.4125   -4.3555 H         1 <0>         0.1353
     29 H3          0.4904  -10.4729   -5.8852 H         1 <0>         0.1920
     30 H4          2.1265   -2.5411    0.4828 H         1 <0>         0.1091
     31 H5          0.3467   -2.5637    0.4990 H         1 <0>         0.1090
     32 H6         -0.9259   -0.5565    0.0079 H         1 <0>         0.1370
     33 H7         -0.9591    1.9052    0.0169 H         1 <0>         0.1398
     34 H8          3.3093    1.9595   -0.0194 H         1 <0>         0.1397
     35 H9          3.3385   -0.5023   -0.0313 H         1 <0>         0.1369
     36 H10         0.6246   -6.0322    2.0808 H         1 <0>         0.0927
     37 H11         2.3194   -6.5402    1.9118 H         1 <0>         0.0932
     38 H12        -0.1673   -8.2405    1.4613 H         1 <0>         0.0707
     39 H13         1.0652   -8.4405    2.7330 H         1 <0>         0.0796
     40 H14         1.5700  -10.0489    0.9795 H         1 <0>         0.0767
     41 H15         2.7845   -8.7485    0.8693 H         1 <0>         0.0701
     42 H16         0.2831   -9.1002   -0.8329 H         1 <0>         0.0851
     43 H17         1.9741   -9.1846   -1.3729 H         1 <0>         0.0823
@<TRIPOS>BOND
     1    1    5 2
     2    1    2 1
     3    1   27 1
     4    2    3 2
     5    2   28 1
     6    3    4 1
     7    3    6 1
     8    4    5 1
     9    5   29 1
    10    6   11 ar
    11    6    7 ar
    12    7   26 1
    13    7    8 ar
    14    8    9 ar
    15    8   23 1
    16    9   10 ar
    17   10   11 ar
    18   10   14 1
    19   11   12 1
    20   12   13 3
    21   14   15 1
    22   15   16 1
    23   15   30 1
    24   15   31 1
    25   16   21 ar
    26   16   17 ar
    27   17   18 ar
    28   17   32 1
    29   18   19 ar
    30   18   33 1
    31   19   20 ar
    32   19   22 1
    33   20   21 ar
    34   20   34 1
    35   21   35 1
    36   23   24 1
    37   23   36 1
    38   23   37 1
    39   24   25 1
    40   24   38 1
    41   24   39 1
    42   25   26 1
    43   25   40 1
    44   25   41 1
    45   26   42 1
    46   26   43 1
@<TRIPOS>MOLECULE
ZINC01493878
   48    50     0     0     0
SMALL
USER_CHARGES

@<TRIPOS>ATOM
      1 C1         -1.0955   -5.0083   -6.9234 C.3       1 <0>         0.0847
      2 N1         -1.5520   -4.3038   -5.7228 N.am      1 <0>        -0.7137
      3 C2         -1.8827   -5.0004   -4.6175 C.2       1 <0>         0.5696
      4 O1         -1.8023   -6.2129   -4.6168 O.2       1 <0>        -0.5284
      5 C3         -2.3445   -4.2878   -3.4031 C.ar      1 <0>         0.1129
      6 C4         -2.6788   -5.0128   -2.2640 C.ar      1 <0>        -0.1883
      7 C5         -3.1110   -4.3279   -1.1310 C.ar      1 <0>         0.1595
      8 C6         -3.1903   -2.9389   -1.1877 C.ar      1 <0>        -0.1766
      9 C7         -2.8404   -2.2885   -2.3571 C.ar      1 <0>         0.1349
     10 N2         -2.4302   -2.9626   -3.4105 N.ar      1 <0>        -0.4815
     11 O2         -3.4471   -4.9979    0.0005 O.3       1 <0>        -0.2437
     12 C8         -3.4462   -6.3570   -0.0383 C.ar      1 <0>         0.0568
     13 C9         -2.2447   -7.0505   -0.0178 C.ar      1 <0>        -0.1074
     14 C10        -2.2431   -8.4307   -0.0577 C.ar      1 <0>        -0.1009
     15 C11        -3.4442   -9.1246   -0.1179 C.ar      1 <0>         0.1671
     16 C12        -4.6464   -8.4301   -0.1379 C.ar      1 <0>        -0.1272
     17 C13        -4.6469   -7.0500   -0.0928 C.ar      1 <0>        -0.0940
     18 N3         -3.4432  -10.5252   -0.1588 N.am      1 <0>        -0.6776
     19 C14        -2.5108  -11.2187    0.5239 C.2       1 <0>         0.7077
     20 O3         -1.6217  -10.6297    1.1080 O.2       1 <0>        -0.5493
     21 N4         -2.5639  -12.5649    0.5593 N.am      1 <0>        -0.6795
     22 C15        -1.6655  -13.2800    1.3600 C.ar      1 <0>         0.1700
     23 C16        -1.2529  -12.7583    2.5792 C.ar      1 <0>        -0.0742
     24 C17        -0.3670  -13.4659    3.3674 C.ar      1 <0>        -0.0871
     25 C18         0.1097  -14.6941    2.9434 C.ar      1 <0>        -0.0077
     26 C19        -0.2993  -15.2159    1.7290 C.ar      1 <0>        -0.1564
     27 C20        -1.1898  -14.5147    0.9394 C.ar      1 <0>        -0.0879
     28 C21         0.2222  -16.5533    1.2702 C.3       1 <0>         0.5112
     29 F1         -0.3299  -16.8663    0.0234 F         1 <0>        -0.1743
     30 F2          1.6160  -16.4983    1.1626 F         1 <0>        -0.1671
     31 F3         -0.1354  -17.5367    2.1987 F         1 <0>        -0.1677
     32 Cl1         1.2234  -15.5812    3.9366 Cl        1 <0>        -0.0394
     33 H1         -0.8760   -4.2843   -7.7081 H         1 <0>         0.0803
     34 H2         -0.1948   -5.5764   -6.6909 H         1 <0>         0.0631
     35 H3         -1.8761   -5.6883   -7.2645 H         1 <0>         0.0629
     36 H4         -1.6162   -3.3359   -5.7233 H         1 <0>         0.4141
     37 H5         -2.6047   -6.0902   -2.2584 H         1 <0>         0.1546
     38 H6         -3.5217   -2.3755   -0.3280 H         1 <0>         0.1523
     39 H7         -2.9005   -1.2112   -2.4052 H         1 <0>         0.1747
     40 H8         -1.3104   -6.5106    0.0290 H         1 <0>         0.1364
     41 H9         -1.3078   -8.9704   -0.0424 H         1 <0>         0.1514
     42 H10        -5.5809   -8.9693   -0.1851 H         1 <0>         0.1386
     43 H11        -5.5820   -6.5098   -0.1039 H         1 <0>         0.1400
     44 H12        -4.1137  -10.9957   -0.6785 H         1 <0>         0.4131
     45 H13        -3.2246  -13.0383    0.0299 H         1 <0>         0.4146
     46 H14        -1.6244  -11.7997    2.9103 H         1 <0>         0.1546
     47 H15        -0.0456  -13.0604    4.3154 H         1 <0>         0.1524
     48 H16        -1.5123  -14.9245   -0.0064 H         1 <0>         0.1525
@<TRIPOS>BOND
     1    1    2 1
     2    1   33 1
     3    1   34 1
     4    1   35 1
     5    2    3 am
     6    2   36 1
     7    3    4 2
     8    3    5 1
     9    5   10 ar
    10    5    6 ar
    11    6    7 ar
    12    6   37 1
    13    7    8 ar
    14    7   11 1
    15    8    9 ar
    16    8   38 1
    17    9   10 ar
    18    9   39 1
    19   11   12 1
    20   12   17 ar
    21   12   13 ar
    22   13   14 ar
    23   13   40 1
    24   14   15 ar
    25   14   41 1
    26   15   16 ar
    27   15   18 1
    28   16   17 ar
    29   16   42 1
    30   17   43 1
    31   18   19 am
    32   18   44 1
    33   19   20 2
    34   19   21 am
    35   21   22 1
    36   21   45 1
    37   22   27 ar
    38   22   23 ar
    39   23   24 ar
    40   23   46 1
    41   24   25 ar
    42   24   47 1
    43   25   26 ar
    44   25   32 1
    45   26   27 ar
    46   26   28 1
    47   27   48 1
    48   28   29 1
    49   28   30 1
    50   28   31 1
@<TRIPOS>MOLECULE
ZINC21982951
   60    63     0     0     0
SMALL
USER_CHARGES

@<TRIPOS>ATOM
      1 C1         -2.0700    1.6928    0.2333 C.3       1 <0>        -0.1170
      2 C2         -1.6482    0.2604    0.0301 C.ar      1 <0>        -0.0813
      3 C3         -1.8479   -0.3525   -1.1919 C.ar      1 <0>        -0.1034
      4 C4         -1.4615   -1.6665   -1.3798 C.ar      1 <0>        -0.0990
      5 C5         -0.8738   -2.3725   -0.3459 C.ar      1 <0>        -0.1046
      6 C6         -0.6714   -1.7660    0.8791 C.ar      1 <0>        -0.0220
      7 C7         -1.0534   -0.4428    1.0688 C.ar      1 <0>         0.1347
      8 N1         -0.8441    0.1769    2.3055 N.am      1 <0>        -0.6659
      9 C8         -1.2819   -0.4110    3.4365 C.2       1 <0>         0.6018
     10 O1         -1.7689   -1.5261    3.3939 O.2       1 <0>        -0.4722
     11 C9         -1.1720    0.2905    4.7149 C.2       1 <0>        -0.2635
     12 C10        -1.5472   -0.1201    5.9866 C.2       1 <0>         0.1512
     13 N2         -1.3262    0.7270    6.9599 N.2       1 <0>        -0.5510
     14 C11        -0.7756    1.9070    6.7361 C.2       1 <0>         0.2513
     15 S1         -0.5107    1.9100    5.0742 S.3       1 <0>         0.2445
     16 N3         -0.4817    2.8997    7.6498 N.pl3     1 <0>        -0.5870
     17 C12        -0.6908    2.6801    9.0050 C.ar      1 <0>         0.4543
     18 C13        -1.0534    1.4192    9.4679 C.ar      1 <0>        -0.2926
     19 C14        -1.2512    1.2508   10.8352 C.ar      1 <0>         0.4935
     20 N4         -1.0875    2.2952   11.6453 N.ar      1 <0>        -0.5328
     21 C15        -0.7435    3.4737   11.1677 C.ar      1 <0>         0.4541
     22 N5         -0.5417    3.6719    9.8809 N.ar      1 <0>        -0.5672
     23 C16        -0.5694    4.6273   12.1217 C.3       1 <0>        -0.1251
     24 N6         -1.6138    0.0143   11.3464 N.pl3     1 <0>        -0.5370
     25 C17        -2.0559   -0.1253   12.7422 C.3       1 <0>         0.1090
     26 C18        -3.3866   -0.8852   12.7576 C.3       1 <0>         0.0383
     27 N7         -3.2335   -2.1493   12.0251 N.3       1 <0>        -0.5289
     28 C19        -2.9165   -1.9105   10.6107 C.3       1 <0>         0.0343
     29 C20        -1.5725   -1.1917   10.5056 C.3       1 <0>         0.1057
     30 C21        -4.4334   -2.9856   12.1619 C.3       1 <0>         0.0545
     31 C22        -4.1483   -4.3816   11.6043 C.3       1 <0>         0.0776
     32 O2         -3.1500   -5.0191   12.4038 O.3       1 <0>        -0.5606
     33 Cl1         0.0658   -2.6526    2.1768 Cl        1 <0>        -0.0453
     34 H1         -1.2464    2.3553   -0.0328 H         1 <0>         0.0773
     35 H2         -2.9308    1.9112   -0.3987 H         1 <0>         0.0785
     36 H3         -2.3379    1.8478    1.2784 H         1 <0>         0.0640
     37 H4         -2.3069    0.1956   -2.0014 H         1 <0>         0.1372
     38 H5         -1.6193   -2.1430   -2.3361 H         1 <0>         0.1391
     39 H6         -0.5731   -3.3989   -0.4959 H         1 <0>         0.1403
     40 H7         -0.3838    1.0296    2.3489 H         1 <0>         0.4083
     41 H8         -1.9972   -1.0858    6.1634 H         1 <0>         0.2027
     42 H9         -0.1293    3.7505    7.3451 H         1 <0>         0.4460
     43 H10        -1.1784    0.5927    8.7841 H         1 <0>         0.2218
     44 H11         0.4644    4.6619   12.4652 H         1 <0>         0.1245
     45 H12        -0.8146    5.5596   11.6130 H         1 <0>         0.1071
     46 H13        -1.2322    4.4948   12.9768 H         1 <0>         0.1273
     47 H14        -1.3096   -0.6823   13.3087 H         1 <0>         0.0989
     48 H15        -2.1929    0.8619   13.1834 H         1 <0>         0.1094
     49 H16        -3.6740   -1.0944   13.7880 H         1 <0>         0.1036
     50 H17        -4.1569   -0.2794   12.2806 H         1 <0>         0.0428
     51 H18        -2.8631   -2.8634   10.0841 H         1 <0>         0.1043
     52 H19        -3.6935   -1.2904   10.1636 H         1 <0>         0.0450
     53 H20        -1.3900   -0.9091    9.4688 H         1 <0>         0.1029
     54 H21        -0.7788   -1.8532   10.8529 H         1 <0>         0.1042
     55 H22        -4.7041   -3.0633   13.2149 H         1 <0>         0.0912
     56 H23        -5.2561   -2.5340   11.6075 H         1 <0>         0.0533
     57 H24        -5.0627   -4.9745   11.6240 H         1 <0>         0.0547
     58 H25        -3.7921   -4.2970   10.5776 H         1 <0>         0.0454
     59 H26        -2.9188   -5.9101   12.1076 H         1 <0>         0.3805
     60 H27        -0.2852    4.5531    9.5669 H         1 <0>         0.4414
@<TRIPOS>BOND
     1    1    2 1
     2    1   34 1
     3    1   35 1
     4    1   36 1
     5    2    7 ar
     6    2    3 ar
     7    3    4 ar
     8    3   37 1
     9    4    5 ar
    10    4   38 1
    11    5    6 ar
    12    5   39 1
    13    6    7 ar
    14    6   33 1
    15    7    8 1
    16    8    9 am
    17    8   40 1
    18    9   10 2
    19    9   11 1
    20   11   15 1
    21   11   12 2
    22   12   13 1
    23   12   41 1
    24   13   14 2
    25   14   15 1
    26   14   16 1
    27   16   17 1
    28   16   42 1
    29   17   22 ar
    30   17   18 ar
    31   18   19 ar
    32   18   43 1
    33   19   20 ar
    34   19   24 1
    35   20   21 ar
    36   21   22 ar
    37   21   23 1
    38   22   60 1
    39   23   44 1
    40   23   45 1
    41   23   46 1
    42   24   29 1
    43   24   25 1
    44   25   26 1
    45   25   47 1
    46   25   48 1
    47   26   27 1
    48   26   49 1
    49   26   50 1
    50   27   28 1
    51   27   30 1
    52   28   29 1
    53   28   51 1
    54   28   52 1
    55   29   53 1
    56   29   54 1
    57   30   31 1
    58   30   55 1
    59   30   56 1
    60   31   32 1
    61   31   57 1
    62   31   58 1
    63   32   59 1
@<TRIPOS>MOLECULE
ZINC21982951
   60    63     0     0     0
SMALL
USER_CHARGES

@<TRIPOS>ATOM
      1 C1          3.2739    6.6585    1.8418 C.3       1 <0>        -0.1168
      2 C2          2.5810    7.9910    1.9663 C.ar      1 <0>        -0.0823
      3 C3          2.8983    9.0189    1.0995 C.ar      1 <0>        -0.1038
      4 C4          2.2635   10.2419    1.2126 C.ar      1 <0>        -0.1008
      5 C5          1.3088   10.4411    2.1933 C.ar      1 <0>        -0.1049
      6 C6          0.9869    9.4175    3.0639 C.ar      1 <0>        -0.0226
      7 C7          1.6192    8.1849    2.9486 C.ar      1 <0>         0.1373
      8 N1          1.2913    7.1440    3.8238 N.am      1 <0>        -0.6678
      9 C8          1.3128    7.3511    5.1554 C.2       1 <0>         0.6036
     10 O1          1.5184    8.4680    5.5945 O.2       1 <0>        -0.4759
     11 C9          1.0891    6.2346    6.0728 C.2       1 <0>        -0.2694
     12 C10         1.0619    6.2190    7.4604 C.2       1 <0>         0.1522
     13 N2          0.8357    5.0596    8.0247 N.2       1 <0>        -0.5060
     14 C11         0.6446    3.9678    7.3056 C.2       1 <0>         0.2464
     15 S1          0.7674    4.5141    5.7185 S.3       1 <0>         0.2029
     16 N3          0.3973    2.6842    7.7505 N.pl3     1 <0>        -0.5650
     17 C12         0.2197    2.4414    9.1063 C.ar      1 <0>         0.4999
     18 C13        -0.1342    1.1736    9.5555 C.ar      1 <0>        -0.3181
     19 C14        -0.3003    0.9817   10.9244 C.ar      1 <0>         0.4940
     20 N4         -0.1157    2.0114   11.7481 N.ar      1 <0>        -0.5712
     21 C15         0.2193    3.1978   11.2829 C.ar      1 <0>         0.4509
     22 N5          0.3911    3.4178    9.9956 N.ar      1 <0>        -0.4879
     23 C16         0.4179    4.3344   12.2523 C.3       1 <0>        -0.1253
     24 N6         -0.6531   -0.2629   11.4224 N.pl3     1 <0>        -0.5744
     25 C17        -0.9639   -0.4449   12.8484 C.3       1 <0>         0.1013
     26 C18        -2.3114   -1.1652   12.9649 C.3       1 <0>         0.0387
     27 N7         -2.2712   -2.4031   12.1749 N.3       1 <0>        -0.5277
     28 C19        -2.0835   -2.1176   10.7462 C.3       1 <0>         0.0305
     29 C20        -0.7325   -1.4351   10.5377 C.3       1 <0>         0.1149
     30 C21        -3.4796   -3.2085   12.3965 C.3       1 <0>         0.0543
     31 C22        -3.2958   -4.5889   11.7629 C.3       1 <0>         0.0774
     32 O2         -2.2472   -5.2869   12.4378 O.3       1 <0>        -0.5615
     33 Cl1        -0.2110    9.6681    4.2952 Cl        1 <0>        -0.0453
     34 H1          2.7121    6.0191    1.1609 H         1 <0>         0.0767
     35 H2          4.2810    6.8077    1.4524 H         1 <0>         0.0779
     36 H3          3.3298    6.1850    2.8220 H         1 <0>         0.0648
     37 H4          3.6435    8.8670    0.3327 H         1 <0>         0.1365
     38 H5          2.5139   11.0437    0.5337 H         1 <0>         0.1383
     39 H6          0.8148   11.3976    2.2790 H         1 <0>         0.1396
     40 H7          1.0484    6.2731    3.4723 H         1 <0>         0.4083
     41 H8          1.2191    7.1147    8.0430 H         1 <0>         0.1979
     42 H9          0.3477    1.9521    7.1161 H         1 <0>         0.4525
     43 H10        -0.2767    0.3593    8.8606 H         1 <0>         0.1835
     44 H11         1.4596    4.3615   12.5720 H         1 <0>         0.1250
     45 H12         0.1626    5.2758   11.7656 H         1 <0>         0.1301
     46 H13        -0.2249    4.1881   13.1203 H         1 <0>         0.1049
     47 H14        -0.1857   -1.0458   13.3190 H         1 <0>         0.1119
     48 H15        -1.0251    0.5276   13.3369 H         1 <0>         0.0843
     49 H16        -2.5057   -1.4068   14.0099 H         1 <0>         0.1076
     50 H17        -3.1034   -0.5184   12.5874 H         1 <0>         0.0465
     51 H18        -2.1124   -3.0499   10.1822 H         1 <0>         0.1076
     52 H19        -2.8786   -1.4576   10.3996 H         1 <0>         0.0467
     53 H20        -0.6409   -1.1170    9.4992 H         1 <0>         0.1034
     54 H21         0.0684   -2.1330   10.7819 H         1 <0>         0.1075
     55 H22        -3.6507   -3.3200   13.4672 H         1 <0>         0.0925
     56 H23        -4.3362   -2.7111   11.9416 H         1 <0>         0.0553
     57 H24        -4.2233   -5.1548   11.8494 H         1 <0>         0.0565
     58 H25        -3.0370   -4.4741   10.7103 H         1 <0>         0.0456
     59 H26        -2.0752   -6.1719   12.0881 H         1 <0>         0.3821
     60 H27        -0.2297    1.8867   12.7033 H         1 <0>         0.4392
@<TRIPOS>BOND
     1    1    2 1
     2    1   34 1
     3    1   35 1
     4    1   36 1
     5    2    7 ar
     6    2    3 ar
     7    3    4 ar
     8    3   37 1
     9    4    5 ar
    10    4   38 1
    11    5    6 ar
    12    5   39 1
    13    6    7 ar
    14    6   33 1
    15    7    8 1
    16    8    9 am
    17    8   40 1
    18    9   10 2
    19    9   11 1
    20   11   15 1
    21   11   12 2
    22   12   13 1
    23   12   41 1
    24   13   14 2
    25   14   15 1
    26   14   16 1
    27   16   17 1
    28   16   42 1
    29   17   18 ar
    30   17   22 ar
    31   18   43 1
    32   18   19 ar
    33   19   24 1
    34   19   20 ar
    35   20   60 1
    36   20   21 ar
    37   21   23 1
    38   21   22 ar
    39   23   44 1
    40   23   45 1
    41   23   46 1
    42   24   29 1
    43   24   25 1
    44   25   26 1
    45   25   47 1
    46   25   48 1
    47   26   27 1
    48   26   49 1
    49   26   50 1
    50   27   28 1
    51   27   30 1
    52   28   29 1
    53   28   51 1
    54   28   52 1
    55   29   53 1
    56   29   54 1
    57   30   31 1
    58   30   55 1
    59   30   56 1
    60   31   32 1
    61   31   57 1
    62   31   58 1
    63   32   59 1
@<TRIPOS>MOLECULE
ZINC21982951
   59    62     0     0     0
SMALL
USER_CHARGES

@<TRIPOS>ATOM
      1 C1          3.4106    6.6420    1.8847 C.3       1 <0>        -0.1165
      2 C2          2.6976    7.9659    1.9845 C.ar      1 <0>        -0.0852
      3 C3          3.0204    8.9921    1.1176 C.ar      1 <0>        -0.1055
      4 C4          2.3672   10.2073    1.2080 C.ar      1 <0>        -0.1070
      5 C5          1.3885   10.4004    2.1660 C.ar      1 <0>        -0.1064
      6 C6          1.0609    9.3785    3.0365 C.ar      1 <0>        -0.0243
      7 C7          1.7118    8.1536    2.9438 C.ar      1 <0>         0.1460
      8 N1          1.3783    7.1144    3.8189 N.am      1 <0>        -0.6734
      9 C8          1.3676    7.3308    5.1492 C.2       1 <0>         0.6131
     10 O1          1.5489    8.4533    5.5848 O.2       1 <0>        -0.4899
     11 C9          1.1384    6.2176    6.0693 C.2       1 <0>        -0.3092
     12 C10         1.0807    6.2111    7.4561 C.2       1 <0>         0.1722
     13 N2          0.8573    5.0526    8.0233 N.2       1 <0>        -0.5180
     14 C11         0.6966    3.9535    7.3079 C.2       1 <0>         0.3121
     15 S1          0.8472    4.4907    5.7202 S.3       1 <0>         0.1340
     16 N3          0.4564    2.6698    7.7563 N.pl3     1 <0>        -0.5904
     17 C12         0.2490    2.4343    9.1091 C.ar      1 <0>         0.4412
     18 C13        -0.1036    1.1661    9.5586 C.ar      1 <0>        -0.3412
     19 C14        -0.3003    0.9817   10.9244 C.ar      1 <0>         0.4686
     20 N4         -0.1450    2.0186   11.7452 N.ar      1 <0>        -0.5923
     21 C15         0.1898    3.2050   11.2799 C.ar      1 <0>         0.3946
     22 N5          0.3901    3.4182    9.9956 N.ar      1 <0>        -0.5459
     23 C16         0.3546    4.3498   12.2460 C.3       1 <0>        -0.0834
     24 N6         -0.6531   -0.2629   11.4224 N.pl3     1 <0>        -0.5966
     25 C17        -1.0693   -0.4249   12.8237 C.3       1 <0>         0.1300
     26 C18        -2.3993   -1.1856   12.8517 C.3       1 <0>         0.0401
     27 N7         -2.2595   -2.4378   12.0965 N.3       1 <0>        -0.5276
     28 C19        -1.9688   -2.1765   10.6804 C.3       1 <0>         0.0363
     29 C20        -0.6270   -1.4554   10.5619 C.3       1 <0>         0.1269
     30 C21        -3.4565   -3.2768   12.2420 C.3       1 <0>         0.0537
     31 C22        -3.1814   -4.6636   11.6572 C.3       1 <0>         0.0792
     32 O2         -2.1684   -5.3132   12.4279 O.3       1 <0>        -0.5589
     33 Cl1        -0.1672    9.6214    4.2392 Cl        1 <0>        -0.0433
     34 H1          2.8725    5.9906    1.1961 H         1 <0>         0.0754
     35 H2          4.4240    6.8020    1.5166 H         1 <0>         0.0754
     36 H3          3.4510    6.1760    2.8692 H         1 <0>         0.0676
     37 H4          3.7844    8.8450    0.3685 H         1 <0>         0.1337
     38 H5          2.6220   11.0077    0.5292 H         1 <0>         0.1350
     39 H6          0.8801   11.3508    2.2339 H         1 <0>         0.1371
     40 H7          1.1547    6.2381    3.4683 H         1 <0>         0.4085
     41 H8          1.2132    7.1127    8.0357 H         1 <0>         0.1884
     42 H9          0.4325    1.9325    7.1264 H         1 <0>         0.4387
     43 H10        -0.2220    0.3459    8.8660 H         1 <0>         0.1413
     44 H11         1.3882    4.3890   12.5900 H         1 <0>         0.0870
     45 H12         0.1021    5.2855   11.7470 H         1 <0>         0.0890
     46 H13        -0.3072    4.2031   13.0995 H         1 <0>         0.0846
     47 H14        -0.3126   -0.9904   13.3674 H         1 <0>         0.0744
     48 H15        -1.1984    0.5551   13.2831 H         1 <0>         0.1008
     49 H16        -2.6676   -1.4113   13.8837 H         1 <0>         0.0903
     50 H17        -3.1785   -0.5727   12.3986 H         1 <0>         0.0372
     51 H18        -1.9249   -3.1208   10.1378 H         1 <0>         0.0905
     52 H19        -2.7540   -1.5497   10.2576 H         1 <0>         0.0380
     53 H20        -0.4638   -1.1563    9.5265 H         1 <0>         0.0877
     54 H21         0.1731   -2.1219   10.8840 H         1 <0>         0.0802
     55 H22        -3.7077   -3.3713   13.2985 H         1 <0>         0.0861
     56 H23        -4.2894   -2.8169   11.7102 H         1 <0>         0.0487
     57 H24        -4.0952   -5.2572   11.6843 H         1 <0>         0.0498
     58 H25        -2.8443   -4.5626   10.6256 H         1 <0>         0.0451
     59 H26        -1.9426   -6.1994   12.1134 H         1 <0>         0.3762
@<TRIPOS>BOND
     1    1    2 1
     2    1   34 1
     3    1   35 1
     4    1   36 1
     5    2    7 ar
     6    2    3 ar
     7    3    4 ar
     8    3   37 1
     9    4    5 ar
    10    4   38 1
    11    5    6 ar
    12    5   39 1
    13    6    7 ar
    14    6   33 1
    15    7    8 1
    16    8    9 am
    17    8   40 1
    18    9   10 2
    19    9   11 1
    20   11   15 1
    21   11   12 2
    22   12   13 1
    23   12   41 1
    24   13   14 2
    25   14   15 1
    26   14   16 1
    27   16   17 1
    28   16   42 1
    29   17   18 ar
    30   17   22 ar
    31   18   43 1
    32   18   19 ar
    33   19   24 1
    34   19   20 ar
    35   20   21 ar
    36   21   23 1
    37   21   22 ar
    38   23   44 1
    39   23   45 1
    40   23   46 1
    41   24   29 1
    42   24   25 1
    43   25   26 1
    44   25   47 1
    45   25   48 1
    46   26   27 1
    47   26   49 1
    48   26   50 1
    49   27   28 1
    50   27   30 1
    51   28   29 1
    52   28   51 1
    53   28   52 1
    54   29   53 1
    55   29   54 1
    56   30   31 1
    57   30   55 1
    58   30   56 1
    59   31   32 1
    60   31   57 1
    61   31   58 1
    62   32   59 1
@<TRIPOS>MOLECULE
ZINC21982951
   61    64     0     0     0
SMALL
USER_CHARGES

@<TRIPOS>ATOM
      1 C1          3.2770    6.6581    1.8427 C.3       1 <0>        -0.1166
      2 C2          2.5837    7.9904    1.9667 C.ar      1 <0>        -0.0814
      3 C3          2.9012    9.0183    1.0999 C.ar      1 <0>        -0.1028
      4 C4          2.2660   10.2411    1.2125 C.ar      1 <0>        -0.0975
      5 C5          1.3108   10.4402    2.1928 C.ar      1 <0>        -0.1039
      6 C6          0.9888    9.4167    3.0634 C.ar      1 <0>        -0.0218
      7 C7          1.6215    8.1842    2.9485 C.ar      1 <0>         0.1327
      8 N1          1.2933    7.1433    3.8237 N.am      1 <0>        -0.6648
      9 C8          1.3141    7.3507    5.1552 C.2       1 <0>         0.5983
     10 O1          1.5193    8.4677    5.5943 O.2       1 <0>        -0.4690
     11 C9          1.0903    6.2342    6.0727 C.2       1 <0>        -0.2500
     12 C10         1.0624    6.2188    7.4604 C.2       1 <0>         0.1439
     13 N2          0.8362    5.0594    8.0246 N.2       1 <0>        -0.4984
     14 C11         0.6458    3.9675    7.3056 C.2       1 <0>         0.2172
     15 S1          0.7692    4.5136    5.7185 S.3       1 <0>         0.2242
     16 N3          0.3986    2.6839    7.7506 N.pl3     1 <0>        -0.5513
     17 C12         0.2203    2.4413    9.1063 C.ar      1 <0>         0.5098
     18 C13        -0.1335    1.1734    9.5556 C.ar      1 <0>        -0.3097
     19 C14        -0.3003    0.9817   10.9244 C.ar      1 <0>         0.4927
     20 N4         -0.1163    2.0116   11.7481 N.ar      1 <0>        -0.5695
     21 C15         0.2187    3.1980   11.2828 C.ar      1 <0>         0.4589
     22 N5          0.3911    3.4178    9.9956 N.ar      1 <0>        -0.4762
     23 C16         0.4165    4.3348   12.2521 C.3       1 <0>        -0.1303
     24 N6         -0.6531   -0.2629   11.4224 N.pl3     1 <0>        -0.6123
     25 C17        -0.9643   -0.4465   12.8484 C.3       1 <0>         0.0782
     26 C18        -2.3027   -1.1838   12.9625 C.3       1 <0>        -0.0204
     27 N7         -2.2406   -2.4311   12.1903 N.4       1 <0>        -0.3852
     28 C19        -2.0770   -2.1279   10.7629 C.3       1 <0>        -0.0304
     29 C20        -0.7330   -1.4363   10.5388 C.3       1 <0>         0.0932
     30 C21        -3.4827   -3.1900   12.3886 C.3       1 <0>        -0.0061
     31 C22        -3.3702   -4.5448   11.6865 C.3       1 <0>         0.0434
     32 O2         -2.3479   -5.3224   12.3128 O.3       1 <0>        -0.5819
     33 Cl1        -0.2098    9.6671    4.2940 Cl        1 <0>        -0.0466
     34 H1          2.7157    6.0184    1.1617 H         1 <0>         0.0770
     35 H2          4.2843    6.8074    1.4538 H         1 <0>         0.0791
     36 H3          3.3325    6.1847    2.8230 H         1 <0>         0.0631
     37 H4          3.6468    8.8665    0.3335 H         1 <0>         0.1380
     38 H5          2.5166   11.0428    0.5336 H         1 <0>         0.1401
     39 H6          0.8165   11.3966    2.2780 H         1 <0>         0.1410
     40 H7          1.0508    6.2723    3.4722 H         1 <0>         0.4077
     41 H8          1.2191    7.1146    8.0429 H         1 <0>         0.2016
     42 H9          0.3494    1.9517    7.1163 H         1 <0>         0.4545
     43 H10        -0.2756    0.3590    8.8607 H         1 <0>         0.1860
     44 H11         1.4581    4.3621   12.5724 H         1 <0>         0.1309
     45 H12         0.1613    5.2760   11.7653 H         1 <0>         0.1358
     46 H13        -0.2267    4.1885   13.1199 H         1 <0>         0.1083
     47 H14        -0.1795   -1.0367   13.3215 H         1 <0>         0.1249
     48 H15        -1.0392    0.5259   13.3352 H         1 <0>         0.1232
     49 H16        -2.5028   -1.4138   14.0090 H         1 <0>         0.1602
     50 H17        -3.0999   -0.5526   12.5701 H         1 <0>         0.1410
     51 H18        -2.1110   -3.0537   10.1885 H         1 <0>         0.1585
     52 H19        -2.8811   -1.4682   10.4370 H         1 <0>         0.1418
     53 H20        -0.6550   -1.1179    9.4992 H         1 <0>         0.1416
     54 H21         0.0756   -2.1281   10.7747 H         1 <0>         0.1211
     55 H22        -3.6469   -3.3459   13.4548 H         1 <0>         0.1465
     56 H23        -4.3202   -2.6321   11.9697 H         1 <0>         0.1464
     57 H24        -4.3221   -5.0710   11.7578 H         1 <0>         0.1026
     58 H25        -3.1180   -4.3904   10.6374 H         1 <0>         0.0719
     59 H26        -2.2211   -6.1961   11.9183 H         1 <0>         0.4154
     60 H27        -0.2308    1.8869   12.7032 H         1 <0>         0.4393
     61 H28        -1.4578   -2.9831   12.5075 H         1 <0>         0.4359
@<TRIPOS>BOND
     1    1    2 1
     2    1   34 1
     3    1   35 1
     4    1   36 1
     5    2    7 ar
     6    2    3 ar
     7    3    4 ar
     8    3   37 1
     9    4    5 ar
    10    4   38 1
    11    5    6 ar
    12    5   39 1
    13    6    7 ar
    14    6   33 1
    15    7    8 1
    16    8    9 am
    17    8   40 1
    18    9   10 2
    19    9   11 1
    20   11   15 1
    21   11   12 2
    22   12   13 1
    23   12   41 1
    24   13   14 2
    25   14   15 1
    26   14   16 1
    27   16   17 1
    28   16   42 1
    29   17   18 ar
    30   17   22 ar
    31   18   43 1
    32   18   19 ar
    33   19   24 1
    34   19   20 ar
    35   20   60 1
    36   20   21 ar
    37   21   23 1
    38   21   22 ar
    39   23   44 1
    40   23   45 1
    41   23   46 1
    42   24   29 1
    43   24   25 1
    44   25   26 1
    45   25   47 1
    46   25   48 1
    47   26   27 1
    48   26   49 1
    49   26   50 1
    50   27   28 1
    51   27   30 1
    52   27   61 1
    53   28   29 1
    54   28   51 1
    55   28   52 1
    56   29   53 1
    57   29   54 1
    58   30   31 1
    59   30   55 1
    60   30   56 1
    61   31   32 1
    62   31   57 1
    63   31   58 1
    64   32   59 1
@<TRIPOS>MOLECULE
ZINC03814434
   62    69     0     0     0
SMALL
USER_CHARGES

@<TRIPOS>ATOM
      1 C1         -0.1295    1.5952   -0.2973 C.3       1 <0>        -0.1687
      2 C2         -0.0862    0.0696   -0.1900 C.3       1 <0>         0.3342
      3 C3          0.5692   -0.4501   -1.4637 C.3       1 <0>         0.0405
      4 H1          1.4796    0.1159   -1.6612 H         1 <0>         0.1372
      5 C4          0.9167   -1.9328   -1.2889 C.3       1 <0>        -0.0061
      6 H2          1.3963   -2.3075   -2.1932 H         1 <0>         0.1555
      7 C5          1.8785   -2.0596   -0.1021 C.3       1 <0>        -0.1827
      8 C6          1.2061   -1.5198    1.1541 C.3       1 <0>         0.2999
      9 H3          1.9797   -1.4243    1.9161 H         1 <0>         0.1550
     10 O1          0.6555   -0.2442    0.9666 O.3       1 <0>        -0.3234
     11 N1          0.2189   -2.4746    1.6600 N.pl3     1 <0>        -0.5366
     12 C7          0.4705   -3.5508    2.4739 C.ar      1 <0>         0.1469
     13 C8          1.6649   -4.0152    3.0240 C.ar      1 <0>        -0.1522
     14 C9          1.5948   -5.1456    3.8201 C.ar      1 <0>        -0.0582
     15 C10         0.4006   -5.7997    4.0696 C.ar      1 <0>        -0.1457
     16 C11        -0.7984   -5.3597    3.5358 C.ar      1 <0>        -0.0280
     17 C12        -0.7487   -4.2198    2.7307 C.ar      1 <0>        -0.1131
     18 C13        -1.7893   -3.4830    2.0197 C.ar      1 <0>         0.0276
     19 C14        -1.1442   -2.4197    1.3841 C.ar      1 <0>         0.0376
     20 C15        -1.8806   -1.5095    0.6175 C.ar      1 <0>         0.0894
     21 N2         -1.4718   -0.3951   -0.1095 N.pl3     1 <0>        -0.5183
     22 C16        -2.5611    0.1913   -0.7090 C.ar      1 <0>         0.1618
     23 C17        -2.6521    1.3277   -1.5118 C.ar      1 <0>        -0.1305
     24 C18        -3.9109    1.6745   -1.9733 C.ar      1 <0>        -0.0737
     25 C19        -5.0393    0.9368   -1.6616 C.ar      1 <0>        -0.1358
     26 C20        -4.9745   -0.1955   -0.8662 C.ar      1 <0>        -0.0503
     27 C21        -3.7147   -0.5596   -0.3919 C.ar      1 <0>        -0.1042
     28 C22        -3.2693   -1.6660    0.4845 C.ar      1 <0>        -0.0360
     29 C23        -3.9084   -2.7313    1.1102 C.ar      1 <0>        -0.0288
     30 C24        -3.1873   -3.6421    1.8754 C.ar      1 <0>        -0.1255
     31 C25        -4.1221   -4.6480    2.4030 C.2       1 <0>         0.5632
     32 O2         -3.8062   -5.5851    3.1110 O.2       1 <0>        -0.5106
     33 N3         -5.3744   -4.3851    1.9926 N.am      1 <0>        -0.7162
     34 C26        -5.3495   -3.1771    1.1601 C.3       1 <0>         0.1358
     35 N4         -0.3067   -2.7008   -1.0216 N.4       1 <0>        -0.5252
     36 C27         0.0145   -4.1336   -0.9773 C.3       1 <0>        -0.0497
     37 O3         -0.3340   -0.2979   -2.5607 O.3       1 <0>        -0.3614
     38 C28         0.3101   -0.0933   -3.8198 C.3       1 <0>         0.0162
     39 H4          0.8261    2.0094    0.0240 H         1 <0>         0.0984
     40 H5         -0.3202    1.8814   -1.3317 H         1 <0>         0.1036
     41 H6         -0.9255    1.9818    0.3392 H         1 <0>         0.0921
     42 H7          2.1370   -3.1081    0.0458 H         1 <0>         0.1233
     43 H8          2.7835   -1.4869   -0.3048 H         1 <0>         0.1455
     44 H9          2.6036   -3.5149    2.8368 H         1 <0>         0.1365
     45 H10         2.5026   -5.5304    4.2610 H         1 <0>         0.1359
     46 H11         0.4045   -6.6780    4.6980 H         1 <0>         0.1352
     47 H12        -1.7278   -5.8736    3.7323 H         1 <0>         0.1600
     48 H13        -1.7792    1.9122   -1.7624 H         1 <0>         0.1440
     49 H14        -4.0153    2.5500   -2.5970 H         1 <0>         0.1336
     50 H15        -5.9967    1.2527   -2.0488 H         1 <0>         0.1332
     51 H16        -5.8575   -0.7687   -0.6249 H         1 <0>         0.1415
     52 H17        -6.1628   -4.9065    2.2103 H         1 <0>         0.4348
     53 H18        -5.9671   -2.3994    1.6094 H         1 <0>         0.1115
     54 H19        -5.7060   -3.4063    0.1559 H         1 <0>         0.1103
     55 H20        -0.6958   -2.4158   -0.1353 H         1 <0>         0.4186
     56 H21         0.4349   -4.4415   -1.9347 H         1 <0>         0.1256
     57 H22         0.7403   -4.3189   -0.1854 H         1 <0>         0.1191
     58 H23        -0.8932   -4.7035   -0.7789 H         1 <0>         0.1256
     59 H24         0.9168    0.8112   -3.7748 H         1 <0>         0.0633
     60 H25         0.9482   -0.9479   -4.0446 H         1 <0>         0.0514
     61 H26        -0.4433    0.0130   -4.6003 H         1 <0>         0.1100
     62 H27        -0.9785   -2.5293   -1.7546 H         1 <0>         0.4274
@<TRIPOS>BOND
     1    1    2 1
     2    1   39 1
     3    1   40 1
     4    1   41 1
     5    2   10 1
     6    2   21 1
     7    2    3 1
     8    3    4 1
     9    3    5 1
    10    3   37 1
    11    5    6 1
    12    5    7 1
    13    5   35 1
    14    7    8 1
    15    7   42 1
    16    7   43 1
    17    8    9 1
    18    8   10 1
    19    8   11 1
    20   11   19 1
    21   11   12 1
    22   12   17 ar
    23   12   13 ar
    24   13   14 ar
    25   13   44 1
    26   14   15 ar
    27   14   45 1
    28   15   16 ar
    29   15   46 1
    30   16   17 ar
    31   16   47 1
    32   17   18 1
    33   18   30 ar
    34   18   19 ar
    35   19   20 ar
    36   20   28 ar
    37   20   21 1
    38   21   22 1
    39   22   27 ar
    40   22   23 ar
    41   23   24 ar
    42   23   48 1
    43   24   25 ar
    44   24   49 1
    45   25   26 ar
    46   25   50 1
    47   26   27 ar
    48   26   51 1
    49   27   28 1
    50   28   29 ar
    51   29   34 1
    52   29   30 ar
    53   30   31 1
    54   31   32 2
    55   31   33 am
    56   33   34 1
    57   33   52 1
    58   34   53 1
    59   34   54 1
    60   35   36 1
    61   35   55 1
    62   35   62 1
    63   36   56 1
    64   36   57 1
    65   36   58 1
    66   37   38 1
    67   38   59 1
    68   38   60 1
    69   38   61 1
@<TRIPOS>MOLECULE
ZINC66080466
   42    43     0     0     0
SMALL
USER_CHARGES

@<TRIPOS>ATOM
      1 C1         -0.3101    1.5787   -1.0405 C.3       1 <0>        -0.1668
      2 C2         -0.3320    0.0570   -1.1974 C.3       1 <0>         0.1311
      3 N1         -1.5362   -0.4823   -0.5606 N.am      1 <0>        -0.7393
      4 C3         -1.7687   -1.8098   -0.5740 C.2       1 <0>         0.7058
      5 O1         -0.9789   -2.5599   -1.1145 O.2       1 <0>        -0.5690
      6 N2         -2.8765   -2.3058    0.0118 N.am      1 <0>        -0.6835
      7 C4         -3.1662   -3.6741   -0.0823 C.ar      1 <0>         0.1845
      8 C5         -2.1350   -4.6035   -0.0898 C.ar      1 <0>        -0.0954
      9 C6         -2.4208   -5.9513   -0.1820 C.ar      1 <0>        -0.0793
     10 C7         -3.7385   -6.3775   -0.2673 C.ar      1 <0>         0.0822
     11 C8         -4.7700   -5.4501   -0.2604 C.ar      1 <0>        -0.0847
     12 C9         -4.4858   -4.1012   -0.1624 C.ar      1 <0>        -0.0559
     13 Cl1        -5.7767   -2.9406   -0.1465 Cl        1 <0>        -0.0562
     14 O2         -4.0188   -7.7048   -0.3580 O.3       1 <0>        -0.2053
     15 C10        -3.9030   -8.4569    0.7618 C.ar      1 <0>         0.4177
     16 C11        -4.2732   -9.8122    0.7537 C.ar      1 <0>        -0.2481
     17 C12        -4.1301  -10.5425    1.9485 C.ar      1 <0>         0.4947
     18 N3         -3.6545   -9.9229    3.0250 N.ar      1 <0>        -0.5919
     19 C13        -3.3207   -8.6491    2.9830 C.ar      1 <0>         0.3938
     20 N4         -3.4323   -7.9276    1.8856 N.ar      1 <0>        -0.6014
     21 N5         -4.4780  -11.8787    2.0022 N.pl3     1 <0>        -0.8212
     22 C14        -4.7952  -10.4490   -0.4668 C.2       1 <0>         0.1542
     23 N6         -4.8272   -9.7871   -1.5796 N.2       1 <0>        -0.3129
     24 O3         -5.3292  -10.3995   -2.7535 O.3       1 <0>        -0.2467
     25 C15        -5.3053   -9.5545   -3.9057 C.3       1 <0>         0.0475
     26 H1          0.5858    1.9800   -1.5143 H         1 <0>         0.0781
     27 H2         -1.1939    2.0056   -1.5146 H         1 <0>         0.0627
     28 H3         -0.3066    1.8348    0.0190 H         1 <0>         0.0628
     29 H4         -0.3356   -0.1991   -2.2568 H         1 <0>         0.0697
     30 H5          0.5518   -0.3699   -0.7233 H         1 <0>         0.0700
     31 H6         -2.1662    0.1161   -0.1294 H         1 <0>         0.3993
     32 H7         -3.4733   -1.7161    0.4985 H         1 <0>         0.4102
     33 H8         -1.1091   -4.2723   -0.0238 H         1 <0>         0.1584
     34 H9         -1.6183   -6.6740   -0.1882 H         1 <0>         0.1369
     35 H10        -5.7954   -5.7824   -0.3274 H         1 <0>         0.1437
     36 H11        -2.9380   -8.1809    3.8779 H         1 <0>         0.2061
     37 H12        -4.7550  -12.3405    1.1954 H         1 <0>         0.4144
     38 H13        -4.4452  -12.3549    2.8466 H         1 <0>         0.4161
     39 H14        -5.1515  -11.4680   -0.4342 H         1 <0>         0.1202
     40 H15        -4.2787   -9.2532   -4.1140 H         1 <0>         0.0507
     41 H16        -5.7057  -10.0967   -4.7623 H         1 <0>         0.0961
     42 H17        -5.9132   -8.6691   -3.7196 H         1 <0>         0.0507
@<TRIPOS>BOND
     1    1    2 1
     2    1   26 1
     3    1   27 1
     4    1   28 1
     5    2    3 1
     6    2   29 1
     7    2   30 1
     8    3    4 am
     9    3   31 1
    10    4    5 2
    11    4    6 am
    12    6    7 1
    13    6   32 1
    14    7   12 ar
    15    7    8 ar
    16    8    9 ar
    17    8   33 1
    18    9   10 ar
    19    9   34 1
    20   10   11 ar
    21   10   14 1
    22   11   12 ar
    23   11   35 1
    24   12   13 1
    25   14   15 1
    26   15   20 ar
    27   15   16 ar
    28   16   17 ar
    29   16   22 1
    30   17   18 ar
    31   17   21 1
    32   18   19 ar
    33   19   20 ar
    34   19   36 1
    35   21   37 1
    36   21   38 1
    37   22   23 2
    38   22   39 1
    39   23   24 1
    40   24   25 1
    41   25   40 1
    42   25   41 1
    43   25   42 1
@<TRIPOS>MOLECULE
ZINC34842284
   60    64     0     0     0
SMALL
USER_CHARGES

@<TRIPOS>ATOM
      1 C1         -0.0178    1.4608    0.0101 C.3       1 <0>         0.0965
      2 N1          0.0021   -0.0041    0.0020 N.pl3     1 <0>        -0.3671
      3 C2          0.0078   -0.7883   -1.0945 C.2       1 <0>         0.0815
      4 C3          0.0278   -2.0866   -0.6734 C.2       1 <0>        -0.2075
      5 C4          0.0343   -2.0758    0.7354 C.2       1 <0>         0.0682
      6 N2          0.0245   -0.8308    1.1317 N.2       1 <0>        -0.2890
      7 C5          0.0397   -3.2901   -1.5414 C.ar      1 <0>        -0.0366
      8 C6          0.0543   -4.5644   -0.9807 C.ar      1 <0>        -0.0385
      9 C7          0.0802   -5.6649   -1.8426 C.ar      1 <0>        -0.1799
     10 C8          0.1229   -5.4562   -3.2387 C.ar      1 <0>         0.1790
     11 C9          0.2532   -6.5705   -4.1609 C.2       1 <0>        -0.0928
     12 C10        -0.3414   -7.7510   -4.0859 C.2       1 <0>        -0.0827
     13 C11        -1.2649   -8.2108   -3.0641 C.ar      1 <0>        -0.0205
     14 C12        -2.3865   -8.9737   -3.4314 C.ar      1 <0>        -0.0788
     15 C13        -3.2359   -9.4502   -2.4792 C.ar      1 <0>        -0.1379
     16 C14        -3.0081   -9.1944   -1.1257 C.ar      1 <0>         0.1494
     17 C15        -1.9219   -8.4304   -0.7344 C.ar      1 <0>        -0.0939
     18 C16        -1.0553   -7.9152   -1.6995 C.ar      1 <0>        -0.1193
     19 C17         0.0500   -7.0298   -1.2992 C.2       1 <0>         0.4578
     20 O1          0.9175   -7.4185   -0.5376 O.2       1 <0>        -0.4210
     21 N3         -3.8773   -9.7097   -0.1653 N.pl3     1 <0>        -1.0655
     22 S1         -4.3812  -11.2840   -0.2641 S.o2      1 <0>         2.7793
     23 O2         -5.2247  -11.5116    0.8566 O.2       1 <0>        -0.9610
     24 O3         -4.8189  -11.4872   -1.6007 O.2       1 <0>        -0.9643
     25 N4         -3.0455  -12.2399   -0.0531 N.pl3     1 <0>        -0.9947
     26 C18        -2.6613  -12.6751    1.2920 C.3       1 <0>         0.0938
     27 C19        -2.2480  -12.6502   -1.2115 C.3       1 <0>         0.1210
     28 C20        -1.0763  -11.6831   -1.3923 C.3       1 <0>         0.0178
     29 H1         -1.4536  -10.6631   -1.4645 H         1 <0>         0.0816
     30 C21        -0.3126  -12.0380   -2.6715 C.3       1 <0>         0.0320
     31 O4          0.8442  -11.2023   -2.7746 O.3       1 <0>        -0.3693
     32 C22         1.7288  -11.3082   -1.6551 C.3       1 <0>         0.0253
     33 C23         0.9651  -10.9534   -0.3760 C.3       1 <0>         0.0211
     34 O5         -0.1924  -11.7879   -0.2721 O.3       1 <0>        -0.3671
     35 N5          0.0651   -4.2087   -3.7198 N.ar      1 <0>        -0.4628
     36 C24         0.0305   -3.1599   -2.9350 C.ar      1 <0>         0.1258
     37 H2          1.0048    1.8381    0.0023 H         1 <0>         0.0802
     38 H3         -0.5450    1.8219   -0.8730 H         1 <0>         0.0921
     39 H4         -0.5280    1.8123    0.9069 H         1 <0>         0.0936
     40 H5         -0.0021   -0.4506   -2.1203 H         1 <0>         0.1820
     41 H6          0.0494   -2.9451    1.3761 H         1 <0>         0.1866
     42 H7          0.0463   -4.6991    0.0909 H         1 <0>         0.1426
     43 H8          0.9100   -6.4187   -5.0047 H         1 <0>         0.1374
     44 H9         -0.1138   -8.4521   -4.8752 H         1 <0>         0.1386
     45 H10        -2.5760   -9.1830   -4.4738 H         1 <0>         0.1447
     46 H11        -4.0961  -10.0325   -2.7747 H         1 <0>         0.1659
     47 H12        -1.7458   -8.2343    0.3129 H         1 <0>         0.1371
     48 H13        -4.1869   -9.1460    0.5609 H         1 <0>         0.4277
     49 H14        -3.1500  -13.6222    1.5208 H         1 <0>         0.0607
     50 H15        -1.5799  -12.8040    1.3372 H         1 <0>         0.0884
     51 H16        -2.9683  -11.9229    2.0187 H         1 <0>         0.0679
     52 H17        -1.8656  -13.6582   -1.0506 H         1 <0>         0.0981
     53 H18        -2.8717  -12.6365   -2.1052 H         1 <0>         0.1107
     54 H19        -0.0048  -13.0830   -2.6340 H         1 <0>         0.0632
     55 H20        -0.9562  -11.8775   -3.5364 H         1 <0>         0.1055
     56 H21         2.1052  -12.3286   -1.5835 H         1 <0>         0.0597
     57 H22         2.5636  -10.6192   -1.7840 H         1 <0>         0.1035
     58 H23         1.6087  -11.1138    0.4889 H         1 <0>         0.1029
     59 H24         0.6574   -9.9084   -0.4134 H         1 <0>         0.0696
     60 H25        -0.0017   -2.1732   -3.3730 H         1 <0>         0.1615
@<TRIPOS>BOND
     1    1    2 1
     2    1   37 1
     3    1   38 1
     4    1   39 1
     5    2    6 1
     6    2    3 1
     7    3    4 2
     8    3   40 1
     9    4    5 1
    10    4    7 1
    11    5    6 2
    12    5   41 1
    13    7   36 ar
    14    7    8 ar
    15    8    9 ar
    16    8   42 1
    17    9   19 1
    18    9   10 ar
    19   10   11 1
    20   10   35 ar
    21   11   12 2
    22   11   43 1
    23   12   13 1
    24   12   44 1
    25   13   18 ar
    26   13   14 ar
    27   14   15 ar
    28   14   45 1
    29   15   16 ar
    30   15   46 1
    31   16   17 ar
    32   16   21 1
    33   17   18 ar
    34   17   47 1
    35   18   19 1
    36   19   20 2
    37   21   22 1
    38   21   48 1
    39   22   23 2
    40   22   24 2
    41   22   25 1
    42   25   26 1
    43   25   27 1
    44   26   49 1
    45   26   50 1
    46   26   51 1
    47   27   28 1
    48   27   52 1
    49   27   53 1
    50   28   29 1
    51   28   34 1
    52   28   30 1
    53   30   31 1
    54   30   54 1
    55   30   55 1
    56   31   32 1
    57   32   33 1
    58   32   56 1
    59   32   57 1
    60   33   34 1
    61   33   58 1
    62   33   59 1
    63   35   36 ar
    64   36   60 1
@<TRIPOS>MOLECULE
ZINC34842284
   59    63     0     0     0
SMALL
USER_CHARGES

@<TRIPOS>ATOM
      1 C1         -0.0178    1.4608    0.0101 C.3       1 <0>         0.1007
      2 N1          0.0021   -0.0041    0.0020 N.pl3     1 <0>        -0.3736
      3 C2          0.0078   -0.7883   -1.0945 C.2       1 <0>         0.0703
      4 C3          0.0278   -2.0866   -0.6734 C.2       1 <0>        -0.1902
      5 C4          0.0343   -2.0758    0.7354 C.2       1 <0>         0.0673
      6 N2          0.0245   -0.8308    1.1317 N.2       1 <0>        -0.2943
      7 C5          0.0397   -3.2901   -1.5414 C.ar      1 <0>        -0.0608
      8 C6          0.0543   -4.5644   -0.9807 C.ar      1 <0>        -0.0333
      9 C7          0.0802   -5.6649   -1.8426 C.ar      1 <0>        -0.1792
     10 C8          0.1229   -5.4562   -3.2387 C.ar      1 <0>         0.2045
     11 C9          0.2532   -6.5705   -4.1609 C.2       1 <0>        -0.1592
     12 C10        -0.3414   -7.7510   -4.0859 C.2       1 <0>        -0.0231
     13 C11        -1.2649   -8.2108   -3.0641 C.ar      1 <0>        -0.1647
     14 C12        -2.3865   -8.9737   -3.4314 C.ar      1 <0>        -0.0353
     15 C13        -3.2359   -9.4502   -2.4792 C.ar      1 <0>        -0.2465
     16 C14        -3.0081   -9.1944   -1.1257 C.ar      1 <0>         0.3005
     17 C15        -1.9219   -8.4304   -0.7344 C.ar      1 <0>        -0.1500
     18 C16        -1.0553   -7.9152   -1.6995 C.ar      1 <0>        -0.0837
     19 C17         0.0500   -7.0298   -1.2992 C.2       1 <0>         0.4609
     20 O1          0.9175   -7.4185   -0.5376 O.2       1 <0>        -0.4397
     21 N3         -3.8773   -9.7097   -0.1653 N.2       1 <0>        -1.0971
     22 S1         -5.1776  -10.6235   -0.6305 S.o2      1 <0>         2.7153
     23 O2         -6.0456   -9.7582   -1.3496 O.2       1 <0>        -1.0429
     24 O3         -4.6537  -11.8178   -1.1947 O.2       1 <0>        -1.0457
     25 N4         -5.9839  -11.0648    0.7470 N.pl3     1 <0>        -0.9885
     26 C18        -7.0496  -10.2109    1.2774 C.3       1 <0>         0.1091
     27 C19        -5.6314  -12.3092    1.4352 C.3       1 <0>         0.1365
     28 C20        -4.6323  -12.0078    2.5540 C.3       1 <0>         0.0329
     29 H1         -3.7717  -11.4810    2.1417 H         1 <0>         0.0873
     30 C21        -4.1704  -13.3198    3.1948 C.3       1 <0>         0.0320
     31 O4         -3.3244  -13.0250    4.3103 O.3       1 <0>        -0.3784
     32 C22        -3.9524  -12.2119    5.3061 C.3       1 <0>         0.0246
     33 C23        -4.4143  -10.8999    4.6653 C.3       1 <0>         0.0237
     34 O5         -5.2598  -11.1934    3.5490 O.3       1 <0>        -0.3667
     35 N5          0.0651   -4.2087   -3.7198 N.ar      1 <0>        -0.4751
     36 C24         0.0305   -3.1599   -2.9350 C.ar      1 <0>         0.1218
     37 H2          1.0048    1.8381    0.0023 H         1 <0>         0.0758
     38 H3         -0.5450    1.8219   -0.8730 H         1 <0>         0.0888
     39 H4         -0.5280    1.8123    0.9069 H         1 <0>         0.0902
     40 H5         -0.0021   -0.4506   -2.1203 H         1 <0>         0.1795
     41 H6          0.0494   -2.9451    1.3761 H         1 <0>         0.1876
     42 H7          0.0463   -4.6991    0.0909 H         1 <0>         0.1396
     43 H8          0.9100   -6.4187   -5.0047 H         1 <0>         0.1239
     44 H9         -0.1138   -8.4521   -4.8752 H         1 <0>         0.1183
     45 H10        -2.5760   -9.1830   -4.4738 H         1 <0>         0.1151
     46 H11        -4.0961  -10.0325   -2.7747 H         1 <0>         0.1021
     47 H12        -1.7458   -8.2343    0.3129 H         1 <0>         0.1215
     48 H13        -8.0037  -10.5080    0.8422 H         1 <0>         0.0404
     49 H14        -7.0955  -10.3181    2.3611 H         1 <0>         0.0728
     50 H15        -6.8424   -9.1713    1.0236 H         1 <0>         0.0649
     51 H16        -6.5299  -12.7559    1.8610 H         1 <0>         0.0781
     52 H17        -5.1826  -13.0029    0.7243 H         1 <0>         0.1032
     53 H18        -5.0384  -13.8845    3.5350 H         1 <0>         0.0590
     54 H19        -3.6164  -13.9075    2.4628 H         1 <0>         0.1068
     55 H20        -4.8131  -12.7393    5.7173 H         1 <0>         0.0563
     56 H21        -3.2406  -11.9973    6.1031 H         1 <0>         0.1003
     57 H22        -4.9682  -10.3122    5.3973 H         1 <0>         0.0994
     58 H23        -3.5462  -10.3353    4.3251 H         1 <0>         0.0629
     59 H24        -0.0017   -2.1732   -3.3730 H         1 <0>         0.1540
@<TRIPOS>BOND
     1    1    2 1
     2    1   37 1
     3    1   38 1
     4    1   39 1
     5    2    6 1
     6    2    3 1
     7    3    4 2
     8    3   40 1
     9    4    5 1
    10    4    7 1
    11    5    6 2
    12    5   41 1
    13    7   36 ar
    14    7    8 ar
    15    8    9 ar
    16    8   42 1
    17    9   19 1
    18    9   10 ar
    19   10   11 1
    20   10   35 ar
    21   11   12 2
    22   11   43 1
    23   12   13 1
    24   12   44 1
    25   13   18 ar
    26   13   14 ar
    27   14   15 ar
    28   14   45 1
    29   15   16 ar
    30   15   46 1
    31   16   17 ar
    32   16   21 1
    33   17   18 ar
    34   17   47 1
    35   18   19 1
    36   19   20 2
    37   21   22 1
    38   22   23 2
    39   22   24 2
    40   22   25 1
    41   25   26 1
    42   25   27 1
    43   26   48 1
    44   26   49 1
    45   26   50 1
    46   27   28 1
    47   27   51 1
    48   27   52 1
    49   28   29 1
    50   28   34 1
    51   28   30 1
    52   30   31 1
    53   30   53 1
    54   30   54 1
    55   31   32 1
    56   32   33 1
    57   32   55 1
    58   32   56 1
    59   33   34 1
    60   33   57 1
    61   33   58 1
    62   35   36 ar
    63   36   59 1
@<TRIPOS>MOLECULE
ZINC72105034
   70    73     0     0     0
SMALL
USER_CHARGES

@<TRIPOS>ATOM
      1 C1         -3.0465   -3.1127   14.8741 C.3       1 <0>        -0.1892
      2 C2         -3.2466   -2.2549   13.6230 C.3       1 <0>        -0.0108
      3 N1         -4.1264   -2.9600   12.6814 N.4       1 <0>        -0.3829
      4 C3         -3.4647   -4.1874   12.2214 C.3       1 <0>        -0.0274
      5 C4         -4.4254   -4.9810   11.3297 C.3       1 <0>         0.1010
      6 N2         -4.8919   -4.1005   10.2474 N.pl3     1 <0>        -0.6456
      7 C5         -5.4217   -2.7770   10.6103 C.3       1 <0>         0.1015
      8 C6         -4.4140   -2.0875   11.5359 C.3       1 <0>        -0.0220
      9 C7         -4.8337   -4.5106    8.9106 C.ar      1 <0>         0.1766
     10 C8         -4.2262   -5.7148    8.5795 C.ar      1 <0>        -0.1629
     11 C9         -4.1692   -6.1195    7.2606 C.ar      1 <0>        -0.0646
     12 C10        -4.7193   -5.3226    6.2653 C.ar      1 <0>         0.1310
     13 C11        -5.3268   -4.1185    6.5964 C.ar      1 <0>        -0.1041
     14 C12        -5.3885   -3.7162    7.9158 C.ar      1 <0>        -0.1629
     15 N3         -4.6611   -5.7330    4.9274 N.pl3     1 <0>        -0.6533
     16 C13        -4.7431   -7.0808    4.6114 C.ar      1 <0>         0.4484
     17 C14        -4.5642   -7.5111    3.2990 C.ar      1 <0>        -0.3232
     18 C15        -4.6563   -8.8727    3.0342 C.ar      1 <0>         0.4562
     19 N4         -4.9104   -9.7105    4.0371 N.ar      1 <0>        -0.5358
     20 C16        -5.0737   -9.2649    5.2660 C.ar      1 <0>         0.3663
     21 N5         -4.9887   -7.9832    5.5591 N.ar      1 <0>        -0.5884
     22 N6         -4.4859   -9.3527    1.7400 N.am      1 <0>        -0.5513
     23 C17        -4.0993   -8.4367    0.6640 C.3       1 <0>         0.0633
     24 C18        -4.6764  -10.6605    1.4758 C.2       1 <0>         0.6965
     25 O1         -4.9972  -11.4206    2.3688 O.2       1 <0>        -0.4771
     26 N7         -4.5113  -11.1256    0.2217 N.am      1 <0>        -0.6806
     27 C19        -4.5933  -12.5005   -0.0317 C.ar      1 <0>         0.2488
     28 C20        -3.5635  -13.1459   -0.7035 C.ar      1 <0>        -0.1156
     29 C21        -3.6457  -14.5077   -0.9540 C.ar      1 <0>         0.1985
     30 C22        -4.7561  -15.2246   -0.5342 C.ar      1 <0>        -0.2856
     31 C23        -5.7851  -14.5810    0.1368 C.ar      1 <0>         0.1981
     32 C24        -5.7020  -13.2205    0.3937 C.ar      1 <0>        -0.0913
     33 Cl1        -6.9867  -12.4166    1.2405 Cl        1 <0>        -0.0174
     34 O2         -6.8731  -15.2849    0.5478 O.3       1 <0>        -0.2934
     35 C25        -6.8895  -16.6834    0.2548 C.3       1 <0>         0.0217
     36 O3         -2.6377  -15.1397   -1.6116 O.3       1 <0>        -0.2949
     37 C26        -2.7887  -16.5430   -1.8355 C.3       1 <0>         0.0219
     38 Cl2        -2.1738  -12.2486   -1.2302 Cl        1 <0>        -0.0383
     39 H1         -2.3937   -2.5895   15.5727 H         1 <0>         0.1068
     40 H2         -4.0114   -3.2967   15.3466 H         1 <0>         0.0809
     41 H3         -2.5919   -4.0630   14.5941 H         1 <0>         0.0805
     42 H4         -3.7012   -1.3046   13.9030 H         1 <0>         0.1310
     43 H5         -2.2817   -2.0709   13.1505 H         1 <0>         0.1281
     44 H6         -2.5717   -3.9277   11.6528 H         1 <0>         0.1321
     45 H7         -3.1838   -4.7935   13.0827 H         1 <0>         0.1410
     46 H8         -3.9058   -5.8399   10.9049 H         1 <0>         0.1268
     47 H9         -5.2773   -5.3195   11.9194 H         1 <0>         0.0863
     48 H10        -5.5608   -2.1788    9.7098 H         1 <0>         0.1256
     49 H11        -6.3742   -2.8930   11.1273 H         1 <0>         0.0858
     50 H12        -4.8326   -1.1462   11.8921 H         1 <0>         0.1394
     51 H13        -3.4923   -1.8913   10.9881 H         1 <0>         0.1318
     52 H14        -3.7980   -6.3344    9.3535 H         1 <0>         0.1245
     53 H15        -3.6964   -7.0558    7.0031 H         1 <0>         0.1406
     54 H16        -5.7546   -3.4987    5.8223 H         1 <0>         0.1287
     55 H17        -5.8648   -2.7819    8.1738 H         1 <0>         0.1249
     56 H18        -4.5634   -5.0745    4.2219 H         1 <0>         0.4207
     57 H19        -4.3595   -6.8053    2.5076 H         1 <0>         0.1461
     58 H20        -5.2787   -9.9712    6.0569 H         1 <0>         0.2006
     59 H21        -3.0123   -8.3941    0.5961 H         1 <0>         0.0784
     60 H22        -4.5087   -8.7932   -0.2812 H         1 <0>         0.0834
     61 H23        -4.4893   -7.4413    0.8765 H         1 <0>         0.0916
     62 H24        -4.3356  -10.5081   -0.5055 H         1 <0>         0.4126
     63 H25        -4.8197  -16.2847   -0.7302 H         1 <0>         0.1546
     64 H26        -7.8108  -17.1238    0.6364 H         1 <0>         0.1096
     65 H27        -6.8368  -16.8293   -0.8241 H         1 <0>         0.0610
     66 H28        -6.0336  -17.1640    0.7287 H         1 <0>         0.0609
     67 H29        -3.6841  -16.7217   -2.4308 H         1 <0>         0.0613
     68 H30        -1.9165  -16.9218   -2.3683 H         1 <0>         0.1099
     69 H31        -2.8806  -17.0558   -0.8781 H         1 <0>         0.0610
     70 H32        -4.9899   -3.1998   13.1451 H         1 <0>         0.4221
@<TRIPOS>BOND
     1    1    2 1
     2    1   39 1
     3    1   40 1
     4    1   41 1
     5    2    3 1
     6    2   42 1
     7    2   43 1
     8    3    8 1
     9    3    4 1
    10    3   70 1
    11    4    5 1
    12    4   44 1
    13    4   45 1
    14    5    6 1
    15    5   46 1
    16    5   47 1
    17    6    7 1
    18    6    9 1
    19    7    8 1
    20    7   48 1
    21    7   49 1
    22    8   50 1
    23    8   51 1
    24    9   14 ar
    25    9   10 ar
    26   10   11 ar
    27   10   52 1
    28   11   12 ar
    29   11   53 1
    30   12   13 ar
    31   12   15 1
    32   13   14 ar
    33   13   54 1
    34   14   55 1
    35   15   16 1
    36   15   56 1
    37   16   21 ar
    38   16   17 ar
    39   17   18 ar
    40   17   57 1
    41   18   19 ar
    42   18   22 1
    43   19   20 ar
    44   20   21 ar
    45   20   58 1
    46   22   23 1
    47   22   24 am
    48   23   59 1
    49   23   60 1
    50   23   61 1
    51   24   25 2
    52   24   26 am
    53   26   27 1
    54   26   62 1
    55   27   32 ar
    56   27   28 ar
    57   28   29 ar
    58   28   38 1
    59   29   30 ar
    60   29   36 1
    61   30   31 ar
    62   30   63 1
    63   31   32 ar
    64   31   34 1
    65   32   33 1
    66   34   35 1
    67   35   64 1
    68   35   65 1
    69   35   66 1
    70   36   37 1
    71   37   67 1
    72   37   68 1
    73   37   69 1
@<TRIPOS>MOLECULE
ZINC72105034
   69    72     0     0     0
SMALL
USER_CHARGES

@<TRIPOS>ATOM
      1 C1         -3.4378   -3.9375   14.6684 C.3       1 <0>        -0.1502
      2 C2         -3.5006   -3.0159   13.4488 C.3       1 <0>         0.0503
      3 N1         -4.3406   -3.6313   12.4127 N.3       1 <0>        -0.5378
      4 C3         -3.7251   -4.8621   11.8984 C.3       1 <0>         0.0363
      5 C4         -4.7086   -5.5666   10.9578 C.3       1 <0>         0.1266
      6 N2         -5.1378   -4.6085    9.9278 N.pl3     1 <0>        -0.6321
      7 C5         -5.6391   -3.2963   10.3636 C.3       1 <0>         0.1276
      8 C6         -4.6190   -2.6811   11.3275 C.3       1 <0>         0.0396
      9 C7         -5.0714   -4.9369    8.5689 C.ar      1 <0>         0.2080
     10 C8         -4.4894   -6.1336    8.1714 C.ar      1 <0>        -0.1806
     11 C9         -4.4244   -6.4578    6.8309 C.ar      1 <0>        -0.0579
     12 C10        -4.9408   -5.5873    5.8801 C.ar      1 <0>         0.0956
     13 C11        -5.5227   -4.3907    6.2776 C.ar      1 <0>        -0.0967
     14 C12        -5.5926   -4.0689    7.6185 C.ar      1 <0>        -0.1814
     15 N3         -4.8743   -5.9160    4.5202 N.pl3     1 <0>        -0.6480
     16 C13        -4.9857   -7.2392    4.1204 C.ar      1 <0>         0.4532
     17 C14        -4.7996   -7.5924    2.7862 C.ar      1 <0>        -0.3285
     18 C15        -4.9221   -8.9324    2.4366 C.ar      1 <0>         0.4515
     19 N4         -5.2108   -9.8235    3.3827 N.ar      1 <0>        -0.5423
     20 C16        -5.3796   -9.4503    4.6347 C.ar      1 <0>         0.3655
     21 N5         -5.2667   -8.1917    5.0075 N.ar      1 <0>        -0.5828
     22 N6         -4.7461   -9.3361    1.1173 N.am      1 <0>        -0.5515
     23 C17        -4.3221   -8.3659    0.1048 C.3       1 <0>         0.0649
     24 C18        -4.9656  -10.6198    0.7705 C.2       1 <0>         0.6963
     25 O1         -5.3174  -11.4249    1.6108 O.2       1 <0>        -0.4774
     26 N7         -4.7950  -11.0110   -0.5080 N.am      1 <0>        -0.6824
     27 C19        -4.9079  -12.3651   -0.8468 C.ar      1 <0>         0.2515
     28 C20        -3.8855  -12.9943   -1.5448 C.ar      1 <0>        -0.1156
     29 C21        -3.9983  -14.3355   -1.8800 C.ar      1 <0>         0.1969
     30 C22        -5.1319  -15.0480   -1.5188 C.ar      1 <0>        -0.2867
     31 C23        -6.1535  -14.4206   -0.8218 C.ar      1 <0>         0.1972
     32 C24        -6.0399  -13.0811   -0.4802 C.ar      1 <0>        -0.0912
     33 Cl1        -7.3156  -12.2980    0.3991 Cl        1 <0>        -0.0151
     34 O2         -7.2642  -15.1202   -0.4683 O.3       1 <0>        -0.2933
     35 C25        -7.3116  -16.4972   -0.8473 C.3       1 <0>         0.0224
     36 O3         -2.9975  -14.9516   -2.5633 O.3       1 <0>        -0.2955
     37 C26        -3.1804  -16.3341   -2.8753 C.3       1 <0>         0.0225
     38 Cl2        -2.4668  -12.1023   -1.9981 Cl        1 <0>        -0.0388
     39 H1         -2.8146   -3.4808   15.4373 H         1 <0>         0.0601
     40 H2         -4.4435   -4.0912   15.0599 H         1 <0>         0.0642
     41 H3         -3.0108   -4.8971   14.3771 H         1 <0>         0.0548
     42 H4         -3.9276   -2.0563   13.7401 H         1 <0>         0.0754
     43 H5         -2.4950   -2.8622   13.0574 H         1 <0>         0.0324
     44 H6         -2.8150   -4.6131   11.3528 H         1 <0>         0.0373
     45 H7         -3.4816   -5.5223   12.7308 H         1 <0>         0.0881
     46 H8         -4.2176   -6.4171   10.4850 H         1 <0>         0.0867
     47 H9         -5.5752   -5.9086   11.5236 H         1 <0>         0.0692
     48 H10        -5.7633   -2.6458    9.4978 H         1 <0>         0.0853
     49 H11        -6.5952   -3.4200   10.8723 H         1 <0>         0.0688
     50 H12        -5.0237   -1.7596   11.7460 H         1 <0>         0.0847
     51 H13        -3.6964   -2.4625   10.7899 H         1 <0>         0.0375
     52 H14        -4.0875   -6.8104    8.9108 H         1 <0>         0.1239
     53 H15        -3.9715   -7.3882    6.5217 H         1 <0>         0.1333
     54 H16        -5.9244   -3.7138    5.5381 H         1 <0>         0.1213
     55 H17        -6.0491   -3.1403    7.9278 H         1 <0>         0.1240
     56 H18        -4.7504   -5.2181    3.8580 H         1 <0>         0.4169
     57 H19        -4.5666   -6.8448    2.0425 H         1 <0>         0.1434
     58 H20        -5.6130  -10.1984    5.3779 H         1 <0>         0.1992
     59 H21        -3.2335   -8.3472    0.0528 H         1 <0>         0.0766
     60 H22        -4.7274   -8.6529   -0.8655 H         1 <0>         0.0808
     61 H23        -4.6901   -7.3757    0.3737 H         1 <0>         0.0918
     62 H24        -4.5941  -10.3546   -1.1933 H         1 <0>         0.4120
     63 H25        -5.2193  -16.0921   -1.7808 H         1 <0>         0.1535
     64 H26        -7.2478  -16.5777   -1.9325 H         1 <0>         0.0599
     65 H27        -6.4745  -17.0279   -0.3938 H         1 <0>         0.0605
     66 H28        -8.2486  -16.9363   -0.5049 H         1 <0>         0.1088
     67 H29        -3.2981  -16.9023   -1.9526 H         1 <0>         0.0606
     68 H30        -4.0718  -16.4527   -3.4913 H         1 <0>         0.0604
     69 H31        -2.3108  -16.7017   -3.4200 H         1 <0>         0.1087
@<TRIPOS>BOND
     1    1    2 1
     2    1   39 1
     3    1   40 1
     4    1   41 1
     5    2    3 1
     6    2   42 1
     7    2   43 1
     8    3    8 1
     9    3    4 1
    10    4    5 1
    11    4   44 1
    12    4   45 1
    13    5    6 1
    14    5   46 1
    15    5   47 1
    16    6    7 1
    17    6    9 1
    18    7    8 1
    19    7   48 1
    20    7   49 1
    21    8   50 1
    22    8   51 1
    23    9   14 ar
    24    9   10 ar
    25   10   11 ar
    26   10   52 1
    27   11   12 ar
    28   11   53 1
    29   12   13 ar
    30   12   15 1
    31   13   14 ar
    32   13   54 1
    33   14   55 1
    34   15   16 1
    35   15   56 1
    36   16   21 ar
    37   16   17 ar
    38   17   18 ar
    39   17   57 1
    40   18   19 ar
    41   18   22 1
    42   19   20 ar
    43   20   21 ar
    44   20   58 1
    45   22   23 1
    46   22   24 am
    47   23   59 1
    48   23   60 1
    49   23   61 1
    50   24   25 2
    51   24   26 am
    52   26   27 1
    53   26   62 1
    54   27   32 ar
    55   27   28 ar
    56   28   29 ar
    57   28   38 1
    58   29   30 ar
    59   29   36 1
    60   30   31 ar
    61   30   63 1
    62   31   32 ar
    63   31   34 1
    64   32   33 1
    65   34   35 1
    66   35   64 1
    67   35   65 1
    68   35   66 1
    69   36   37 1
    70   37   67 1
    71   37   68 1
    72   37   69 1
@<TRIPOS>MOLECULE
ZINC03938688
   39    41     0     0     0
SMALL
USER_CHARGES

@<TRIPOS>ATOM
      1 C1         -0.0095    1.3826    0.0704 C.ar      1 <0>        -0.0343
      2 C2          0.5587    1.0580   -1.1482 C.ar      1 <0>        -0.1609
      3 C3          1.7655    0.3862   -1.1955 C.ar      1 <0>         0.1753
      4 C4          2.4129    0.0342   -0.0053 C.ar      1 <0>        -0.1954
      5 C5          1.8304    0.3669    1.2233 C.ar      1 <0>         0.1741
      6 C6          0.6231    1.0388    1.2514 C.ar      1 <0>        -0.1610
      7 F1          2.4463    0.0317    2.3781 F         1 <0>        -0.1212
      8 C7          3.6999   -0.6827   -0.0456 C.2       1 <0>         0.6210
      9 O1          4.7383   -0.0615   -0.1600 O.2       1 <0>        -0.4669
     10 N1          3.7255   -2.0272    0.0446 N.am      1 <0>        -0.3962
     11 C8          4.8314   -2.8210    0.1249 C.2       1 <0>         0.5948
     12 N2          4.4249   -4.0694    0.1979 N.2       1 <0>        -0.5873
     13 C9          3.0869   -4.1118    0.1675 C.2       1 <0>         0.5191
     14 N3          2.6183   -2.8904    0.0808 N.2       1 <0>        -0.3480
     15 N4          2.3148   -5.2702    0.2247 N.pl3     1 <0>        -0.6226
     16 C10         2.9267   -6.5079    0.4407 C.ar      1 <0>         0.2365
     17 C11         4.1432   -6.5760    1.1080 C.ar      1 <0>        -0.1584
     18 C12         4.7450   -7.8008    1.3202 C.ar      1 <0>         0.0098
     19 C13         4.1379   -8.9586    0.8692 C.ar      1 <0>        -0.7033
     20 C14         2.9269   -8.8944    0.2046 C.ar      1 <0>         0.0112
     21 C15         2.3170   -7.6734   -0.0063 C.ar      1 <0>        -0.1777
     22 S1          4.9094  -10.5191    1.1415 S.o2      1 <0>         2.7034
     23 O2          4.4084  -11.3993    0.1448 O.2       1 <0>        -0.9656
     24 O3          6.2977  -10.2630    1.3036 O.2       1 <0>        -0.9650
     25 N5          4.3605  -11.0895    2.5960 N.pl3     1 <0>        -1.2510
     26 N6          6.1422   -2.3912    0.1281 N.pl3     1 <0>        -0.7911
     27 F2          2.3185    0.0697   -2.3868 F         1 <0>        -0.1201
     28 H1         -0.9506    1.9116    0.0998 H         1 <0>         0.1546
     29 H2          0.0576    1.3300   -2.0654 H         1 <0>         0.1549
     30 H3          0.1721    1.2963    2.1984 H         1 <0>         0.1546
     31 H4          1.3525   -5.2176    0.1147 H         1 <0>         0.4325
     32 H5          4.6180   -5.6722    1.4601 H         1 <0>         0.1556
     33 H6          5.6909   -7.8544    1.8385 H         1 <0>         0.1456
     34 H7          2.4556   -9.8005   -0.1466 H         1 <0>         0.1475
     35 H8          1.3691   -7.6243   -0.5215 H         1 <0>         0.1387
     36 H9          3.7284  -10.5673    3.1145 H         1 <0>         0.4165
     37 H10         4.6709  -11.9458    2.9296 H         1 <0>         0.4206
     38 H11         6.3422   -1.4439    0.0694 H         1 <0>         0.4292
     39 H12         6.8640   -3.0364    0.1890 H         1 <0>         0.4303
@<TRIPOS>BOND
     1    1    6 ar
     2    1    2 ar
     3    1   28 1
     4    2    3 ar
     5    2   29 1
     6    3    4 ar
     7    3   27 1
     8    4    5 ar
     9    4    8 1
    10    5    6 ar
    11    5    7 1
    12    6   30 1
    13    8    9 2
    14    8   10 am
    15   10   14 1
    16   10   11 1
    17   11   12 2
    18   11   26 1
    19   12   13 1
    20   13   14 2
    21   13   15 1
    22   15   16 1
    23   15   31 1
    24   16   21 ar
    25   16   17 ar
    26   17   18 ar
    27   17   32 1
    28   18   19 ar
    29   18   33 1
    30   19   20 ar
    31   19   22 1
    32   20   21 ar
    33   20   34 1
    34   21   35 1
    35   22   23 2
    36   22   24 2
    37   22   25 1
    38   25   36 1
    39   25   37 1
    40   26   38 1
    41   26   39 1
@<TRIPOS>MOLECULE
ZINC16697102
   68    71     0     0     0
SMALL
USER_CHARGES

@<TRIPOS>ATOM
      1 C1          0.1414    1.0953    0.0252 C.3       1 <0>        -0.1879
      2 C2          0.0344   -0.4077    0.2904 C.3       1 <0>        -0.0179
      3 N1         -1.3805   -0.7845    0.4095 N.4       1 <0>        -0.3831
      4 C3         -1.4799   -2.1986    0.7946 C.3       1 <0>        -0.0114
      5 C4         -0.8914   -2.3887    2.1940 C.3       1 <0>        -0.1507
      6 C5         -0.9950   -3.8615    2.5951 C.3       1 <0>         0.0609
      7 O1         -0.4452   -4.0391    3.9021 O.3       1 <0>        -0.3065
      8 C6         -0.4595   -5.2979    4.4111 C.ar      1 <0>         0.1651
      9 C7         -0.9928   -6.3439    3.6526 C.ar      1 <0>        -0.2107
     10 C8         -1.0196   -7.6158    4.1389 C.ar      1 <0>        -0.0238
     11 C9         -0.5074   -7.8823    5.4144 C.ar      1 <0>        -0.2178
     12 C10         0.0354   -6.8287    6.1913 C.ar      1 <0>         0.2289
     13 C11         0.0571   -5.5307    5.6679 C.ar      1 <0>        -0.1455
     14 N2          0.5204   -7.1100    7.4103 N.ar      1 <0>        -0.5500
     15 C12         0.4909   -8.3384    7.8707 C.ar      1 <0>         0.3626
     16 N3         -0.0056   -9.3531    7.1820 N.ar      1 <0>        -0.5775
     17 C13        -0.5106   -9.1853    5.9662 C.ar      1 <0>         0.4884
     18 N4         -1.0254  -10.2523    5.2597 N.pl3     1 <0>        -0.5978
     19 C14        -1.0192  -11.5341    5.8239 C.2       1 <0>         0.2990
     20 C15        -0.5280  -11.8736    7.0950 C.2       1 <0>        -0.2355
     21 C16        -0.7031  -13.2037    7.2657 C.2       1 <0>         0.1068
     22 N5         -1.2824  -13.6919    6.1487 N.pl3     1 <0>        -0.4559
     23 H1         -1.5251  -14.6176    5.9907 H         1 <0>         0.4419
     24 N6         -1.4765  -12.6271    5.2595 N.2       1 <0>        -0.3116
     25 C17        -0.3191  -13.9996    8.4864 C.3       1 <0>        -0.0770
     26 C18        -1.4265  -13.9219    9.5056 C.2       1 <0>         0.5143
     27 O2         -2.4289  -13.2831    9.2644 O.2       1 <0>        -0.5002
     28 N7         -1.3030  -14.5622   10.6851 N.am      1 <0>        -0.6720
     29 C19        -2.2828  -14.4064   11.6717 C.ar      1 <0>         0.1711
     30 C20        -1.9219  -14.3818   13.0129 C.ar      1 <0>        -0.1532
     31 C21        -2.8902  -14.2274   13.9854 C.ar      1 <0>        -0.0700
     32 C22        -4.2191  -14.0976   13.6262 C.ar      1 <0>        -0.1667
     33 C23        -4.5833  -14.1215   12.2902 C.ar      1 <0>         0.1178
     34 C24        -3.6165  -14.2702   11.3118 C.ar      1 <0>        -0.1591
     35 F1         -5.8825  -13.9949   11.9421 F         1 <0>        -0.1354
     36 C25        -2.0519   -0.5800   -0.8810 C.3       1 <0>        -0.0098
     37 C26        -3.5535   -0.8247   -0.7191 C.3       1 <0>         0.0446
     38 O3         -4.1050    0.1610    0.1562 O.3       1 <0>        -0.5793
     39 H2          1.1903    1.3917    0.0323 H         1 <0>         0.1072
     40 H3         -0.2944    1.3246   -0.9472 H         1 <0>         0.0804
     41 H4         -0.3955    1.6404    0.8016 H         1 <0>         0.0817
     42 H5          0.4880   -0.9556   -0.5355 H         1 <0>         0.1307
     43 H6          0.5544   -0.6511    1.2170 H         1 <0>         0.1338
     44 H7         -2.5269   -2.5019    0.7965 H         1 <0>         0.1336
     45 H8         -0.9261   -2.8092    0.0814 H         1 <0>         0.1348
     46 H9          0.1556   -2.0854    2.1921 H         1 <0>         0.1011
     47 H10        -1.4452   -1.7781    2.9071 H         1 <0>         0.1012
     48 H11        -2.0419   -4.1648    2.5970 H         1 <0>         0.0752
     49 H12        -0.4411   -4.4721    1.8820 H         1 <0>         0.0757
     50 H13        -1.3888   -6.1408    2.6686 H         1 <0>         0.1349
     51 H14        -1.4346   -8.4154    3.5432 H         1 <0>         0.1334
     52 H15         0.4712   -4.7175    6.2456 H         1 <0>         0.1508
     53 H16         0.8901   -8.5298    8.8558 H         1 <0>         0.2027
     54 H17        -1.3916  -10.1149    4.3721 H         1 <0>         0.4252
     55 H18        -0.0885  -11.1933    7.8093 H         1 <0>         0.1852
     56 H19        -0.1563  -15.0401    8.2054 H         1 <0>         0.1142
     57 H20         0.5968  -13.5910    8.9133 H         1 <0>         0.1312
     58 H21        -0.5348  -15.1312   10.8499 H         1 <0>         0.4166
     59 H22        -0.8844  -14.4838   13.2950 H         1 <0>         0.1350
     60 H23        -2.6091  -14.2084   15.0280 H         1 <0>         0.1399
     61 H24        -4.9744  -13.9777   14.3888 H         1 <0>         0.1383
     62 H25        -3.8995  -14.2849   10.2696 H         1 <0>         0.1494
     63 H26        -1.8848    0.4425   -1.2196 H         1 <0>         0.1421
     64 H27        -1.6474   -1.2765   -1.6154 H         1 <0>         0.1431
     65 H28        -4.0394   -0.7588   -1.6926 H         1 <0>         0.0960
     66 H29        -3.7166   -1.8167   -0.2980 H         1 <0>         0.0707
     67 H30        -5.0389    0.0226    0.3657 H         1 <0>         0.4093
     68 H31        -1.8228   -0.2123    1.1131 H         1 <0>         0.4316
@<TRIPOS>BOND
     1    1    2 1
     2    1   39 1
     3    1   40 1
     4    1   41 1
     5    2    3 1
     6    2   42 1
     7    2   43 1
     8    3    4 1
     9    3   36 1
    10    3   68 1
    11    4    5 1
    12    4   44 1
    13    4   45 1
    14    5    6 1
    15    5   46 1
    16    5   47 1
    17    6    7 1
    18    6   48 1
    19    6   49 1
    20    7    8 1
    21    8   13 ar
    22    8    9 ar
    23    9   10 ar
    24    9   50 1
    25   10   11 ar
    26   10   51 1
    27   11   17 ar
    28   11   12 ar
    29   12   13 ar
    30   12   14 ar
    31   13   52 1
    32   14   15 ar
    33   15   16 ar
    34   15   53 1
    35   16   17 ar
    36   17   18 1
    37   18   19 1
    38   18   54 1
    39   19   24 2
    40   19   20 1
    41   20   21 2
    42   20   55 1
    43   21   22 1
    44   21   25 1
    45   22   23 1
    46   22   24 1
    47   25   26 1
    48   25   56 1
    49   25   57 1
    50   26   27 2
    51   26   28 am
    52   28   29 1
    53   28   58 1
    54   29   34 ar
    55   29   30 ar
    56   30   31 ar
    57   30   59 1
    58   31   32 ar
    59   31   60 1
    60   32   33 ar
    61   32   61 1
    62   33   34 ar
    63   33   35 1
    64   34   62 1
    65   36   37 1
    66   36   63 1
    67   36   64 1
    68   37   38 1
    69   37   65 1
    70   37   66 1
    71   38   67 1
@<TRIPOS>MOLECULE
ZINC16697102
   68    71     0     0     0
SMALL
USER_CHARGES

@<TRIPOS>ATOM
      1 C1          0.1009    1.0895    0.0671 C.3       1 <0>        -0.1880
      2 C2          0.0005   -0.4150    0.3267 C.3       1 <0>        -0.0178
      3 N1         -1.4127   -0.7982    0.4447 N.4       1 <0>        -0.3831
      4 C3         -1.5060   -2.2142    0.8244 C.3       1 <0>        -0.0114
      5 C4         -0.9163   -2.4070    2.2230 C.3       1 <0>        -0.1510
      6 C5         -1.0135   -3.8818    2.6185 C.3       1 <0>         0.0610
      7 O1         -0.4626   -4.0619    3.9247 O.3       1 <0>        -0.3058
      8 C6         -0.4714   -5.3227    4.4290 C.ar      1 <0>         0.1652
      9 C7         -1.0003   -6.3681    3.6667 C.ar      1 <0>        -0.2079
     10 C8         -1.0216   -7.6420    4.1481 C.ar      1 <0>        -0.0271
     11 C9         -0.5079   -7.9111    5.4225 C.ar      1 <0>        -0.2157
     12 C10         0.0306   -6.8581    6.2032 C.ar      1 <0>         0.2279
     13 C11         0.0466   -5.5580    5.6848 C.ar      1 <0>        -0.1434
     14 N2          0.5172   -7.1419    7.4211 N.ar      1 <0>        -0.5462
     15 C12         0.4930   -8.3722    7.8768 C.ar      1 <0>         0.3627
     16 N3          0.0007   -9.3864    7.1844 N.ar      1 <0>        -0.5729
     17 C13        -0.5054   -9.2161    5.9694 C.ar      1 <0>         0.4842
     18 N4         -1.0159  -10.2829    5.2588 N.pl3     1 <0>        -0.6133
     19 C14        -1.0041  -11.5601    5.8152 C.2       1 <0>         0.2975
     20 C15        -0.5278  -11.8985    7.0451 C.2       1 <0>        -0.2522
     21 C16        -0.7053  -13.2747    7.2096 C.2       1 <0>         0.0931
     22 N5         -1.2647  -13.7522    6.1276 N.2       1 <0>        -0.2441
     23 N6         -1.4709  -12.6946    5.2325 N.pl3     1 <0>        -0.4898
     24 H1         -1.8732  -12.7611    4.3523 H         1 <0>         0.4364
     25 C17        -0.3175  -14.0738    8.4270 C.3       1 <0>        -0.0571
     26 C18        -1.5188  -14.8275    8.9368 C.2       1 <0>         0.5153
     27 O2         -2.5849  -14.7257    8.3676 O.2       1 <0>        -0.4982
     28 N7         -1.4084  -15.6146   10.0253 N.am      1 <0>        -0.6749
     29 C19        -2.5443  -16.2321   10.5602 C.ar      1 <0>         0.1739
     30 C20        -2.6655  -16.3952   11.9344 C.ar      1 <0>        -0.1553
     31 C21        -3.7876  -17.0044   12.4607 C.ar      1 <0>        -0.0709
     32 C22        -4.7909  -17.4530   11.6216 C.ar      1 <0>        -0.1690
     33 C23        -4.6742  -17.2924   10.2511 C.ar      1 <0>         0.1173
     34 C24        -3.5547  -16.6775    9.7191 C.ar      1 <0>        -0.1594
     35 F1         -5.6558  -17.7320    9.4336 F         1 <0>        -0.1360
     36 C25        -2.0854   -0.5918   -0.8449 C.3       1 <0>        -0.0099
     37 C26        -3.5858   -0.8435   -0.6835 C.3       1 <0>         0.0446
     38 O3         -4.1414    0.1365    0.1957 O.3       1 <0>        -0.5792
     39 H2          1.1486    1.3904    0.0751 H         1 <0>         0.1074
     40 H3         -0.3361    1.3206   -0.9043 H         1 <0>         0.0805
     41 H4         -0.4380    1.6293    0.8457 H         1 <0>         0.0817
     42 H5          0.4562   -0.9578   -0.5014 H         1 <0>         0.1308
     43 H6          0.5217   -0.6596    1.2522 H         1 <0>         0.1337
     44 H7         -2.5517   -2.5220    0.8255 H         1 <0>         0.1335
     45 H8         -0.9498   -2.8197    0.1089 H         1 <0>         0.1347
     46 H9          0.1294   -2.0993    2.2220 H         1 <0>         0.1014
     47 H10        -1.4725   -1.8015    2.9385 H         1 <0>         0.1015
     48 H11        -2.0591   -4.1896    2.6196 H         1 <0>         0.0752
     49 H12        -0.4572   -4.4873    1.9030 H         1 <0>         0.0757
     50 H13        -1.3975   -6.1630    2.6836 H         1 <0>         0.1354
     51 H14        -1.4333   -8.4411    3.5496 H         1 <0>         0.1313
     52 H15         0.4574   -4.7453    6.2654 H         1 <0>         0.1520
     53 H16         0.8932   -8.5656    8.8611 H         1 <0>         0.2055
     54 H17        -1.3830  -10.1437    4.3718 H         1 <0>         0.4209
     55 H18        -0.0902  -11.2232    7.7655 H         1 <0>         0.1880
     56 H19         0.4693  -14.7803    8.1624 H         1 <0>         0.1181
     57 H20         0.0452  -13.4002    9.2034 H         1 <0>         0.1229
     58 H21        -0.5415  -15.7530   10.4378 H         1 <0>         0.4158
     59 H22        -1.8824  -16.0460   12.5909 H         1 <0>         0.1343
     60 H23        -3.8814  -17.1310   13.5291 H         1 <0>         0.1388
     61 H24        -5.6670  -17.9297   12.0358 H         1 <0>         0.1372
     62 H25        -3.4650  -16.5484    8.6506 H         1 <0>         0.1513
     63 H26        -1.9227    0.4328   -1.1796 H         1 <0>         0.1424
     64 H27        -1.6780   -1.2838   -1.5820 H         1 <0>         0.1432
     65 H28        -4.0723   -0.7760   -1.6566 H         1 <0>         0.0961
     66 H29        -3.7446   -1.8378   -0.2661 H         1 <0>         0.0704
     67 H30        -5.0746   -0.0067    0.4048 H         1 <0>         0.4093
     68 H31        -1.8573   -0.2307    1.1505 H         1 <0>         0.4316
@<TRIPOS>BOND
     1    1    2 1
     2    1   39 1
     3    1   40 1
     4    1   41 1
     5    2    3 1
     6    2   42 1
     7    2   43 1
     8    3    4 1
     9    3   36 1
    10    3   68 1
    11    4    5 1
    12    4   44 1
    13    4   45 1
    14    5    6 1
    15    5   46 1
    16    5   47 1
    17    6    7 1
    18    6   48 1
    19    6   49 1
    20    7    8 1
    21    8   13 ar
    22    8    9 ar
    23    9   10 ar
    24    9   50 1
    25   10   11 ar
    26   10   51 1
    27   11   17 ar
    28   11   12 ar
    29   12   13 ar
    30   12   14 ar
    31   13   52 1
    32   14   15 ar
    33   15   16 ar
    34   15   53 1
    35   16   17 ar
    36   17   18 1
    37   18   19 1
    38   18   54 1
    39   19   23 1
    40   19   20 2
    41   20   21 1
    42   20   55 1
    43   21   22 2
    44   21   25 1
    45   22   23 1
    46   23   24 1
    47   25   26 1
    48   25   56 1
    49   25   57 1
    50   26   27 2
    51   26   28 am
    52   28   29 1
    53   28   58 1
    54   29   34 ar
    55   29   30 ar
    56   30   31 ar
    57   30   59 1
    58   31   32 ar
    59   31   60 1
    60   32   33 ar
    61   32   61 1
    62   33   34 ar
    63   33   35 1
    64   34   62 1
    65   36   37 1
    66   36   63 1
    67   36   64 1
    68   37   38 1
    69   37   65 1
    70   37   66 1
    71   38   67 1
@<TRIPOS>MOLECULE
ZINC06718813
   46    49     0     0     0
SMALL
USER_CHARGES
3-[4-(3-amino-1H-indazol-4-yl)phenyl]-1-(2-fluoro-5-methyl-phenyl)urea
@<TRIPOS>ATOM
      1 C1          6.9492   -0.6708   -4.4566 C.3       1 <0>        -0.1151
      2 C2          7.3188   -0.0066   -3.1554 C.ar      1 <0>        -0.0747
      3 C3          8.6152   -0.0905   -2.6815 C.ar      1 <0>        -0.1060
      4 C4          8.9590    0.5169   -1.4879 C.ar      1 <0>        -0.1295
      5 C5          8.0061    1.2101   -0.7639 C.ar      1 <0>         0.0645
      6 C6          6.7020    1.2957   -1.2387 C.ar      1 <0>         0.1336
      7 C7          6.3607    0.6802   -2.4351 C.ar      1 <0>        -0.0953
      8 N1          5.7336    1.9963   -0.5085 N.am      1 <0>        -0.6783
      9 C8          4.4547    1.5712   -0.5040 C.2       1 <0>         0.7069
     10 O1          4.1265    0.6239   -1.1921 O.2       1 <0>        -0.5500
     11 N2          3.5395    2.1961    0.2631 N.am      1 <0>        -0.6801
     12 C9          2.2409    1.6865    0.3572 C.ar      1 <0>         0.1677
     13 C10         1.1632    2.5541    0.4899 C.ar      1 <0>        -0.1430
     14 C11        -0.1180    2.0545    0.5834 C.ar      1 <0>        -0.0892
     15 C12        -0.3326    0.6766    0.5442 C.ar      1 <0>        -0.0682
     16 C13         0.7509   -0.1919    0.4104 C.ar      1 <0>        -0.0779
     17 C14         2.0300    0.3132    0.3174 C.ar      1 <0>        -0.1142
     18 C15        -1.7083    0.1367    0.6449 C.ar      1 <0>         0.0376
     19 C16        -2.0347   -0.7648    1.6483 C.ar      1 <0>        -0.1557
     20 C17        -3.3230   -1.2675    1.7456 C.ar      1 <0>        -0.0592
     21 C18        -4.2968   -0.8911    0.8473 C.ar      1 <0>        -0.1529
     22 C19        -3.9969    0.0086   -0.1734 C.ar      1 <0>         0.1547
     23 C20        -2.6946    0.5292   -0.2801 C.ar      1 <0>        -0.1858
     24 C21        -2.7034    1.4283   -1.4324 C.2       1 <0>         0.3642
     25 N3         -3.9099    1.4169   -1.9352 N.2       1 <0>        -0.3205
     26 N4         -4.7292    0.5606   -1.1926 N.pl3     1 <0>        -0.5119
     27 H1         -5.6955    0.3797   -1.3759 H         1 <0>         0.4473
     28 N5         -1.6172    2.1667   -1.9108 N.pl3     1 <0>        -0.8360
     29 F1          8.3418    1.8036    0.4023 F         1 <0>        -0.1384
     30 H2          6.6188   -1.6912   -4.2627 H         1 <0>         0.0755
     31 H3          6.1436   -0.1125   -4.9335 H         1 <0>         0.0695
     32 H4          7.8178   -0.6890   -5.1149 H         1 <0>         0.0704
     33 H5          9.3607   -0.6319   -3.2448 H         1 <0>         0.1352
     34 H6          9.9724    0.4496   -1.1204 H         1 <0>         0.1410
     35 H7          5.3477    0.7413   -2.8045 H         1 <0>         0.1523
     36 H8          5.9835    2.7876   -0.0061 H         1 <0>         0.4118
     37 H9          3.7818    2.9993    0.7499 H         1 <0>         0.4106
     38 H10         1.3298    3.6208    0.5203 H         1 <0>         0.1310
     39 H11        -0.9554    2.7293    0.6824 H         1 <0>         0.1315
     40 H12         0.5876   -1.2590    0.3794 H         1 <0>         0.1314
     41 H13         2.8692   -0.3587    0.2138 H         1 <0>         0.1391
     42 H14        -1.2822   -1.0738    2.3586 H         1 <0>         0.1292
     43 H15        -3.5651   -1.9655    2.5334 H         1 <0>         0.1325
     44 H16        -5.2951   -1.2940    0.9345 H         1 <0>         0.1278
     45 H17        -0.7342    2.0309   -1.5329 H         1 <0>         0.4118
     46 H18        -1.7465    2.8151   -2.6206 H         1 <0>         0.4050
@<TRIPOS>BOND
     1    1    2 1
     2    1   30 1
     3    1   31 1
     4    1   32 1
     5    2    7 ar
     6    2    3 ar
     7    3    4 ar
     8    3   33 1
     9    4    5 ar
    10    4   34 1
    11    5    6 ar
    12    5   29 1
    13    6    7 ar
    14    6    8 1
    15    7   35 1
    16    8    9 am
    17    8   36 1
    18    9   10 2
    19    9   11 am
    20   11   12 1
    21   11   37 1
    22   12   17 ar
    23   12   13 ar
    24   13   14 ar
    25   13   38 1
    26   14   15 ar
    27   14   39 1
    28   15   16 ar
    29   15   18 1
    30   16   17 ar
    31   16   40 1
    32   17   41 1
    33   18   23 ar
    34   18   19 ar
    35   19   20 ar
    36   19   42 1
    37   20   21 ar
    38   20   43 1
    39   21   22 ar
    40   21   44 1
    41   22   26 1
    42   22   23 ar
    43   23   24 1
    44   24   25 2
    45   24   28 1
    46   25   26 1
    47   26   27 1
    48   28   45 1
    49   28   46 1
@<TRIPOS>MOLECULE
ZINC03834198
   55    58     0     0     0
SMALL
USER_CHARGES

@<TRIPOS>ATOM
      1 C1          2.2102    1.3214   -1.5438 C.3       1 <0>        -0.0473
      2 N1          2.0302   -0.1310   -1.4177 N.4       1 <0>        -0.3861
      3 C2          2.8485   -0.8135   -2.4272 C.3       1 <0>        -0.0039
      4 C3          2.6029   -2.3220   -2.3537 C.3       1 <0>        -0.1426
      5 C4          2.9828   -2.8281   -0.9591 C.3       1 <0>        -0.0980
      6 C5          2.1768   -2.0570    0.0901 C.3       1 <0>        -0.1436
      7 C6          2.4382   -0.5583   -0.0740 C.3       1 <0>        -0.0065
      8 C7          2.6653   -4.3210   -0.8526 C.3       1 <0>         0.0553
      9 O1          3.1265   -4.8175    0.4056 O.3       1 <0>        -0.2959
     10 C8          2.9210   -6.1358    0.6612 C.ar      1 <0>         0.1621
     11 C9          2.2972   -6.9233   -0.2811 C.ar      1 <0>        -0.1791
     12 C10         2.0867   -8.2816   -0.0149 C.ar      1 <0>         0.2018
     13 C11         2.5192   -8.8246    1.2204 C.ar      1 <0>        -0.1784
     14 C12         3.1508   -8.0026    2.1612 C.ar      1 <0>        -0.1424
     15 C13         3.3512   -6.6812    1.8787 C.ar      1 <0>         0.1099
     16 O2          3.9702   -5.8850    2.7909 O.3       1 <0>        -0.3030
     17 C14         4.3854   -6.4992    4.0125 C.3       1 <0>         0.0198
     18 C15         2.2930  -10.2009    1.4605 C.ar      1 <0>         0.4667
     19 N2          1.6881  -10.9114    0.5174 N.ar      1 <0>        -0.5768
     20 C16         1.3012  -10.3606   -0.6222 C.ar      1 <0>         0.3478
     21 N3          1.4842   -9.0917   -0.8996 N.ar      1 <0>        -0.5414
     22 N4          2.6915  -10.7885    2.6441 N.pl3     1 <0>        -0.6296
     23 C17         2.5831  -12.1741    2.8088 C.ar      1 <0>         0.1376
     24 C18         2.4560  -12.9987    1.6992 C.ar      1 <0>        -0.1039
     25 C19         2.3491  -14.3660    1.8644 C.ar      1 <0>        -0.0732
     26 C20         2.3685  -14.9152    3.1341 C.ar      1 <0>        -0.0857
     27 C21         2.4949  -14.0974    4.2430 C.ar      1 <0>        -0.1007
     28 C22         2.6081  -12.7284    4.0841 C.ar      1 <0>         0.0686
     29 F1          2.7372  -11.9301    5.1664 F         1 <0>        -0.1332
     30 Br1         2.2212  -16.7875    3.3546 Br        1 <0>        -0.0295
     31 H1          3.2589    1.5727   -1.3848 H         1 <0>         0.1219
     32 H2          1.9075    1.6398   -2.5414 H         1 <0>         0.1242
     33 H3          1.5979    1.8295   -0.7989 H         1 <0>         0.1242
     34 H4          2.5792   -0.4499   -3.4189 H         1 <0>         0.1343
     35 H5          3.9024   -0.6078   -2.2397 H         1 <0>         0.1306
     36 H6          1.5493   -2.5288   -2.5414 H         1 <0>         0.0934
     37 H7          3.2127   -2.8271   -3.1028 H         1 <0>         0.1176
     38 H8          4.0478   -2.6678   -0.7908 H         1 <0>         0.1030
     39 H9          1.1143   -2.2583   -0.0469 H         1 <0>         0.0893
     40 H10         2.4820   -2.3726    1.0878 H         1 <0>         0.1210
     41 H11         3.5008   -0.3580    0.0634 H         1 <0>         0.1299
     42 H12         1.8660   -0.0063    0.6716 H         1 <0>         0.1325
     43 H13         1.5883   -4.4698   -0.9292 H         1 <0>         0.0742
     44 H14         3.1645   -4.8571   -1.6597 H         1 <0>         0.0787
     45 H15         1.9724   -6.4960   -1.2182 H         1 <0>         0.1540
     46 H16         3.4818   -8.4122    3.1042 H         1 <0>         0.1414
     47 H17         4.8638   -5.7549    4.6491 H         1 <0>         0.1093
     48 H18         3.5165   -6.9116    4.5254 H         1 <0>         0.0597
     49 H19         5.0925   -7.2996    3.7947 H         1 <0>         0.0600
     50 H20         0.8133  -10.9840   -1.3569 H         1 <0>         0.2036
     51 H21         3.0467  -10.2411    3.3618 H         1 <0>         0.4241
     52 H22         2.4404  -12.5714    0.7074 H         1 <0>         0.1818
     53 H23         2.2499  -15.0072    1.0010 H         1 <0>         0.1463
     54 H24         2.5094  -14.5289    5.2329 H         1 <0>         0.1515
     55 H25         1.0589   -0.3624   -1.5626 H         1 <0>         0.4246
@<TRIPOS>BOND
     1    1    2 1
     2    1   31 1
     3    1   32 1
     4    1   33 1
     5    2    7 1
     6    2    3 1
     7    2   55 1
     8    3    4 1
     9    3   34 1
    10    3   35 1
    11    4    5 1
    12    4   36 1
    13    4   37 1
    14    5    6 1
    15    5    8 1
    16    5   38 1
    17    6    7 1
    18    6   39 1
    19    6   40 1
    20    7   41 1
    21    7   42 1
    22    8    9 1
    23    8   43 1
    24    8   44 1
    25    9   10 1
    26   10   15 ar
    27   10   11 ar
    28   11   12 ar
    29   11   45 1
    30   12   21 ar
    31   12   13 ar
    32   13   14 ar
    33   13   18 ar
    34   14   15 ar
    35   14   46 1
    36   15   16 1
    37   16   17 1
    38   17   47 1
    39   17   48 1
    40   17   49 1
    41   18   19 ar
    42   18   22 1
    43   19   20 ar
    44   20   21 ar
    45   20   50 1
    46   22   23 1
    47   22   51 1
    48   23   28 ar
    49   23   24 ar
    50   24   25 ar
    51   24   52 1
    52   25   26 ar
    53   25   53 1
    54   26   27 ar
    55   26   30 1
    56   27   28 ar
    57   27   54 1
    58   28   29 1
@<TRIPOS>MOLECULE
ZINC14806879
   29    31     0     0     0
SMALL
USER_CHARGES

@<TRIPOS>ATOM
      1 C1         -0.0173    1.4248    0.0099 C.3       1 <0>         0.0271
      2 O1          0.0021   -0.0041    0.0020 O.3       1 <0>        -0.3168
      3 C2         -1.2010   -0.6378    0.0101 C.ar      1 <0>         0.1024
      4 C3         -2.3765    0.1026    0.0196 C.ar      1 <0>        -0.1700
      5 C4         -3.6033   -0.5286    0.0283 C.ar      1 <0>        -0.1033
      6 C5         -3.6754   -1.9173    0.0273 C.ar      1 <0>         0.1187
      7 C6         -2.4893   -2.6625    0.0173 C.ar      1 <0>        -0.0676
      8 C7         -1.2551   -2.0214    0.0032 C.ar      1 <0>        -0.0969
      9 C8         -2.8914   -4.0876    0.0188 C.2       1 <0>        -0.1578
     10 C9         -2.0671   -5.1903    0.0116 C.2       1 <0>         0.0629
     11 C10        -2.6439   -6.5349    0.0144 C.2       1 <0>        -0.0242
     12 C11        -1.9450   -7.7254    0.0136 C.2       1 <0>        -0.0035
     13 N1         -2.8729   -8.7189    0.0171 N.pl3     1 <0>        -0.5670
     14 H1         -2.6907   -9.6716    0.0177 H         1 <0>         0.4219
     15 C12        -4.1014   -8.1382    0.0200 C.2       1 <0>         0.1702
     16 N2         -3.9675   -6.8441    0.0243 N.2       1 <0>        -0.4045
     17 C13        -4.3615   -4.0702    0.0302 C.2       1 <0>         0.5403
     18 O2         -5.0890   -5.0470    0.0353 O.2       1 <0>        -0.4371
     19 N3         -4.7617   -2.7874    0.0347 N.am      1 <0>        -0.6638
     20 H2          1.0053    1.8021    0.0021 H         1 <0>         0.1005
     21 H3         -0.5445    1.7859   -0.8732 H         1 <0>         0.0556
     22 H4         -0.5275    1.7763    0.9067 H         1 <0>         0.0557
     23 H5         -2.3296    1.1815    0.0204 H         1 <0>         0.1351
     24 H6         -4.5103    0.0577    0.0364 H         1 <0>         0.1299
     25 H7         -0.3432   -2.6000   -0.0090 H         1 <0>         0.1360
     26 H8         -0.9947   -5.0627    0.0038 H         1 <0>         0.1494
     27 H9         -0.8715   -7.8442    0.0104 H         1 <0>         0.1860
     28 H10        -5.0423   -8.6684    0.0231 H         1 <0>         0.2076
     29 H11        -5.6893   -2.5039    0.0425 H         1 <0>         0.4133
@<TRIPOS>BOND
     1    1    2 1
     2    1   20 1
     3    1   21 1
     4    1   22 1
     5    2    3 1
     6    3    8 ar
     7    3    4 ar
     8    4    5 ar
     9    4   23 1
    10    5    6 ar
    11    5   24 1
    12    6   19 1
    13    6    7 ar
    14    7    8 ar
    15    7    9 1
    16    8   25 1
    17    9   10 2
    18    9   17 1
    19   10   11 1
    20   10   26 1
    21   11   16 1
    22   11   12 2
    23   12   13 1
    24   12   27 1
    25   13   14 1
    26   13   15 1
    27   15   16 2
    28   15   28 1
    29   17   18 2
    30   17   19 am
    31   19   29 1
@<TRIPOS>MOLECULE
ZINC12410091
   32    34     0     0     0
SMALL
USER_CHARGES

@<TRIPOS>ATOM
      1 C1         -1.1178    0.9648   -0.0829 C.3       1 <0>        -0.0893
      2 C2         -0.2110   -0.2369   -0.0149 C.2       1 <0>        -0.0965
      3 C3          0.2945   -0.9575   -1.0985 C.2       1 <0>        -0.2107
      4 C4          1.0666   -1.9603   -0.6105 C.2       1 <0>         0.0646
      5 N1          1.0661   -1.8976    0.7449 N.pl3     1 <0>        -0.5091
      6 H1          1.5402   -2.4998    1.3395 H         1 <0>         0.4188
      7 C5          0.2839   -0.8320    1.1355 C.2       1 <0>        -0.0205
      8 C6          0.0313   -0.4237    2.4614 C.2       1 <0>         0.0819
      9 C7         -0.0507   -1.3643    3.4702 C.2       1 <0>        -0.2071
     10 C8         -0.1650   -1.1166    4.9246 C.ar      1 <0>        -0.0949
     11 C9         -0.2226    0.0414    5.6934 C.ar      1 <0>        -0.0678
     12 C10        -0.3314   -0.0533    7.0660 C.ar      1 <0>        -0.1377
     13 C11        -0.3826   -1.2965    7.6746 C.ar      1 <0>        -0.0864
     14 C12        -0.3261   -2.4512    6.9211 C.ar      1 <0>        -0.1351
     15 C13        -0.2169   -2.3764    5.5367 C.ar      1 <0>         0.1361
     16 N2         -0.1424   -3.3615    4.5598 N.am      1 <0>        -0.6521
     17 C14        -0.0496   -2.8262    3.3306 C.2       1 <0>         0.5558
     18 O1          0.0255   -3.4453    2.2841 O.2       1 <0>        -0.5142
     19 C15         1.8050   -2.9793   -1.4395 C.3       1 <0>        -0.0930
     20 H2         -0.5157    1.8720   -0.1329 H         1 <0>         0.0696
     21 H3         -1.7460    0.8961   -0.9710 H         1 <0>         0.0689
     22 H4         -1.7478    0.9953    0.8062 H         1 <0>         0.0623
     23 H5          0.1040   -0.7529   -2.1417 H         1 <0>         0.1407
     24 H6         -0.0981    0.6243    2.6883 H         1 <0>         0.1527
     25 H7         -0.1820    1.0104    5.2182 H         1 <0>         0.1289
     26 H8         -0.3765    0.8433    7.6664 H         1 <0>         0.1307
     27 H9         -0.4670   -1.3628    8.7493 H         1 <0>         0.1317
     28 H10        -0.3669   -3.4147    7.4073 H         1 <0>         0.1271
     29 H11        -0.1589   -4.3141    4.7415 H         1 <0>         0.4170
     30 H12         2.8038   -2.6073   -1.6677 H         1 <0>         0.0754
     31 H13         1.8835   -3.9129   -0.8824 H         1 <0>         0.0673
     32 H14         1.2618   -3.1548   -2.3681 H         1 <0>         0.0848
@<TRIPOS>BOND
     1    1    2 1
     2    1   20 1
     3    1   21 1
     4    1   22 1
     5    2    7 2
     6    2    3 1
     7    3    4 2
     8    3   23 1
     9    4    5 1
    10    4   19 1
    11    5    6 1
    12    5    7 1
    13    7    8 1
    14    8    9 2
    15    8   24 1
    16    9   17 1
    17    9   10 1
    18   10   15 ar
    19   10   11 ar
    20   11   12 ar
    21   11   25 1
    22   12   13 ar
    23   12   26 1
    24   13   14 ar
    25   13   27 1
    26   14   15 ar
    27   14   28 1
    28   15   16 1
    29   16   17 am
    30   16   29 1
    31   17   18 2
    32   19   30 1
    33   19   31 1
    34   19   32 1
@<TRIPOS>MOLECULE
ZINC12832813
   44    47     0     0     0
SMALL
USER_CHARGES
4-[4-[(Z)-(2-oxoindolin-3-ylidene)methyl]phenyl]piperazine-1-carbaldehyde
@<TRIPOS>ATOM
      1 C1         -0.7213   -2.2739   -0.5879 C.ar      1 <0>        -0.1404
      2 C2          0.2170   -2.5765   -1.5606 C.ar      1 <0>        -0.0822
      3 C3          0.9024   -1.5720   -2.2130 C.ar      1 <0>        -0.1379
      4 C4          0.6557   -0.2401   -1.8978 C.ar      1 <0>         0.1437
      5 C5         -0.2942    0.0617   -0.9132 C.ar      1 <0>        -0.1049
      6 C6         -0.9797   -0.9579   -0.2615 C.ar      1 <0>        -0.0635
      7 C7         -0.3308    1.5381   -0.8070 C.2       1 <0>        -0.1744
      8 C8         -1.1128    2.2928    0.0201 C.2       1 <0>         0.0427
      9 C9         -0.8888    3.7367    0.1237 C.ar      1 <0>        -0.1290
     10 C10         0.4169    4.2482    0.1181 C.ar      1 <0>        -0.0134
     11 C11         0.6203    5.5954    0.2096 C.ar      1 <0>        -0.1802
     12 C12        -0.4662    6.4603    0.3197 C.ar      1 <0>         0.1352
     13 C13        -1.7650    5.9567    0.3311 C.ar      1 <0>        -0.1537
     14 C14        -1.9791    4.6116    0.2348 C.ar      1 <0>        -0.0587
     15 N1         -0.2536    7.8306    0.4181 N.pl3     1 <0>        -0.4878
     16 C15        -0.9802    8.5529   -0.6346 C.3       1 <0>         0.0443
     17 C16        -0.8689   10.0608   -0.3850 C.3       1 <0>         0.1097
     18 N2          0.5544   10.4098   -0.2601 N.am      1 <0>        -0.6256
     19 C17         1.3811    9.6354    0.6781 C.3       1 <0>         0.1147
     20 C18         1.1811    8.1443    0.3866 C.3       1 <0>         0.0318
     21 C19         1.0871   11.4124   -0.9864 C.2       1 <0>         0.4951
     22 O1          0.3907   12.0406   -1.7553 O.2       1 <0>        -0.5508
     23 C20         0.6542    2.0160   -1.7910 C.2       1 <0>         0.5560
     24 O2          0.9310    3.1794   -2.0200 O.2       1 <0>        -0.4945
     25 N3          1.1938    0.9421   -2.3924 N.am      1 <0>        -0.6560
     26 H1         -1.2512   -3.0686   -0.0839 H         1 <0>         0.1309
     27 H2          0.4144   -3.6084   -1.8107 H         1 <0>         0.1320
     28 H3          1.6315   -1.8206   -2.9700 H         1 <0>         0.1279
     29 H4         -1.7110   -0.7209    0.4972 H         1 <0>         0.1290
     30 H5         -1.8964    1.8250    0.5977 H         1 <0>         0.1436
     31 H6          1.2601    3.5781    0.0373 H         1 <0>         0.1223
     32 H7          1.6253    5.9906    0.2013 H         1 <0>         0.1280
     33 H8         -2.6041    6.6313    0.4166 H         1 <0>         0.1285
     34 H9         -2.9864    4.2221    0.2437 H         1 <0>         0.1289
     35 H10        -0.5479    8.3122   -1.6058 H         1 <0>         0.0519
     36 H11        -2.0296    8.2584   -0.6200 H         1 <0>         0.0968
     37 H12        -1.3914   10.3190    0.5361 H         1 <0>         0.0781
     38 H13        -1.3070   10.6039   -1.2224 H         1 <0>         0.1010
     39 H14         1.0748    9.8527    1.7014 H         1 <0>         0.0820
     40 H15         2.4306    9.8973    0.5436 H         1 <0>         0.0948
     41 H16         1.6993    7.5534    1.1418 H         1 <0>         0.0991
     42 H17         1.5835    7.9088   -0.5987 H         1 <0>         0.0553
     43 H18         2.1342   11.6564   -0.8837 H         1 <0>         0.1326
     44 H19         1.8731    0.9864   -3.0834 H         1 <0>         0.4173
@<TRIPOS>BOND
     1    1    6 ar
     2    1    2 ar
     3    1   26 1
     4    2    3 ar
     5    2   27 1
     6    3    4 ar
     7    3   28 1
     8    4   25 1
     9    4    5 ar
    10    5    6 ar
    11    5    7 1
    12    6   29 1
    13    7    8 2
    14    7   23 1
    15    8    9 1
    16    8   30 1
    17    9   14 ar
    18    9   10 ar
    19   10   11 ar
    20   10   31 1
    21   11   12 ar
    22   11   32 1
    23   12   13 ar
    24   12   15 1
    25   13   14 ar
    26   13   33 1
    27   14   34 1
    28   15   20 1
    29   15   16 1
    30   16   17 1
    31   16   35 1
    32   16   36 1
    33   17   18 1
    34   17   37 1
    35   17   38 1
    36   18   19 1
    37   18   21 am
    38   19   20 1
    39   19   39 1
    40   19   40 1
    41   20   41 1
    42   20   42 1
    43   21   22 2
    44   21   43 1
    45   23   24 2
    46   23   25 am
    47   25   44 1
@<TRIPOS>MOLECULE
ZINC27439698
   59    62     0     0     0
SMALL
USER_CHARGES

@<TRIPOS>ATOM
      1 C1         -0.2063    1.0844    0.8125 C.2       1 <0>        -0.0780
      2 C2         -0.0916   -0.1284    0.2785 C.2       1 <0>        -0.2217
      3 C3          1.1892   -0.8472    0.3546 C.2       1 <0>         0.5464
      4 O1          2.1435   -0.3327    0.9059 O.2       1 <0>        -0.5301
      5 N1          1.3054   -2.0761   -0.1864 N.am      1 <0>        -0.6549
      6 C4          2.5517   -2.7129   -0.2160 C.ar      1 <0>         0.1200
      7 C5          3.7048   -1.9595   -0.1827 C.ar      1 <0>        -0.0579
      8 C6          4.9490   -2.5997   -0.2120 C.ar      1 <0>        -0.1974
      9 C7          5.0154   -4.0138   -0.2753 C.ar      1 <0>         0.2129
     10 C8          3.8313   -4.7603   -0.3083 C.ar      1 <0>        -0.1947
     11 C9          2.6164   -4.1137   -0.2734 C.ar      1 <0>         0.1622
     12 O2          1.4681   -4.8389   -0.3002 O.3       1 <0>        -0.3093
     13 C10         1.5999   -6.2606   -0.3586 C.3       1 <0>         0.0588
     14 C11         0.2106   -6.9010   -0.3813 C.3       1 <0>        -0.1156
     15 C12         0.3517   -8.4232   -0.4438 C.3       1 <0>         0.0578
     16 N2         -0.9822   -9.0382   -0.4657 N.3       1 <0>        -0.5360
     17 C13        -1.6880   -8.8108    0.8038 C.3       1 <0>         0.0125
     18 C14        -3.0921   -9.4148    0.7161 C.3       1 <0>         0.0626
     19 O3         -2.9885  -10.8047    0.3955 O.3       1 <0>        -0.3850
     20 C15        -2.3071  -11.0626   -0.8351 C.3       1 <0>         0.0628
     21 C16        -0.8951  -10.4753   -0.7631 C.3       1 <0>         0.0171
     22 N3          6.2221   -4.6015   -0.3018 N.ar      1 <0>        -0.5452
     23 C17         7.3156   -3.8777   -0.2694 C.ar      1 <0>         0.3493
     24 N4          7.3023   -2.5556   -0.2097 N.ar      1 <0>        -0.5859
     25 C18         6.1642   -1.8746   -0.1796 C.ar      1 <0>         0.4714
     26 N5          6.1650   -0.4957   -0.1182 N.pl3     1 <0>        -0.6328
     27 C19         7.3694    0.2084   -0.2227 C.ar      1 <0>         0.1581
     28 C20         7.5013    1.4536    0.3785 C.ar      1 <0>        -0.1169
     29 C21         8.6911    2.1472    0.2750 C.ar      1 <0>        -0.1176
     30 C22         9.7524    1.6027   -0.4280 C.ar      1 <0>         0.0901
     31 C23         9.6235    0.3609   -1.0292 C.ar      1 <0>        -0.0524
     32 C24         8.4363   -0.3392   -0.9225 C.ar      1 <0>        -0.0856
     33 Cl1        10.9555   -0.3188   -1.9109 Cl        1 <0>        -0.0424
     34 F1         10.9152    2.2833   -0.5284 F         1 <0>        -0.1264
     35 H1          0.6411    1.5413    1.3020 H         1 <0>         0.1166
     36 H2         -1.1456    1.6141    0.7527 H         1 <0>         0.1209
     37 H3         -0.9390   -0.5853   -0.2110 H         1 <0>         0.1323
     38 H4          0.5255   -2.5194   -0.5554 H         1 <0>         0.4201
     39 H5          3.6489   -0.8820   -0.1348 H         1 <0>         0.1596
     40 H6          3.8708   -5.8385   -0.3565 H         1 <0>         0.1517
     41 H7          2.1429   -6.5383   -1.2620 H         1 <0>         0.0720
     42 H8          2.1473   -6.6110    0.5165 H         1 <0>         0.0691
     43 H9         -0.3323   -6.6233    0.5221 H         1 <0>         0.0760
     44 H10        -0.3367   -6.5506   -1.2564 H         1 <0>         0.0860
     45 H11         0.8947   -8.7010   -1.3473 H         1 <0>         0.0821
     46 H12         0.8990   -8.7736    0.4312 H         1 <0>         0.0409
     47 H13        -1.1377   -9.2854    1.6162 H         1 <0>         0.0448
     48 H14        -1.7636   -7.7398    0.9914 H         1 <0>         0.0895
     49 H15        -3.5986   -9.2990    1.6743 H         1 <0>         0.0993
     50 H16        -3.6604   -8.9035   -0.0609 H         1 <0>         0.0609
     51 H17        -2.2459  -12.1385   -0.9988 H         1 <0>         0.1001
     52 H18        -2.8525  -10.5991   -1.6572 H         1 <0>         0.0612
     53 H19        -0.3918  -10.6192   -1.7193 H         1 <0>         0.0886
     54 H20        -0.3321  -10.9764    0.0243 H         1 <0>         0.0452
     55 H21         8.2696   -4.3834   -0.2921 H         1 <0>         0.1993
     56 H22         5.3306   -0.0149   -0.0027 H         1 <0>         0.4275
     57 H23         6.6738    1.8794    0.9265 H         1 <0>         0.1431
     58 H24         8.7936    3.1154    0.7424 H         1 <0>         0.1506
     59 H25         8.3373   -1.3092   -1.3869 H         1 <0>         0.1663
@<TRIPOS>BOND
     1    1    2 2
     2    1   35 1
     3    1   36 1
     4    2    3 1
     5    2   37 1
     6    3    4 2
     7    3    5 am
     8    5    6 1
     9    5   38 1
    10    6   11 ar
    11    6    7 ar
    12    7    8 ar
    13    7   39 1
    14    8   25 ar
    15    8    9 ar
    16    9   10 ar
    17    9   22 ar
    18   10   11 ar
    19   10   40 1
    20   11   12 1
    21   12   13 1
    22   13   14 1
    23   13   41 1
    24   13   42 1
    25   14   15 1
    26   14   43 1
    27   14   44 1
    28   15   16 1
    29   15   45 1
    30   15   46 1
    31   16   21 1
    32   16   17 1
    33   17   18 1
    34   17   47 1
    35   17   48 1
    36   18   19 1
    37   18   49 1
    38   18   50 1
    39   19   20 1
    40   20   21 1
    41   20   51 1
    42   20   52 1
    43   21   53 1
    44   21   54 1
    45   22   23 ar
    46   23   24 ar
    47   23   55 1
    48   24   25 ar
    49   25   26 1
    50   26   27 1
    51   26   56 1
    52   27   32 ar
    53   27   28 ar
    54   28   29 ar
    55   28   57 1
    56   29   30 ar
    57   29   58 1
    58   30   31 ar
    59   30   34 1
    60   31   32 ar
    61   31   33 1
    62   32   59 1
@<TRIPOS>MOLECULE
ZINC05958728
   37    39     0     0     0
SMALL
USER_CHARGES
3-[(4-hydroxyphenyl)methylene]-5,6-dimethoxy-indolin-2-one
@<TRIPOS>ATOM
      1 C1          2.2446    4.0120    0.5871 C.3       1 <0>         0.0241
      2 O1          1.0286    3.3461    0.2407 O.3       1 <0>        -0.3027
      3 C2          1.1109    2.0180   -0.0436 C.ar      1 <0>         0.0823
      4 C3          2.3334    1.3731    0.0097 C.ar      1 <0>        -0.1157
      5 C4          2.4109    0.0146   -0.2823 C.ar      1 <0>        -0.1042
      6 C5          1.2601   -0.7045   -0.6300 C.ar      1 <0>         0.1543
      7 C6          0.0374   -0.0449   -0.6799 C.ar      1 <0>        -0.1942
      8 C7         -0.0360    1.3064   -0.3890 C.ar      1 <0>         0.1422
      9 O2         -1.2352    1.9450   -0.4462 O.3       1 <0>        -0.2982
     10 C8         -2.3716    1.1599   -0.8124 C.3       1 <0>         0.0225
     11 N1          1.6045   -2.0315   -0.8717 N.am      1 <0>        -0.6526
     12 C9          2.9222   -2.2341   -0.7035 C.2       1 <0>         0.5564
     13 O3          3.5077   -3.2921   -0.8451 O.2       1 <0>        -0.4898
     14 C10         3.5333   -0.9510   -0.3168 C.2       1 <0>        -0.1593
     15 C11         4.8484   -0.7054   -0.0478 C.2       1 <0>         0.0316
     16 C12         5.7974   -1.8187    0.0481 C.ar      1 <0>        -0.1091
     17 C13         5.4138   -3.0191    0.6614 C.ar      1 <0>        -0.0291
     18 C14         6.3074   -4.0622    0.7446 C.ar      1 <0>        -0.1539
     19 C15         7.5922   -3.9234    0.2306 C.ar      1 <0>         0.1271
     20 C16         7.9800   -2.7330   -0.3748 C.ar      1 <0>        -0.1590
     21 C17         7.0935   -1.6847   -0.4681 C.ar      1 <0>        -0.0711
     22 O4          8.4711   -4.9536    0.3206 O.3       1 <0>        -0.4991
     23 H1          2.0384    5.0631    0.7892 H         1 <0>         0.1026
     24 H2          2.6723    3.5483    1.4759 H         1 <0>         0.0558
     25 H3          2.9505    3.9327   -0.2396 H         1 <0>         0.0558
     26 H4          3.2244    1.9217    0.2773 H         1 <0>         0.1430
     27 H5         -0.8572   -0.5879   -0.9467 H         1 <0>         0.1428
     28 H6         -2.2169    0.7379   -1.8054 H         1 <0>         0.0576
     29 H7         -2.5035    0.3532   -0.0913 H         1 <0>         0.0575
     30 H8         -3.2612    1.7896   -0.8198 H         1 <0>         0.1044
     31 H9          0.9735   -2.7221   -1.1283 H         1 <0>         0.4183
     32 H10         5.1902    0.3092    0.0944 H         1 <0>         0.1449
     33 H11         4.4177   -3.1266    1.0646 H         1 <0>         0.1270
     34 H12         6.0119   -4.9889    1.2140 H         1 <0>         0.1306
     35 H13         8.9790   -2.6309   -0.7722 H         1 <0>         0.1321
     36 H14         7.3958   -0.7607   -0.9385 H         1 <0>         0.1315
     37 H15         9.0046   -4.9461    1.1270 H         1 <0>         0.3934
@<TRIPOS>BOND
     1    1    2 1
     2    1   23 1
     3    1   24 1
     4    1   25 1
     5    2    3 1
     6    3    8 ar
     7    3    4 ar
     8    4    5 ar
     9    4   26 1
    10    5   14 1
    11    5    6 ar
    12    6    7 ar
    13    6   11 1
    14    7    8 ar
    15    7   27 1
    16    8    9 1
    17    9   10 1
    18   10   28 1
    19   10   29 1
    20   10   30 1
    21   11   12 am
    22   11   31 1
    23   12   13 2
    24   12   14 1
    25   14   15 2
    26   15   16 1
    27   15   32 1
    28   16   21 ar
    29   16   17 ar
    30   17   18 ar
    31   17   33 1
    32   18   19 ar
    33   18   34 1
    34   19   20 ar
    35   19   22 1
    36   20   21 ar
    37   20   35 1
    38   21   36 1
    39   22   37 1
@<TRIPOS>MOLECULE
ZINC28823959
   61    65     0     0     0
SMALL
USER_CHARGES
4-methyl-3-[[6-methylsulfonyl-7-[2-(morpholinomethyl)thiazol-4-yl]-4-quinolyl]amino]phenol
@<TRIPOS>ATOM
      1 C1         -7.5333    0.3983    9.9426 C.3       1 <0>        -0.1136
      2 C2         -8.3547   -0.2410    8.8528 C.ar      1 <0>        -0.1729
      3 C3         -9.6676   -0.5959    9.0958 C.ar      1 <0>        -0.0405
      4 C4        -10.4236   -1.1819    8.0987 C.ar      1 <0>        -0.1901
      5 C5         -9.8661   -1.4164    6.8492 C.ar      1 <0>         0.1900
      6 C6         -8.5511   -1.0577    6.5997 C.ar      1 <0>        -0.2723
      7 C7         -7.7911   -0.4738    7.6044 C.ar      1 <0>         0.2191
      8 N1         -6.4631   -0.1155    7.3584 N.pl3     1 <0>        -0.6754
      9 C8         -5.8036   -0.6181    6.2463 C.ar      1 <0>         0.2647
     10 C9         -6.1103   -1.8722    5.7395 C.ar      1 <0>        -0.2524
     11 C10        -5.4331   -2.3482    4.6259 C.ar      1 <0>         0.1832
     12 N2         -4.5008   -1.6428    4.0283 N.ar      1 <0>        -0.5086
     13 C11        -4.1535   -0.4251    4.4627 C.ar      1 <0>         0.1991
     14 C12        -4.7971    0.1324    5.5943 C.ar      1 <0>        -0.1561
     15 C13        -4.4341    1.4090    6.0495 C.ar      1 <0>         0.0297
     16 C14        -3.4600    2.1070    5.4078 C.ar      1 <0>        -0.6412
     17 C15        -2.8172    1.5697    4.2814 C.ar      1 <0>         0.0832
     18 C16        -3.1548    0.3140    3.8101 C.ar      1 <0>        -0.0891
     19 C17        -1.7625    2.3531    3.5942 C.2       1 <0>         0.0406
     20 C18        -0.4978    1.8509    3.4380 C.2       1 <0>        -0.1926
     21 S1          0.2876    3.2018    2.5715 S.3       1 <0>         0.0780
     22 C19        -1.0868    4.2603    2.5038 C.2       1 <0>         0.1115
     23 N3         -2.0114    3.5630    3.1173 N.2       1 <0>        -0.4454
     24 C20        -1.1891    5.6365    1.8983 C.3       1 <0>         0.1406
     25 N4         -0.6393    6.6256    2.8348 N.3       1 <0>        -0.5336
     26 C21        -1.5321    6.8127    3.9878 C.3       1 <0>         0.0037
     27 C22        -0.8943    7.8040    4.9647 C.3       1 <0>         0.0567
     28 O1         -0.6261    9.0321    4.2827 O.3       1 <0>        -0.3834
     29 C23         0.2409    8.8868    3.1546 C.3       1 <0>         0.0624
     30 C24        -0.3854    7.9065    2.1594 C.3       1 <0>         0.0161
     31 S2         -3.0047    3.7060    5.9914 S.o2      1 <0>         2.4813
     32 O2         -3.1167    4.5521    4.8553 O.2       1 <0>        -0.8843
     33 O3         -3.8185    3.9193    7.1366 O.2       1 <0>        -0.9453
     34 C25        -1.2656    3.5454    6.4819 C.3       1 <0>        -0.6591
     35 O4        -10.6112   -1.9925    5.8695 O.3       1 <0>        -0.5061
     36 H1         -8.1453    0.5006   10.8509 H         1 <0>         0.0735
     37 H2         -7.1971    1.3925    9.6130 H         1 <0>         0.0658
     38 H3         -6.6579   -0.2316   10.1593 H         1 <0>         0.0655
     39 H4        -10.1039   -0.4145   10.0670 H         1 <0>         0.1336
     40 H5        -11.4497   -1.4581    8.2918 H         1 <0>         0.1297
     41 H6         -8.1169   -1.2357    5.6270 H         1 <0>         0.1376
     42 H7         -5.9405    0.5652    8.0466 H         1 <0>         0.4406
     43 H8         -6.8730   -2.4754    6.2093 H         1 <0>         0.1498
     44 H9         -5.6800   -3.3262    4.2398 H         1 <0>         0.1663
     45 H10        -4.9247    1.8346    6.9125 H         1 <0>         0.1467
     46 H11        -2.6533   -0.0950    2.9454 H         1 <0>         0.1479
     47 H12        -0.0889    0.9018    3.7517 H         1 <0>         0.2029
     48 H13        -0.6199    5.6664    0.9575 H         1 <0>         0.1050
     49 H14        -2.2447    5.8705    1.6958 H         1 <0>         0.0824
     50 H15        -2.4995    7.2062    3.6424 H         1 <0>         0.0532
     51 H16        -1.6878    5.8473    4.4915 H         1 <0>         0.1124
     52 H17        -1.5842    7.9899    5.8011 H         1 <0>         0.0988
     53 H18         0.0460    7.3842    5.3514 H         1 <0>         0.0572
     54 H19         0.3800    9.8648    2.6707 H         1 <0>         0.1015
     55 H20         1.2154    8.5010    3.4884 H         1 <0>         0.0607
     56 H21         0.3033    7.7465    1.3167 H         1 <0>         0.0903
     57 H22        -1.3342    8.3178    1.7845 H         1 <0>         0.0497
     58 H23        -0.9011    4.5112    6.8619 H         1 <0>         0.1361
     59 H24        -0.6653    3.2440    5.6108 H         1 <0>         0.1264
     60 H25        -1.1759    2.7837    7.2704 H         1 <0>         0.1342
     61 H26       -10.1691   -2.1782    4.8795 H         1 <0>         0.4342
@<TRIPOS>BOND
     1    1    2 1
     2    1   36 1
     3    1   37 1
     4    1   38 1
     5    2    7 ar
     6    2    3 ar
     7    3    4 ar
     8    3   39 1
     9    4    5 ar
    10    4   40 1
    11    5    6 ar
    12    5   35 1
    13    6    7 ar
    14    6   41 1
    15    7    8 1
    16    8    9 1
    17    8   42 1
    18    9   14 ar
    19    9   10 ar
    20   10   11 ar
    21   10   43 1
    22   11   12 ar
    23   11   44 1
    24   12   13 ar
    25   13   18 ar
    26   13   14 ar
    27   14   15 ar
    28   15   16 ar
    29   15   45 1
    30   16   17 ar
    31   16   31 1
    32   17   18 ar
    33   17   19 1
    34   18   46 1
    35   19   23 1
    36   19   20 2
    37   20   21 1
    38   20   47 1
    39   21   22 1
    40   22   23 2
    41   22   24 1
    42   24   25 1
    43   24   48 1
    44   24   49 1
    45   25   30 1
    46   25   26 1
    47   26   27 1
    48   26   50 1
    49   26   51 1
    50   27   28 1
    51   27   52 1
    52   27   53 1
    53   28   29 1
    54   29   30 1
    55   29   54 1
    56   29   55 1
    57   30   56 1
    58   30   57 1
    59   31   32 2
    60   31   33 2
    61   31   34 1
    62   34   58 1
    63   34   59 1
    64   34   60 1
    65   35   61 1
@<TRIPOS>MOLECULE
ZINC06718723
   66    70     0     0     0
SMALL
USER_CHARGES
N-[3-(2-methoxy-2-phenyl-acetyl)-3,6,7-triazabicyclo[3.3.0]octa-7,9-dien-8-yl]-4-(4-methylpiperazin-1-yl)-benzamide
@<TRIPOS>ATOM
      1 C1          1.1558   -2.3183    1.2595 C.3       1 <0>        -0.0410
      2 C2          0.9823   -1.8889   -1.1176 C.3       1 <0>         0.0017
      3 C3          0.2156   -1.0925   -2.1760 C.3       1 <0>         0.0172
      4 N1          0.3983    0.3450   -1.9314 N.pl3     1 <0>        -0.4879
      5 C4         -0.0890    0.7150   -0.5952 C.3       1 <0>         0.0240
      6 C5          0.6778   -0.0814    0.4632 C.3       1 <0>         0.0014
      7 C6         -0.2262    1.1016   -2.9168 C.ar      1 <0>         0.1171
      8 C7         -0.9021    0.4673   -3.9555 C.ar      1 <0>        -0.1703
      9 C8         -1.5254    1.2132   -4.9296 C.ar      1 <0>        -0.0557
     10 C9         -1.4706    2.6093   -4.8809 C.ar      1 <0>        -0.1394
     11 C10        -0.7865    3.2432   -3.8393 C.ar      1 <0>        -0.0271
     12 C11        -0.1695    2.4917   -2.8657 C.ar      1 <0>        -0.1357
     13 C12        -2.1335    3.4119   -5.9259 C.2       1 <0>         0.5511
     14 O1         -2.0854    4.6262   -5.8820 O.2       1 <0>        -0.4789
     15 N2         -2.7926    2.7993   -6.9293 N.am      1 <0>        -0.6348
     16 C13        -3.4223    3.5616   -7.9218 C.2       1 <0>         0.3339
     17 C14        -4.1411    3.0562   -9.0204 C.2       1 <0>        -0.2838
     18 C15        -4.5895    4.1057   -9.7400 C.2       1 <0>         0.0781
     19 N3         -4.1745    5.2373   -9.1268 N.pl3     1 <0>        -0.4408
     20 H1         -4.3540    6.1718   -9.4341 H         1 <0>         0.4547
     21 N4         -3.4495    4.8713   -7.9863 N.2       1 <0>        -0.2469
     22 C16        -5.3666    3.6009  -10.9294 C.3       1 <0>         0.1723
     23 N5         -5.3544    2.1345  -10.8740 N.am      1 <0>        -0.6108
     24 C17        -4.5861    1.7737   -9.6769 C.3       1 <0>         0.1946
     25 C18        -5.9338    1.2878  -11.7480 C.2       1 <0>         0.5509
     26 O2         -5.7715    0.0915  -11.6318 O.2       1 <0>        -0.4985
     27 C19        -6.7834    1.8276  -12.8695 C.3       1 <0>         0.1225
     28 H2         -7.5012    2.5436  -12.4694 H         1 <0>         0.0950
     29 C20        -5.9023    2.5122  -13.8825 C.ar      1 <0>        -0.1245
     30 C21        -5.1414    1.7597  -14.7575 C.ar      1 <0>        -0.0827
     31 C22        -4.3365    2.3877  -15.6895 C.ar      1 <0>        -0.1181
     32 C23        -4.2853    3.7682  -15.7402 C.ar      1 <0>        -0.1071
     33 C24        -5.0426    4.5207  -14.8620 C.ar      1 <0>        -0.1205
     34 C25        -5.8508    3.8927  -13.9329 C.ar      1 <0>        -0.1134
     35 O3         -7.4835    0.7514  -13.4972 O.3       1 <0>        -0.3511
     36 C26        -8.7453    1.1252  -14.0539 C.3       1 <0>         0.0270
     37 H3          2.2318   -2.1485    1.2201 H         1 <0>         0.1249
     38 H4          0.7771   -2.0242    2.2384 H         1 <0>         0.1237
     39 H5          0.9484   -3.3752    1.0921 H         1 <0>         0.1236
     40 H6          0.8246   -2.9552   -1.2798 H         1 <0>         0.1394
     41 H7          2.0461   -1.6632   -1.1925 H         1 <0>         0.1411
     42 H8          0.5953   -1.3440   -3.1663 H         1 <0>         0.1318
     43 H9         -0.8447   -1.3391   -2.1193 H         1 <0>         0.0745
     44 H10         0.0688    1.7813   -0.4330 H         1 <0>         0.1307
     45 H11        -1.1527    0.4893   -0.5207 H         1 <0>         0.0727
     46 H12         1.7380    0.1652    0.4065 H         1 <0>         0.1415
     47 H13         0.2983    0.1704    1.4535 H         1 <0>         0.1395
     48 H14        -0.9409   -0.6113   -3.9946 H         1 <0>         0.1361
     49 H15        -2.0533    0.7206   -5.7327 H         1 <0>         0.1339
     50 H16        -0.7428    4.3215   -3.7987 H         1 <0>         0.1475
     51 H17         0.3591    2.9807   -2.0608 H         1 <0>         0.1377
     52 H18        -2.8310    1.8307   -6.9643 H         1 <0>         0.4200
     53 H19        -4.8943    3.9403  -11.8513 H         1 <0>         0.1019
     54 H20        -6.3933    3.9643  -10.8842 H         1 <0>         0.0943
     55 H21        -3.7159    1.1817   -9.9601 H         1 <0>         0.0792
     56 H22        -5.2131    1.2048   -8.9904 H         1 <0>         0.0792
     57 H23        -5.1783    0.6812  -14.7152 H         1 <0>         0.1304
     58 H24        -3.7451    1.7999  -16.3759 H         1 <0>         0.1272
     59 H25        -3.6539    4.2589  -16.4662 H         1 <0>         0.1260
     60 H26        -5.0026    5.5992  -14.9016 H         1 <0>         0.1273
     61 H27        -6.4422    4.4805  -13.2465 H         1 <0>         0.1243
     62 H28        -9.3904    1.5117  -13.2649 H         1 <0>         0.0465
     63 H29        -8.5949    1.8955  -14.8103 H         1 <0>         0.0480
     64 H30        -9.2132    0.2534  -14.5113 H         1 <0>         0.0967
     65 N6          0.4679   -1.5242    0.2191 N.4       1 <0>        -0.4004
     66 H31        -0.5381   -1.7261    0.2561 H         1 <0>         0.4278
@<TRIPOS>BOND
     1    1   37 1
     2    1   38 1
     3    1   39 1
     4    1   65 1
     5    2    3 1
     6    2   40 1
     7    2   41 1
     8    2   65 1
     9    3    4 1
    10    3   42 1
    11    3   43 1
    12    4    5 1
    13    4    7 1
    14    5    6 1
    15    5   44 1
    16    5   45 1
    17    6   46 1
    18    6   47 1
    19    6   65 1
    20    7   12 ar
    21    7    8 ar
    22    8    9 ar
    23    8   48 1
    24    9   10 ar
    25    9   49 1
    26   10   11 ar
    27   10   13 1
    28   11   12 ar
    29   11   50 1
    30   12   51 1
    31   13   14 2
    32   13   15 am
    33   15   16 1
    34   15   52 1
    35   16   21 2
    36   16   17 1
    37   17   24 1
    38   17   18 2
    39   18   19 1
    40   18   22 1
    41   19   20 1
    42   19   21 1
    43   22   23 1
    44   22   53 1
    45   22   54 1
    46   23   24 1
    47   23   25 am
    48   24   55 1
    49   24   56 1
    50   25   26 2
    51   25   27 1
    52   27   28 1
    53   27   29 1
    54   27   35 1
    55   29   34 ar
    56   29   30 ar
    57   30   31 ar
    58   30   57 1
    59   31   32 ar
    60   31   58 1
    61   32   33 ar
    62   32   59 1
    63   33   34 ar
    64   33   60 1
    65   34   61 1
    66   35   36 1
    67   36   62 1
    68   36   63 1
    69   36   64 1
    70   65   66 1
@<TRIPOS>MOLECULE
ZINC43129461
   71    74     0     0     0
SMALL
USER_CHARGES

@<TRIPOS>ATOM
      1 C1          0.1412    1.0958    0.0245 C.3       1 <0>        -0.1877
      2 C2          0.0343   -0.4072    0.2899 C.3       1 <0>        -0.0130
      3 N1         -1.3805   -0.7840    0.4090 N.4       1 <0>        -0.3814
      4 C3         -1.4799   -2.1981    0.7943 C.3       1 <0>        -0.0136
      5 C4         -0.8912   -2.3880    2.1937 C.3       1 <0>        -0.1480
      6 C5         -0.9947   -3.8608    2.5950 C.3       1 <0>         0.0597
      7 O1         -0.4449   -4.0381    3.9021 O.3       1 <0>        -0.3038
      8 C6         -0.4591   -5.2969    4.4113 C.ar      1 <0>         0.1781
      9 C7         -0.9923   -6.3430    3.6529 C.ar      1 <0>        -0.2017
     10 C8         -1.0190   -7.6149    4.1393 C.ar      1 <0>        -0.0296
     11 C9         -0.5067   -7.8812    5.4148 C.ar      1 <0>        -0.2176
     12 C10         0.0360   -6.8274    6.1915 C.ar      1 <0>         0.2265
     13 C11         0.0576   -5.5295    5.6681 C.ar      1 <0>        -0.1532
     14 N2          0.5211   -7.1085    7.4106 N.ar      1 <0>        -0.5472
     15 C12         0.4917   -8.3369    7.8711 C.ar      1 <0>         0.3522
     16 N3         -0.0047   -9.3517    7.1826 N.ar      1 <0>        -0.5832
     17 C13        -0.5099   -9.1841    5.9669 C.ar      1 <0>         0.4869
     18 N4         -1.0246  -10.2512    5.2605 N.pl3     1 <0>        -0.6010
     19 C14        -1.0183  -11.5330    5.8248 C.2       1 <0>         0.3061
     20 C15        -0.5270  -11.8723    7.0959 C.2       1 <0>        -0.2334
     21 C16        -0.7020  -13.2023    7.2669 C.2       1 <0>         0.0995
     22 N5         -1.2813  -13.6907    6.1499 N.pl3     1 <0>        -0.4600
     23 H1         -1.5240  -14.6165    5.9920 H         1 <0>         0.4395
     24 N6         -1.4756  -12.6260    5.2606 N.2       1 <0>        -0.3132
     25 C17        -0.3179  -13.9980    8.4876 C.3       1 <0>        -0.0736
     26 C18        -1.4253  -13.9203    9.5069 C.2       1 <0>         0.5124
     27 O2         -2.4277  -13.2816    9.2656 O.2       1 <0>        -0.4954
     28 N7         -1.3017  -14.5605   10.6864 N.am      1 <0>        -0.6738
     29 C19        -2.2814  -14.4046   11.6731 C.ar      1 <0>         0.1731
     30 C20        -1.9205  -14.3798   13.0142 C.ar      1 <0>        -0.1549
     31 C21        -2.8887  -14.2254   13.9867 C.ar      1 <0>        -0.0711
     32 C22        -4.2176  -14.0957   13.6276 C.ar      1 <0>        -0.1683
     33 C23        -4.5819  -14.1198   12.2917 C.ar      1 <0>         0.1190
     34 C24        -3.6151  -14.2686   11.3132 C.ar      1 <0>        -0.1590
     35 F1         -5.8812  -13.9933   11.9436 F         1 <0>        -0.1348
     36 C25        -2.0520   -0.5798   -0.8814 C.3       1 <0>        -0.0107
     37 C26        -3.5536   -0.8245   -0.7194 C.3       1 <0>         0.0927
     38 O3         -4.1052    0.1612    0.1558 O.3       1 <0>        -0.7578
     39 P1         -5.6390    0.1400    0.6447 P.3       1 <0>         2.1017
     40 O4         -6.5846    0.1017   -0.6038 O.2       1 <0>        -1.1721
     41 O5         -5.8881   -1.1299    1.5277 O.3       1 <0>        -1.1714
     42 O6         -5.9368    1.4276    1.4860 O.3       1 <0>        -1.1488
     43 H2          1.1901    1.3923    0.0315 H         1 <0>         0.0965
     44 H3         -0.2947    1.3249   -0.9479 H         1 <0>         0.0817
     45 H4         -0.3956    1.6409    0.8008 H         1 <0>         0.0844
     46 H5          0.4880   -0.9552   -0.5360 H         1 <0>         0.1221
     47 H6          0.5544   -0.6504    1.2165 H         1 <0>         0.1246
     48 H7         -2.5268   -2.5014    0.7963 H         1 <0>         0.1454
     49 H8         -0.9260   -2.8087    0.0813 H         1 <0>         0.1270
     50 H9          0.1557   -2.0846    2.1918 H         1 <0>         0.0937
     51 H10        -1.4451   -1.7773    2.9068 H         1 <0>         0.1060
     52 H11        -2.0417   -4.1641    2.5970 H         1 <0>         0.0850
     53 H12        -0.4409   -4.4714    1.8820 H         1 <0>         0.0737
     54 H13        -1.3884   -6.1401    2.6689 H         1 <0>         0.1410
     55 H14        -1.4340   -8.4146    3.5438 H         1 <0>         0.1329
     56 H15         0.4717   -4.7162    6.2456 H         1 <0>         0.1504
     57 H16         0.8909   -8.5281    8.8563 H         1 <0>         0.1983
     58 H17        -1.3909  -10.1139    4.3729 H         1 <0>         0.4265
     59 H18        -0.0875  -11.1918    7.8102 H         1 <0>         0.1855
     60 H19        -0.1551  -15.0386    8.2067 H         1 <0>         0.1119
     61 H20         0.5980  -13.5893    8.9144 H         1 <0>         0.1297
     62 H21        -0.5335  -15.1293   10.8513 H         1 <0>         0.4154
     63 H22        -0.8830  -14.4817   13.2963 H         1 <0>         0.1340
     64 H23        -2.6076  -14.2062   15.0293 H         1 <0>         0.1384
     65 H24        -4.9729  -13.9757   14.3902 H         1 <0>         0.1374
     66 H25        -3.8982  -14.2834   10.2710 H         1 <0>         0.1503
     67 H26        -1.8850    0.4427   -1.2201 H         1 <0>         0.1337
     68 H27        -1.6475   -1.2764   -1.6158 H         1 <0>         0.1254
     69 H28        -4.0395   -0.7589   -1.6929 H         1 <0>         0.0845
     70 H29        -3.7166   -1.8165   -0.2981 H         1 <0>         0.0571
     71 H30        -1.8229   -0.2118    1.1126 H         1 <0>         0.4394
@<TRIPOS>BOND
     1    1    2 1
     2    1   43 1
     3    1   44 1
     4    1   45 1
     5    2    3 1
     6    2   46 1
     7    2   47 1
     8    3    4 1
     9    3   36 1
    10    3   71 1
    11    4    5 1
    12    4   48 1
    13    4   49 1
    14    5    6 1
    15    5   50 1
    16    5   51 1
    17    6    7 1
    18    6   52 1
    19    6   53 1
    20    7    8 1
    21    8   13 ar
    22    8    9 ar
    23    9   10 ar
    24    9   54 1
    25   10   11 ar
    26   10   55 1
    27   11   17 ar
    28   11   12 ar
    29   12   13 ar
    30   12   14 ar
    31   13   56 1
    32   14   15 ar
    33   15   16 ar
    34   15   57 1
    35   16   17 ar
    36   17   18 1
    37   18   19 1
    38   18   58 1
    39   19   24 2
    40   19   20 1
    41   20   21 2
    42   20   59 1
    43   21   22 1
    44   21   25 1
    45   22   23 1
    46   22   24 1
    47   25   26 1
    48   25   60 1
    49   25   61 1
    50   26   27 2
    51   26   28 am
    52   28   29 1
    53   28   62 1
    54   29   34 ar
    55   29   30 ar
    56   30   31 ar
    57   30   63 1
    58   31   32 ar
    59   31   64 1
    60   32   33 ar
    61   32   65 1
    62   33   34 ar
    63   33   35 1
    64   34   66 1
    65   36   37 1
    66   36   67 1
    67   36   68 1
    68   37   38 1
    69   37   69 1
    70   37   70 1
    71   38   39 1
    72   39   40 2
    73   39   41 1
    74   39   42 1
@<TRIPOS>MOLECULE
ZINC43129461
   73    76     0     0     0
SMALL
USER_CHARGES

@<TRIPOS>ATOM
      1 C1          0.1409    1.0918    0.0251 C.3       1 <0>        -0.1892
      2 C2          0.0339   -0.4112    0.2906 C.3       1 <0>        -0.0152
      3 N1         -1.3809   -0.7879    0.4099 N.4       1 <0>        -0.3842
      4 C3         -1.4803   -2.2020    0.7953 C.3       1 <0>        -0.0158
      5 C4         -0.8914   -2.3919    2.1946 C.3       1 <0>        -0.1503
      6 C5         -0.9949   -3.8647    2.5959 C.3       1 <0>         0.0579
      7 O1         -0.4450   -4.0420    3.9029 O.3       1 <0>        -0.2993
      8 C6         -0.4592   -5.3008    4.4121 C.ar      1 <0>         0.1817
      9 C7         -0.9925   -6.3469    3.6538 C.ar      1 <0>        -0.1818
     10 C8         -1.0193   -7.6187    4.1402 C.ar      1 <0>        -0.0436
     11 C9         -0.5068   -7.8851    5.4157 C.ar      1 <0>        -0.1976
     12 C10         0.0362   -6.8313    6.1923 C.ar      1 <0>         0.2239
     13 C11         0.0578   -5.5334    5.6688 C.ar      1 <0>        -0.1405
     14 N2          0.5214   -7.1125    7.4113 N.ar      1 <0>        -0.5107
     15 C12         0.4920   -8.3409    7.8718 C.ar      1 <0>         0.3510
     16 N3         -0.0046   -9.3556    7.1834 N.ar      1 <0>        -0.5709
     17 C13        -0.5099   -9.1879    5.9677 C.ar      1 <0>         0.4598
     18 N4         -1.0249  -10.2553    5.2612 N.pl3     1 <0>        -0.6021
     19 C14        -1.0187  -11.5304    5.8226 C.2       1 <0>         0.4560
     20 C15        -0.5390  -11.8669    7.0517 C.2       1 <0>        -0.2320
     21 C16        -0.7243  -13.2413    7.2224 C.2       1 <0>         0.2582
     22 N5         -1.2916  -13.7195    6.1448 N.pl3     1 <0>        -0.3700
     23 N6         -1.4952  -12.6642    5.2465 N.pl3     1 <0>        -0.4476
     24 C17        -0.3360  -14.0381    8.4412 C.3       1 <0>        -0.1008
     25 C18        -1.4386  -13.9586    9.4655 C.2       1 <0>         0.5174
     26 O2         -2.4410  -13.3180    9.2291 O.2       1 <0>        -0.5061
     27 N7         -1.3107  -14.5994   10.6443 N.am      1 <0>        -0.6579
     28 C19        -2.2856  -14.4419   11.6355 C.ar      1 <0>         0.1577
     29 C20        -1.9185  -14.4182   12.9750 C.ar      1 <0>        -0.1459
     30 C21        -2.8820  -14.2623   13.9520 C.ar      1 <0>        -0.0677
     31 C22        -4.2123  -14.1302   13.5990 C.ar      1 <0>        -0.1573
     32 C23        -4.5828  -14.1533   12.2647 C.ar      1 <0>         0.1189
     33 C24        -3.6207  -14.3035   11.2818 C.ar      1 <0>        -0.1569
     34 F1         -5.8834  -14.0244   11.9227 F         1 <0>        -0.1323
     35 C25        -2.0526   -0.5836   -0.8804 C.3       1 <0>        -0.0130
     36 C26        -3.5541   -0.8283   -0.7182 C.3       1 <0>         0.1008
     37 O3         -4.1055    0.1575    0.1571 O.3       1 <0>        -0.7650
     38 P1         -5.6393    0.1364    0.6462 P.3       1 <0>         2.2015
     39 O4         -6.5720    0.0987   -0.5849 O.2       1 <0>        -1.0927
     40 O5         -5.8849   -1.1160    1.5170 O.3       1 <0>        -1.0945
     41 O6         -5.9451    1.4596    1.5109 O.3       1 <0>        -0.8978
     42 H1          1.1898    1.3882    0.0319 H         1 <0>         0.1035
     43 H2         -0.2951    1.3210   -0.9472 H         1 <0>         0.0827
     44 H3         -0.3958    1.6370    0.8015 H         1 <0>         0.0823
     45 H4          0.4874   -0.9592   -0.5353 H         1 <0>         0.1283
     46 H5          0.5541   -0.6544    1.2171 H         1 <0>         0.1288
     47 H6         -2.5272   -2.5053    0.7974 H         1 <0>         0.1420
     48 H7         -0.9266   -2.8127    0.0821 H         1 <0>         0.1333
     49 H8          0.1555   -2.0886    2.1924 H         1 <0>         0.0995
     50 H9         -1.4451   -1.7812    2.9077 H         1 <0>         0.1051
     51 H10        -2.0419   -4.1679    2.5981 H         1 <0>         0.0848
     52 H11        -0.4412   -4.4754    1.8828 H         1 <0>         0.0778
     53 H12        -1.3888   -6.1439    2.6698 H         1 <0>         0.1468
     54 H13        -1.4344   -8.4184    3.5448 H         1 <0>         0.1339
     55 H14         0.4720   -4.7201    6.2463 H         1 <0>         0.1595
     56 H15         0.8913   -8.5321    8.8569 H         1 <0>         0.2128
     57 H16        -1.3914  -10.1180    4.3736 H         1 <0>         0.4383
     58 H17        -0.0939  -11.1915    7.7674 H         1 <0>         0.2299
     59 H18        -0.1764  -15.0788    8.1593 H         1 <0>         0.1396
     60 H19         0.5826  -13.6311    8.8639 H         1 <0>         0.1633
     61 H20        -0.5428  -15.1696   10.8056 H         1 <0>         0.4210
     62 H21        -0.8799  -14.5220   13.2523 H         1 <0>         0.1376
     63 H22        -2.5961  -14.2439   14.9933 H         1 <0>         0.1439
     64 H23        -4.9639  -14.0091   14.3651 H         1 <0>         0.1423
     65 H24        -3.9087  -14.3175   10.2410 H         1 <0>         0.1477
     66 H25        -1.8856    0.4389   -1.2191 H         1 <0>         0.1423
     67 H26        -1.6482   -1.2803   -1.6148 H         1 <0>         0.1408
     68 H27        -4.0402   -0.7626   -1.6916 H         1 <0>         0.1052
     69 H28        -3.7172   -1.8203   -0.2969 H         1 <0>         0.0749
     70 H29        -6.8531    1.5139    1.8391 H         1 <0>         0.4246
     71 H30        -1.8231   -0.2157    1.1136 H         1 <0>         0.4343
     72 H31        -1.9019  -12.7316    4.3685 H         1 <0>         0.4711
     73 H32        -1.5334  -14.6468    5.9949 H         1 <0>         0.4758
@<TRIPOS>BOND
     1    1    2 1
     2    1   42 1
     3    1   43 1
     4    1   44 1
     5    2    3 1
     6    2   45 1
     7    2   46 1
     8    3    4 1
     9    3   35 1
    10    3   71 1
    11    4    5 1
    12    4   47 1
    13    4   48 1
    14    5    6 1
    15    5   49 1
    16    5   50 1
    17    6    7 1
    18    6   51 1
    19    6   52 1
    20    7    8 1
    21    8   13 ar
    22    8    9 ar
    23    9   10 ar
    24    9   53 1
    25   10   11 ar
    26   10   54 1
    27   11   17 ar
    28   11   12 ar
    29   12   13 ar
    30   12   14 ar
    31   13   55 1
    32   14   15 ar
    33   15   16 ar
    34   15   56 1
    35   16   17 ar
    36   17   18 1
    37   18   19 1
    38   18   57 1
    39   19   20 2
    40   19   23 1
    41   20   58 1
    42   20   21 1
    43   21   24 1
    44   21   22 2
    45   22   23 1
    46   22   73 1
    47   23   72 1
    48   24   25 1
    49   24   59 1
    50   24   60 1
    51   25   26 2
    52   25   27 am
    53   27   28 1
    54   27   61 1
    55   28   33 ar
    56   28   29 ar
    57   29   30 ar
    58   29   62 1
    59   30   31 ar
    60   30   63 1
    61   31   32 ar
    62   31   64 1
    63   32   33 ar
    64   32   34 1
    65   33   65 1
    66   35   36 1
    67   35   66 1
    68   35   67 1
    69   36   37 1
    70   36   68 1
    71   36   69 1
    72   37   38 1
    73   38   39 2
    74   38   40 1
    75   38   41 1
    76   41   70 1
@<TRIPOS>MOLECULE
ZINC11617039
   55    58     0     0     0
SMALL
USER_CHARGES

@<TRIPOS>ATOM
      1 H1          0.2120    6.2074    3.3921 H         1 <0>         0.1353
      2 C1         -0.6814    5.6062    3.3098 C.ar      1 <0>         0.0196
      3 C2         -1.0741    5.1311    2.1031 C.ar      1 <0>        -0.1998
      4 C3         -2.2288    4.3474    1.9606 C.ar      1 <0>         0.2426
      5 C4         -3.0111    4.0257    3.0293 C.ar      1 <0>        -0.1858
      6 C5         -2.6578    4.4884    4.3143 C.ar      1 <0>         0.1374
      7 C6         -1.4433    5.3059    4.4600 C.ar      1 <0>        -0.2352
      8 C7         -1.3367    5.6110    5.8041 C.2       1 <0>         0.1330
      9 N1         -2.3705    5.0424    6.4391 N.pl3     1 <0>        -0.3190
     10 N2         -3.1795    4.3626    5.5213 N.2       1 <0>        -0.3200
     11 C8         -2.6225    5.1281    7.8797 C.3       1 <0>         0.0831
     12 H2         -3.2434    5.9992    8.0888 H         1 <0>         0.0888
     13 H3         -3.1369    4.2268    8.2129 H         1 <0>         0.0992
     14 H4         -1.6744    5.2222    8.4094 H         1 <0>         0.0983
     15 C9         -0.2495    6.4365    6.4425 C.3       1 <0>        -0.1025
     16 H5         -0.5455    7.4855    6.4477 H         1 <0>         0.0927
     17 H6         -0.0907    6.0987    7.4666 H         1 <0>         0.0807
     18 H7          0.6740    6.3223    5.8749 H         1 <0>         0.0943
     19 H8         -3.8955    3.4210    2.8932 H         1 <0>         0.1075
     20 N3         -2.5862    3.8853    0.6908 N.pl3     1 <0>        -0.5925
     21 C10        -3.6562    3.0160    0.5454 C.ar      1 <0>         0.5430
     22 C11        -3.4766    1.6392    0.6984 C.ar      1 <0>        -0.2193
     23 C12        -4.5711    0.8111    0.5450 C.ar      1 <0>         0.2156
     24 N4         -5.7510    1.3422    0.2594 N.ar      1 <0>        -0.5411
     25 C13        -5.8925    2.6520    0.1199 C.ar      1 <0>         0.6254
     26 N5         -4.8692    3.4808    0.2639 N.ar      1 <0>        -0.5160
     27 N6         -7.1427    3.1682   -0.1788 N.pl3     1 <0>        -0.6061
     28 C14        -7.2911    4.5338   -0.4396 C.ar      1 <0>         0.0902
     29 C15        -6.2697    5.2382   -1.0645 C.ar      1 <0>        -0.0370
     30 C16        -6.4197    6.5867   -1.3210 C.ar      1 <0>        -0.1186
     31 C17        -7.5850    7.2362   -0.9562 C.ar      1 <0>         0.0334
     32 C18        -8.6034    6.5381   -0.3338 C.ar      1 <0>        -0.6606
     33 C19        -8.4623    5.1877   -0.0798 C.ar      1 <0>        -0.0140
     34 S1        -10.0857    7.3705    0.1294 S.o2      1 <0>         2.7024
     35 O1        -10.5091    8.1093   -1.0082 O.2       1 <0>        -0.9461
     36 O2        -10.9137    6.4040    0.7615 O.2       1 <0>        -0.9598
     37 N7         -9.6818    8.4799    1.2907 N.pl3     1 <0>        -1.2481
     38 C20        -7.7450    8.7080   -1.2374 C.3       1 <0>        -0.1567
     39 H9         -8.1929    8.8433   -2.2218 H         1 <0>         0.1090
     40 H10        -8.3897    9.1545   -0.4804 H         1 <0>         0.0769
     41 H11        -6.7680    9.1908   -1.2132 H         1 <0>         0.0924
     42 H12        -4.4665   -0.2581    0.6563 H         1 <0>         0.2280
     43 H13        -2.5039    1.2316    0.9310 H         1 <0>         0.1988
     44 C21        -1.8301    4.3196   -0.4864 C.3       1 <0>         0.0917
     45 H14        -1.0078    3.6271   -0.6659 H         1 <0>         0.0746
     46 H15        -2.4881    4.3354   -1.3553 H         1 <0>         0.0729
     47 H16        -1.4320    5.3196   -0.3140 H         1 <0>         0.0953
     48 H17        -0.4834    5.3620    1.2289 H         1 <0>         0.1346
     49 H18        -7.9152    2.5823   -0.2071 H         1 <0>         0.4391
     50 H19        -5.3592    4.7318   -1.3490 H         1 <0>         0.1427
     51 H20        -5.6260    7.1349   -1.8068 H         1 <0>         0.1482
     52 H21        -9.2599    4.6421    0.4024 H         1 <0>         0.1564
     53 H22        -8.7604    8.5635    1.5820 H         1 <0>         0.4174
     54 H23       -10.3667    9.0460    1.6797 H         1 <0>         0.4270
     55 H24        -6.5221    0.7638    0.1506 H         1 <0>         0.4504
@<TRIPOS>BOND
     1    1    2 1
     2    2    7 ar
     3    2    3 ar
     4    3    4 ar
     5    3   48 1
     6    4    5 ar
     7    4   20 1
     8    5    6 ar
     9    5   19 1
    10    6   10 2
    11    6    7 ar
    12    7    8 2
    13    8    9 1
    14    8   15 1
    15    9   10 1
    16    9   11 1
    17   11   12 1
    18   11   13 1
    19   11   14 1
    20   15   16 1
    21   15   17 1
    22   15   18 1
    23   20   21 1
    24   20   44 1
    25   21   26 ar
    26   21   22 ar
    27   22   23 ar
    28   22   43 1
    29   23   24 ar
    30   23   42 1
    31   24   25 ar
    32   24   55 1
    33   25   26 ar
    34   25   27 1
    35   27   28 1
    36   27   49 1
    37   28   33 ar
    38   28   29 ar
    39   29   30 ar
    40   29   50 1
    41   30   31 ar
    42   30   51 1
    43   31   32 ar
    44   31   38 1
    45   32   33 ar
    46   32   34 1
    47   33   52 1
    48   34   35 2
    49   34   36 2
    50   34   37 1
    51   37   53 1
    52   37   54 1
    53   38   39 1
    54   38   40 1
    55   38   41 1
    56   44   45 1
    57   44   46 1
    58   44   47 1
@<TRIPOS>MOLECULE
ZINC38995988
   51    55     0     0     0
SMALL
USER_CHARGES

@<TRIPOS>ATOM
      1 C1         -0.0167    1.3832    0.0096 C.ar      1 <0>        -0.0900
      2 C2          1.1624    2.0986    0.0022 C.ar      1 <0>        -0.1093
      3 C3          2.3769    1.4282   -0.0129 C.ar      1 <0>         0.0585
      4 C4          2.4020    0.0222   -0.0207 C.ar      1 <0>         0.0556
      5 C5          1.1969   -0.6870   -0.0127 C.ar      1 <0>        -0.0377
      6 C6          0.0021   -0.0041    0.0020 C.ar      1 <0>        -0.0874
      7 C7         -1.2962   -0.7693    0.0108 C.3       1 <0>         0.0982
      8 N1         -1.7317   -1.0105   -1.3713 N.3       1 <0>        -0.5319
      9 C8         -2.0812    0.2506   -2.0413 C.3       1 <0>         0.0140
     10 C9         -2.4711   -0.0400   -3.4930 C.3       1 <0>         0.0628
     11 O1         -3.5484   -0.9803   -3.5128 O.3       1 <0>        -0.3858
     12 C10        -3.2423   -2.2203   -2.8694 C.3       1 <0>         0.0630
     13 C11        -2.8603   -1.9518   -1.4114 C.3       1 <0>         0.0170
     14 N2          3.7040   -0.3552   -0.0358 N.2       1 <0>        -0.4791
     15 C12         4.4709    0.7083   -0.0379 C.2       1 <0>         0.3677
     16 N3          3.6969    1.8375   -0.0241 N.pl3     1 <0>        -0.5827
     17 C13         5.9482    0.6906   -0.0529 C.2       1 <0>         0.1128
     18 C14         6.7655   -0.4629   -0.0734 C.2       1 <0>         0.0625
     19 C15         8.0574   -0.0542   -0.0820 C.2       1 <0>         0.0467
     20 N4          8.0646    1.3049   -0.0675 N.pl3     1 <0>        -0.4518
     21 H1          8.8531    1.8699   -0.0696 H         1 <0>         0.4522
     22 N5          6.7361    1.7481   -0.0552 N.2       1 <0>        -0.2610
     23 N6          6.3179   -1.7953   -0.0825 N.am      1 <0>        -0.6484
     24 C16         7.2097   -2.8056   -0.1024 C.2       1 <0>         0.7112
     25 O2          8.4015   -2.5644   -0.1124 O.2       1 <0>        -0.5835
     26 N7          6.7806   -4.0832   -0.1111 N.am      1 <0>        -0.7107
     27 C17         7.7500   -5.1814   -0.1326 C.3       1 <0>         0.0984
     28 C18         7.4710   -6.3514   -1.0782 C.3       1 <0>        -0.1941
     29 C19         7.3013   -6.5309    0.4317 C.3       1 <0>        -0.1895
     30 H2         -0.9613    1.9065    0.0260 H         1 <0>         0.1292
     31 H3          1.1404    3.1784    0.0078 H         1 <0>         0.1265
     32 H4          1.2037   -1.7669   -0.0185 H         1 <0>         0.1329
     33 H5         -1.1522   -1.7232    0.5181 H         1 <0>         0.0877
     34 H6         -2.0559   -0.1898    0.5352 H         1 <0>         0.0479
     35 H7         -2.9207    0.7164   -1.5252 H         1 <0>         0.0435
     36 H8         -1.2233    0.9227   -2.0224 H         1 <0>         0.0909
     37 H9         -2.7857    0.8844   -3.9773 H         1 <0>         0.0978
     38 H10        -1.6147   -0.4564   -4.0234 H         1 <0>         0.0598
     39 H11        -4.1148   -2.8728   -2.9028 H         1 <0>         0.0988
     40 H12        -2.4084   -2.7001   -3.3817 H         1 <0>         0.0605
     41 H13        -2.5711   -2.8874   -0.9327 H         1 <0>         0.0882
     42 H14        -3.7122   -1.5212   -0.8852 H         1 <0>         0.0444
     43 H15         8.9269   -0.6946   -0.0972 H         1 <0>         0.2141
     44 H16         5.3672   -1.9876   -0.0745 H         1 <0>         0.4224
     45 H17         5.8299   -4.2755   -0.1031 H         1 <0>         0.4015
     46 H18         8.7902   -4.8932    0.0188 H         1 <0>         0.1414
     47 H19         6.5663   -6.3041   -1.6842 H         1 <0>         0.0976
     48 H20         8.3279   -6.8332   -1.5492 H         1 <0>         0.1039
     49 H21         8.0465   -7.1307    0.9541 H         1 <0>         0.1053
     50 H22         6.2849   -6.6016    0.8191 H         1 <0>         0.0980
     51 H23         4.0155    2.7537   -0.0227 H         1 <0>         0.4299
@<TRIPOS>BOND
     1    1    6 ar
     2    1    2 ar
     3    1   30 1
     4    2    3 ar
     5    2   31 1
     6    3   16 1
     7    3    4 ar
     8    4    5 ar
     9    4   14 1
    10    5    6 ar
    11    5   32 1
    12    6    7 1
    13    7    8 1
    14    7   33 1
    15    7   34 1
    16    8   13 1
    17    8    9 1
    18    9   10 1
    19    9   35 1
    20    9   36 1
    21   10   11 1
    22   10   37 1
    23   10   38 1
    24   11   12 1
    25   12   13 1
    26   12   39 1
    27   12   40 1
    28   13   41 1
    29   13   42 1
    30   14   15 2
    31   15   16 1
    32   15   17 1
    33   16   51 1
    34   17   22 2
    35   17   18 1
    36   18   19 2
    37   18   23 1
    38   19   20 1
    39   19   43 1
    40   20   21 1
    41   20   22 1
    42   23   24 am
    43   23   44 1
    44   24   25 2
    45   24   26 am
    46   26   27 1
    47   26   45 1
    48   27   29 1
    49   27   28 1
    50   27   46 1
    51   28   29 1
    52   28   47 1
    53   28   48 1
    54   29   49 1
    55   29   50 1
@<TRIPOS>MOLECULE
ZINC55760827
   83    87     0     0     0
SMALL
USER_CHARGES

@<TRIPOS>ATOM
      1 C1          0.1308    1.2757   -1.5114 C.3       1 <0>        -0.1457
      2 C2          0.0489   -0.2316   -1.2617 C.3       1 <0>        -0.5666
      3 C3          1.2691   -0.6821   -0.4560 C.3       1 <0>        -0.1409
      4 S1         -1.4624   -0.6093   -0.3323 S.o2      1 <0>         2.4858
      5 O1         -1.4234    0.0188    0.9418 O.2       1 <0>        -0.9268
      6 O2         -2.6005   -0.4734   -1.1723 O.2       1 <0>        -0.9405
      7 C4         -1.3622   -2.3341    0.0135 C.ar      1 <0>        -0.6839
      8 C5         -1.2554   -2.7725    1.3190 C.ar      1 <0>        -0.0030
      9 C6         -1.1772   -4.1258    1.5912 C.ar      1 <0>        -0.1503
     10 C7         -1.2056   -5.0450    0.5581 C.ar      1 <0>        -0.0467
     11 C8         -1.3123   -4.6135   -0.7492 C.ar      1 <0>        -0.1331
     12 C9         -1.3964   -3.2546   -1.0259 C.ar      1 <0>         0.2443
     13 N1         -1.5099   -2.8147   -2.3478 N.pl3     1 <0>        -0.6616
     14 C10        -0.8607   -3.4990   -3.3646 C.ar      1 <0>         0.4830
     15 C11        -0.8842   -3.0123   -4.6745 C.ar      1 <0>        -0.2526
     16 C12        -0.2236   -3.7275   -5.6550 C.ar      1 <0>         0.2363
     17 N2          0.4082   -4.8455   -5.3272 N.ar      1 <0>        -0.5723
     18 C13         0.4137   -5.2832   -4.0770 C.ar      1 <0>         0.5997
     19 N3         -0.2026   -4.6244   -3.1067 N.ar      1 <0>        -0.5908
     20 N4          1.0856   -6.4561   -3.7754 N.pl3     1 <0>        -0.6151
     21 C14         1.8542   -7.0973   -4.7591 C.ar      1 <0>         0.0827
     22 C15         2.3739   -6.3680   -5.8182 C.ar      1 <0>        -0.0385
     23 C16         3.1307   -6.9985   -6.7873 C.ar      1 <0>        -0.2089
     24 C17         3.3726   -8.3634   -6.7029 C.ar      1 <0>         0.2363
     25 C18         2.8541   -9.0969   -5.6442 C.ar      1 <0>        -0.2647
     26 C19         2.1002   -8.4653   -4.6693 C.ar      1 <0>         0.1479
     27 O3          1.5961   -9.1808   -3.6285 O.3       1 <0>        -0.3171
     28 C20         1.8884  -10.5793   -3.6006 C.3       1 <0>         0.0308
     29 N5          4.1389   -8.9999   -7.6857 N.pl3     1 <0>        -0.6295
     30 C21         4.7972   -8.2205   -8.7431 C.3       1 <0>         0.1228
     31 C22         4.3883   -8.7923  -10.1042 C.3       1 <0>        -0.1329
     32 C23         4.7023  -10.2897  -10.1391 C.3       1 <0>         0.0908
     33 C24         3.8977  -11.0068   -9.0526 C.3       1 <0>        -0.1308
     34 C25         4.3056  -10.4596   -7.6763 C.3       1 <0>         0.1234
     35 N6          4.3421  -10.8347  -11.4549 N.3       1 <0>        -0.5357
     36 C26         5.0321  -10.1106  -12.5318 C.3       1 <0>         0.0201
     37 C27         4.5853  -10.6681  -13.8850 C.3       1 <0>        -0.0022
     38 N7          4.9025  -12.1007  -13.9534 N.4       1 <0>        -0.3883
     39 C28         4.1869  -12.8138  -12.8872 C.3       1 <0>        -0.0021
     40 C29         4.6303  -12.2741  -11.5256 C.3       1 <0>         0.0207
     41 C30         4.4898  -12.6315  -15.2595 C.3       1 <0>        -0.0459
     42 Cl1        -1.7246   -1.5432   -5.0610 Cl        1 <0>        -0.0377
     43 H1          1.0389    1.5027   -2.0698 H         1 <0>         0.0885
     44 H2         -0.7385    1.5967   -2.0853 H         1 <0>         0.0736
     45 H3          0.1503    1.8016   -0.5568 H         1 <0>         0.0788
     46 H4          0.0294   -0.7574   -2.2162 H         1 <0>         0.1318
     47 H5          2.1772   -0.4551   -1.0145 H         1 <0>         0.0814
     48 H6          1.2886   -0.1562    0.4985 H         1 <0>         0.0798
     49 H7          1.2107   -1.7559   -0.2782 H         1 <0>         0.0704
     50 H8         -1.2325   -2.0574    2.1279 H         1 <0>         0.1501
     51 H9         -1.0933   -4.4659    2.6128 H         1 <0>         0.1365
     52 H10        -1.1440   -6.1014    0.7741 H         1 <0>         0.1352
     53 H11        -1.3341   -5.3318   -1.5555 H         1 <0>         0.1523
     54 H12        -2.0426   -2.0307   -2.5540 H         1 <0>         0.4348
     55 H13        -0.2223   -3.3794   -6.6774 H         1 <0>         0.1828
     56 H14         1.0250   -6.8344   -2.8843 H         1 <0>         0.4275
     57 H15         2.1866   -5.3065   -5.8858 H         1 <0>         0.1583
     58 H16         3.5343   -6.4292   -7.6115 H         1 <0>         0.1269
     59 H17         3.0423  -10.1584   -5.5787 H         1 <0>         0.1320
     60 H18         1.4922  -11.0513   -4.4997 H         1 <0>         0.0544
     61 H19         2.9680  -10.7241   -3.5600 H         1 <0>         0.0558
     62 H20         1.4281  -11.0293   -2.7210 H         1 <0>         0.1025
     63 H21         4.4859   -7.1780   -8.6762 H         1 <0>         0.0942
     64 H22         5.8789   -8.2891   -8.6279 H         1 <0>         0.0623
     65 H23         3.3196   -8.6410  -10.2562 H         1 <0>         0.0830
     66 H24         4.9438   -8.2856  -10.8934 H         1 <0>         0.0745
     67 H25         5.7671  -10.4417   -9.9625 H         1 <0>         0.0537
     68 H26         2.8336  -10.8347   -9.2145 H         1 <0>         0.0823
     69 H27         4.1040  -12.0763   -9.0933 H         1 <0>         0.0730
     70 H28         5.3481  -10.7071   -7.4760 H         1 <0>         0.0623
     71 H29         3.6699  -10.8950   -6.9053 H         1 <0>         0.0877
     72 H30         4.7834   -9.0509  -12.4750 H         1 <0>         0.1272
     73 H31         6.1092  -10.2381  -12.4236 H         1 <0>         0.0603
     74 H32         3.5103  -10.5282  -13.9986 H         1 <0>         0.1375
     75 H33         5.1067  -10.1420  -14.6847 H         1 <0>         0.1357
     76 H34         3.1139  -12.6629  -13.0058 H         1 <0>         0.1374
     77 H35         4.4128  -13.8785  -12.9471 H         1 <0>         0.1354
     78 H36         5.7008  -12.4372  -11.4009 H         1 <0>         0.0602
     79 H37         4.0885  -12.7929  -10.7348 H         1 <0>         0.1256
     80 H38         5.0217  -12.1033  -16.0508 H         1 <0>         0.1244
     81 H39         4.7251  -13.6946  -15.3105 H         1 <0>         0.1242
     82 H40         3.4165  -12.4904  -15.3864 H         1 <0>         0.1232
     83 H41         5.8962  -12.2309  -13.8366 H         1 <0>         0.4222
@<TRIPOS>BOND
     1    1    2 1
     2    1   43 1
     3    1   44 1
     4    1   45 1
     5    2    3 1
     6    2    4 1
     7    2   46 1
     8    3   47 1
     9    3   48 1
    10    3   49 1
    11    4    5 2
    12    4    6 2
    13    4    7 1
    14    7   12 ar
    15    7    8 ar
    16    8    9 ar
    17    8   50 1
    18    9   10 ar
    19    9   51 1
    20   10   11 ar
    21   10   52 1
    22   11   12 ar
    23   11   53 1
    24   12   13 1
    25   13   14 1
    26   13   54 1
    27   14   19 ar
    28   14   15 ar
    29   15   16 ar
    30   15   42 1
    31   16   17 ar
    32   16   55 1
    33   17   18 ar
    34   18   19 ar
    35   18   20 1
    36   20   21 1
    37   20   56 1
    38   21   26 ar
    39   21   22 ar
    40   22   23 ar
    41   22   57 1
    42   23   24 ar
    43   23   58 1
    44   24   25 ar
    45   24   29 1
    46   25   26 ar
    47   25   59 1
    48   26   27 1
    49   27   28 1
    50   28   60 1
    51   28   61 1
    52   28   62 1
    53   29   34 1
    54   29   30 1
    55   30   31 1
    56   30   63 1
    57   30   64 1
    58   31   32 1
    59   31   65 1
    60   31   66 1
    61   32   33 1
    62   32   35 1
    63   32   67 1
    64   33   34 1
    65   33   68 1
    66   33   69 1
    67   34   70 1
    68   34   71 1
    69   35   40 1
    70   35   36 1
    71   36   37 1
    72   36   72 1
    73   36   73 1
    74   37   38 1
    75   37   74 1
    76   37   75 1
    77   38   39 1
    78   38   41 1
    79   38   83 1
    80   39   40 1
    81   39   76 1
    82   39   77 1
    83   40   78 1
    84   40   79 1
    85   41   80 1
    86   41   81 1
    87   41   82 1
@<TRIPOS>MOLECULE
ZINC03816310
   51    55     0     0     0
SMALL
USER_CHARGES
4-amino-5-fluoro-3-[5-(4-methylpiperazin-1-yl)-3H-benzoimidazol-2-yl]-1H-quinolin-2-one
@<TRIPOS>ATOM
      1 C1         -4.4670    0.8494    3.0633 C.3       1 <0>        -0.0407
      2 C2         -3.3790    0.9463    0.9019 C.3       1 <0>         0.0019
      3 C3         -3.5151    1.4789   -0.5264 C.3       1 <0>         0.0203
      4 N1         -3.5799    2.9467   -0.4951 N.pl3     1 <0>        -0.4822
      5 C4         -4.7239    3.4034    0.3063 C.3       1 <0>         0.0231
      6 C5         -4.5878    2.8708    1.7347 C.3       1 <0>         0.0021
      7 C6         -3.6324    3.4738   -1.7895 C.ar      1 <0>         0.0898
      8 C7         -3.6187    2.6172   -2.8884 C.ar      1 <0>        -0.1658
      9 C8         -3.6694    3.1157   -4.1588 C.ar      1 <0>        -0.0428
     10 C9         -3.7362    4.4973   -4.3655 C.ar      1 <0>         0.0571
     11 C10        -3.7506    5.3641   -3.2589 C.ar      1 <0>         0.0655
     12 C11        -3.7036    4.8454   -1.9734 C.ar      1 <0>        -0.1134
     13 N2         -3.8198    6.6467   -3.7722 N.pl3     1 <0>        -0.5851
     14 H1         -3.8464    7.4962   -3.2453 H         1 <0>         0.4436
     15 C12        -3.8451    6.5353   -5.1390 C.2       1 <0>         0.4046
     16 N3         -3.7957    5.2687   -5.4809 N.2       1 <0>        -0.5294
     17 C13        -3.9164    7.6652   -6.0804 C.2       1 <0>        -0.3025
     18 C14        -4.0559    7.4305   -7.4504 C.2       1 <0>         0.3760
     19 C15        -4.1228    8.5898   -8.3476 C.ar      1 <0>        -0.1878
     20 C16        -4.0447    9.8830   -7.7997 C.ar      1 <0>         0.2450
     21 C17        -4.1078   10.9864   -8.6429 C.ar      1 <0>        -0.1734
     22 C18        -4.2458   10.8081  -10.0035 C.ar      1 <0>        -0.0185
     23 C19        -4.3231    9.5350  -10.5468 C.ar      1 <0>        -0.1801
     24 C20        -4.2628    8.4239   -9.7304 C.ar      1 <0>         0.1680
     25 F1         -4.3388    7.1843  -10.2623 F         1 <0>        -0.1206
     26 N4         -3.9076   10.0470   -6.4354 N.am      1 <0>        -0.6368
     27 H2         -3.8498   10.9715   -6.0585 H         1 <0>         0.4300
     28 C21        -3.8500    8.9949   -5.6023 C.2       1 <0>         0.5826
     29 O1         -3.7334    9.1908   -4.4050 O.2       1 <0>        -0.5600
     30 N5         -4.1288    6.1500   -7.9440 N.pl3     1 <0>        -0.8025
     31 H3         -3.5472    1.1734    3.5502 H         1 <0>         0.1241
     32 H4         -5.3249    1.2032    3.6351 H         1 <0>         0.1225
     33 H5         -4.4877   -0.2393    3.0134 H         1 <0>         0.1228
     34 H6         -3.3598   -0.1434    0.8835 H         1 <0>         0.1376
     35 H7         -2.4541    1.3189    1.3424 H         1 <0>         0.1399
     36 H8         -2.6529    1.1655   -1.1151 H         1 <0>         0.1307
     37 H9         -4.4260    1.0841   -0.9765 H         1 <0>         0.0717
     38 H10        -4.7431    4.4931    0.3248 H         1 <0>         0.1261
     39 H11        -5.6486    3.0309   -0.1345 H         1 <0>         0.0691
     40 H12        -3.6769    3.2656    2.1847 H         1 <0>         0.1400
     41 H13        -5.4498    3.1846    2.3235 H         1 <0>         0.1367
     42 H14        -3.5672    1.5496   -2.7341 H         1 <0>         0.1314
     43 H15        -3.6582    2.4431   -5.0037 H         1 <0>         0.1346
     44 H16        -3.7183    5.5073   -1.1202 H         1 <0>         0.1268
     45 H17        -4.0491   11.9836   -8.2323 H         1 <0>         0.1496
     46 H18        -4.2944   11.6697  -10.6529 H         1 <0>         0.1516
     47 H19        -4.4307    9.4121  -11.6144 H         1 <0>         0.1515
     48 H20        -4.3218    5.4103   -7.3468 H         1 <0>         0.4285
     49 H21        -3.9874    5.9859   -8.8895 H         1 <0>         0.4092
     50 N6         -4.5458    1.3938    1.6909 N.4       1 <0>        -0.3998
     51 H22        -5.4033    1.0486    1.2438 H         1 <0>         0.4274
@<TRIPOS>BOND
     1    1   31 1
     2    1   32 1
     3    1   33 1
     4    1   50 1
     5    2    3 1
     6    2   34 1
     7    2   35 1
     8    2   50 1
     9    3    4 1
    10    3   36 1
    11    3   37 1
    12    4    5 1
    13    4    7 1
    14    5    6 1
    15    5   38 1
    16    5   39 1
    17    6   40 1
    18    6   41 1
    19    6   50 1
    20    7   12 ar
    21    7    8 ar
    22    8    9 ar
    23    8   42 1
    24    9   10 ar
    25    9   43 1
    26   10   16 1
    27   10   11 ar
    28   11   12 ar
    29   11   13 1
    30   12   44 1
    31   13   14 1
    32   13   15 1
    33   15   16 2
    34   15   17 1
    35   17   28 1
    36   17   18 2
    37   18   19 1
    38   18   30 1
    39   19   24 ar
    40   19   20 ar
    41   20   21 ar
    42   20   26 1
    43   21   22 ar
    44   21   45 1
    45   22   23 ar
    46   22   46 1
    47   23   24 ar
    48   23   47 1
    49   24   25 1
    50   26   27 1
    51   26   28 am
    52   28   29 2
    53   30   48 1
    54   30   49 1
    55   50   51 1
@<TRIPOS>MOLECULE
ZINC03964325
   57    59     0     0     0
SMALL
USER_CHARGES

@<TRIPOS>ATOM
      1 C1          0.1489    2.0884    0.1150 C.3       1 <0>        -0.1876
      2 C2          0.1348    0.5603    0.1888 C.3       1 <0>        -0.0191
      3 N1         -1.2520    0.0881    0.2979 N.4       1 <0>        -0.3822
      4 C3         -1.9779    0.4111   -0.9377 C.3       1 <0>        -0.0142
      5 C4         -3.4549    0.0484   -0.7712 C.3       1 <0>        -0.1895
      6 C5         -1.2593   -1.3663    0.5041 C.3       1 <0>        -0.0265
      7 C6         -0.6131   -1.6936    1.8518 C.3       1 <0>         0.0952
      8 N2         -0.6203   -3.1440    2.0575 N.am      1 <0>        -0.7289
      9 C7         -0.0988   -3.6675    3.1846 C.2       1 <0>         0.6111
     10 O1          0.3779   -2.9358    4.0309 O.2       1 <0>        -0.5184
     11 C8         -0.1061   -5.1270    3.3915 C.2       1 <0>        -0.2420
     12 C9          0.9071   -6.0320    3.0089 C.2       1 <0>        -0.0577
     13 C10         0.4868   -7.2892    3.3960 C.2       1 <0>        -0.0075
     14 N3         -0.7476   -7.1595    3.9982 N.pl3     1 <0>        -0.4910
     15 H1         -1.2731   -7.8879    4.3645 H         1 <0>         0.4270
     16 C11        -1.1044   -5.8642    4.0022 C.2       1 <0>         0.1158
     17 C12        -2.3825   -5.3072    4.5743 C.3       1 <0>        -0.0999
     18 C13         1.1957   -8.4957    3.2079 C.2       1 <0>         0.0729
     19 C14         0.5100   -9.6674    2.9570 C.2       1 <0>        -0.1889
     20 C15         1.0648  -11.0377    2.8871 C.ar      1 <0>        -0.0736
     21 C16         2.3472  -11.5557    3.0375 C.ar      1 <0>        -0.1000
     22 C17         2.5553  -12.9162    2.9116 C.ar      1 <0>         0.0861
     23 C18         1.4888  -13.7593    2.6366 C.ar      1 <0>        -0.1139
     24 C19         0.2139  -13.2531    2.4856 C.ar      1 <0>        -0.1021
     25 C20        -0.0144  -11.8871    2.6092 C.ar      1 <0>         0.1282
     26 N4         -1.1765  -11.1301    2.5069 N.am      1 <0>        -0.6466
     27 C21        -0.9294   -9.8245    2.7079 C.2       1 <0>         0.5595
     28 O2         -1.7538   -8.9280    2.6842 O.2       1 <0>        -0.5156
     29 F1          3.7984  -13.4252    3.0561 F         1 <0>        -0.1318
     30 C22         2.1990   -5.6919    2.3116 C.3       1 <0>        -0.0931
     31 H2          1.1793    2.4435    0.1331 H         1 <0>         0.1076
     32 H3         -0.3308    2.4121   -0.8087 H         1 <0>         0.0811
     33 H4         -0.3916    2.4984    0.9682 H         1 <0>         0.0809
     34 H5          0.5888    0.1488   -0.7126 H         1 <0>         0.1317
     35 H6          0.6996    0.2334    1.0619 H         1 <0>         0.1337
     36 H7         -1.8867    1.4775   -1.1444 H         1 <0>         0.1351
     37 H8         -1.5554   -0.1571   -1.7664 H         1 <0>         0.1307
     38 H9         -3.5537   -1.0316   -0.6617 H         1 <0>         0.0802
     39 H10        -3.8523    0.5414    0.1160 H         1 <0>         0.0808
     40 H11        -4.0109    0.3769   -1.6492 H         1 <0>         0.1074
     41 H12        -2.2871   -1.7292    0.4963 H         1 <0>         0.1397
     42 H13        -0.6973   -1.8494   -0.2952 H         1 <0>         0.1376
     43 H14         0.4147   -1.3306    1.8596 H         1 <0>         0.0893
     44 H15        -1.1751   -1.2105    2.6511 H         1 <0>         0.0890
     45 H16        -1.0005   -3.7277    1.3824 H         1 <0>         0.4099
     46 H17        -3.1529   -5.3000    3.8032 H         1 <0>         0.0840
     47 H18        -2.7087   -5.9289    5.4080 H         1 <0>         0.0782
     48 H19        -2.2103   -4.2898    4.9254 H         1 <0>         0.0840
     49 H20         2.2744   -8.5020    3.2604 H         1 <0>         0.1589
     50 H21         3.1765  -10.8977    3.2512 H         1 <0>         0.1436
     51 H22         1.6578  -14.8215    2.5394 H         1 <0>         0.1485
     52 H23        -0.6084  -13.9196    2.2712 H         1 <0>         0.1415
     53 H24        -2.0541  -11.4980    2.3189 H         1 <0>         0.4217
     54 H25         2.9686   -5.4822    3.0545 H         1 <0>         0.0785
     55 H26         2.5107   -6.5337    1.6932 H         1 <0>         0.0726
     56 H27         2.0522   -4.8138    1.6827 H         1 <0>         0.0634
     57 H28        -1.7009    0.5410    1.0799 H         1 <0>         0.4247
@<TRIPOS>BOND
     1    1    2 1
     2    1   31 1
     3    1   32 1
     4    1   33 1
     5    2    3 1
     6    2   34 1
     7    2   35 1
     8    3    4 1
     9    3    6 1
    10    3   57 1
    11    4    5 1
    12    4   36 1
    13    4   37 1
    14    5   38 1
    15    5   39 1
    16    5   40 1
    17    6    7 1
    18    6   41 1
    19    6   42 1
    20    7    8 1
    21    7   43 1
    22    7   44 1
    23    8    9 am
    24    8   45 1
    25    9   10 2
    26    9   11 1
    27   11   16 2
    28   11   12 1
    29   12   13 2
    30   12   30 1
    31   13   14 1
    32   13   18 1
    33   14   15 1
    34   14   16 1
    35   16   17 1
    36   17   46 1
    37   17   47 1
    38   17   48 1
    39   18   19 2
    40   18   49 1
    41   19   27 1
    42   19   20 1
    43   20   25 ar
    44   20   21 ar
    45   21   22 ar
    46   21   50 1
    47   22   23 ar
    48   22   29 1
    49   23   24 ar
    50   23   51 1
    51   24   25 ar
    52   24   52 1
    53   25   26 1
    54   26   27 am
    55   26   53 1
    56   27   28 2
    57   30   54 1
    58   30   55 1
    59   30   56 1
@<TRIPOS>MOLECULE
ZINC01546066
   52    54     0     0     0
SMALL
USER_CHARGES

@<TRIPOS>ATOM
      1 C1          1.3190    1.4185    0.8998 C.3       1 <0>         0.0308
      2 O1          1.1221    0.0121    0.7412 O.3       1 <0>        -0.3842
      3 C2          1.6336   -0.7719    1.8209 C.3       1 <0>         0.0626
      4 C3          1.3686   -2.2534    1.5456 C.3       1 <0>         0.0560
      5 O2          2.1105   -2.6643    0.3955 O.3       1 <0>        -0.2877
      6 C4          1.9861   -3.9631    0.0122 C.ar      1 <0>         0.1163
      7 C5          1.1727   -4.8014    0.7206 C.ar      1 <0>        -0.1508
      8 C6          1.0439   -6.1386    0.3269 C.ar      1 <0>        -0.1822
      9 C7          1.7562   -6.6146   -0.8018 C.ar      1 <0>         0.2018
     10 C8          2.5842   -5.7378   -1.5132 C.ar      1 <0>        -0.1867
     11 C9          2.6894   -4.4253   -1.1088 C.ar      1 <0>         0.1692
     12 O3          3.4878   -3.5711   -1.8004 O.3       1 <0>        -0.2847
     13 C10         4.1782   -4.1019   -2.9333 C.3       1 <0>         0.0544
     14 C11         5.0210   -3.0002   -3.5791 C.3       1 <0>         0.0626
     15 O4          6.0448   -2.5894   -2.6708 O.3       1 <0>        -0.3848
     16 C12         6.8933   -1.5581   -3.1792 C.3       1 <0>         0.0309
     17 N1          1.6146   -7.9009   -1.1583 N.ar      1 <0>        -0.5426
     18 C13         0.8310   -8.6986   -0.4725 C.ar      1 <0>         0.3422
     19 N2          0.1465   -8.2987    0.5874 N.ar      1 <0>        -0.5807
     20 C14         0.2146   -7.0483    1.0253 C.ar      1 <0>         0.4641
     21 N3         -0.5043   -6.6451    2.1328 N.pl3     1 <0>        -0.6417
     22 C15        -1.2223   -7.5837    2.8797 C.ar      1 <0>         0.1534
     23 C16        -2.4417   -7.2339    3.4483 C.ar      1 <0>        -0.1365
     24 C17        -3.1548   -8.1581    4.1879 C.ar      1 <0>        -0.0976
     25 C18        -2.6612   -9.4349    4.3666 C.ar      1 <0>        -0.1098
     26 C19        -1.4382   -9.7960    3.7995 C.ar      1 <0>         0.0290
     27 C20        -0.7210   -8.8652    3.0488 C.ar      1 <0>        -0.0846
     28 C21        -0.9239  -11.1197    3.9839 C.1       1 <0>        -0.1518
     29 C22        -0.5023  -12.2049    4.1351 C.1       1 <0>        -0.1689
     30 H1          2.3858    1.6300    0.9737 H         1 <0>         0.0438
     31 H2          0.9034    1.9430    0.0394 H         1 <0>         0.0882
     32 H3          0.8182    1.7554    1.8074 H         1 <0>         0.0421
     33 H4          2.7069   -0.6059    1.9138 H         1 <0>         0.0642
     34 H5          1.1392   -0.4804    2.7476 H         1 <0>         0.0738
     35 H6          1.6782   -2.8442    2.4078 H         1 <0>         0.0797
     36 H7          0.3045   -2.4047    1.3647 H         1 <0>         0.0731
     37 H8          0.6320   -4.4344    1.5804 H         1 <0>         0.1376
     38 H9          3.1329   -6.0870   -2.3754 H         1 <0>         0.1546
     39 H10         4.8282   -4.9164   -2.6138 H         1 <0>         0.0783
     40 H11         3.4545   -4.4770   -3.6569 H         1 <0>         0.0849
     41 H12         5.4773   -3.3804   -4.4931 H         1 <0>         0.0752
     42 H13         4.3841   -2.1485   -3.8181 H         1 <0>         0.0638
     43 H14         6.2953   -0.6764   -3.4098 H         1 <0>         0.0434
     44 H15         7.6433   -1.3027   -2.4306 H         1 <0>         0.0879
     45 H16         7.3884   -1.9084   -4.0848 H         1 <0>         0.0424
     46 H17         0.7401   -9.7278   -0.7869 H         1 <0>         0.1966
     47 H18        -0.5113   -5.7106    2.3927 H         1 <0>         0.4197
     48 H19        -2.8329   -6.2365    3.3119 H         1 <0>         0.1281
     49 H20        -4.1012   -7.8805    4.6278 H         1 <0>         0.1331
     50 H21        -3.2213  -10.1542    4.9456 H         1 <0>         0.1284
     51 H22         0.2239   -9.1405    2.6039 H         1 <0>         0.1386
     52 H23        -0.1252  -13.1754    4.2703 H         1 <0>         0.2249
@<TRIPOS>BOND
     1    1    2 1
     2    1   30 1
     3    1   31 1
     4    1   32 1
     5    2    3 1
     6    3    4 1
     7    3   33 1
     8    3   34 1
     9    4    5 1
    10    4   35 1
    11    4   36 1
    12    5    6 1
    13    6   11 ar
    14    6    7 ar
    15    7    8 ar
    16    7   37 1
    17    8   20 ar
    18    8    9 ar
    19    9   10 ar
    20    9   17 ar
    21   10   11 ar
    22   10   38 1
    23   11   12 1
    24   12   13 1
    25   13   14 1
    26   13   39 1
    27   13   40 1
    28   14   15 1
    29   14   41 1
    30   14   42 1
    31   15   16 1
    32   16   43 1
    33   16   44 1
    34   16   45 1
    35   17   18 ar
    36   18   19 ar
    37   18   46 1
    38   19   20 ar
    39   20   21 1
    40   21   22 1
    41   21   47 1
    42   22   27 ar
    43   22   23 ar
    44   23   24 ar
    45   23   48 1
    46   24   25 ar
    47   24   49 1
    48   25   26 ar
    49   25   50 1
    50   26   27 ar
    51   26   28 1
    52   27   51 1
    53   28   29 3
    54   29   52 1
@<TRIPOS>MOLECULE
ZINC18710085
   53    57     0     0     0
SMALL
USER_CHARGES

@<TRIPOS>ATOM
      1 C1          0.0890    1.3306    0.4873 C.3       1 <0>         0.0749
      2 N1          0.4081   -0.0534    0.1284 N.pl3     1 <0>        -0.5085
      3 C2          0.3528   -0.6077   -1.1416 C.ar      1 <0>         0.0507
      4 C3          0.0137   -0.1123   -2.3916 C.ar      1 <0>        -0.0838
      5 C4          0.0591   -0.9388   -3.4947 C.ar      1 <0>        -0.1077
      6 C5          0.4436   -2.2696   -3.3617 C.ar      1 <0>         0.0751
      7 C6          0.7843   -2.7778   -2.1231 C.ar      1 <0>        -0.0835
      8 C7          0.7420   -1.9496   -0.9988 C.ar      1 <0>         0.0911
      9 N2          1.0108   -2.1503    0.3180 N.2       1 <0>        -0.5208
     10 C8          0.8212   -1.0367    0.9810 C.2       1 <0>         0.5369
     11 N3          1.0073   -0.8814    2.3399 N.pl3     1 <0>        -0.6412
     12 C9          1.5328   -1.9319    3.0980 C.ar      1 <0>         0.2053
     13 C10         2.3998   -2.8463    2.5135 C.ar      1 <0>        -0.1275
     14 C11         2.9176   -3.8826    3.2654 C.ar      1 <0>        -0.0424
     15 C12         2.5735   -4.0107    4.5987 C.ar      1 <0>        -0.2053
     16 C13         1.7106   -3.1021    5.1837 C.ar      1 <0>        -0.0432
     17 C14         1.1938   -2.0602    4.4389 C.ar      1 <0>        -0.1549
     18 C15         3.1396   -5.1433    5.4158 C.3       1 <0>         0.5100
     19 F1          4.3412   -4.7372    6.0062 F         1 <0>        -0.1771
     20 F2          2.2267   -5.5000    6.4140 F         1 <0>        -0.1778
     21 F3          3.3767   -6.2442    4.5857 F         1 <0>        -0.1766
     22 O1          0.4838   -3.0743   -4.4569 O.3       1 <0>        -0.2390
     23 C16        -0.5198   -3.9726   -4.6248 C.ar      1 <0>         0.1693
     24 C17        -1.5519   -4.0724   -3.6928 C.ar      1 <0>        -0.2330
     25 C18        -2.5577   -4.9965   -3.8940 C.ar      1 <0>         0.1462
     26 N4         -2.5549   -5.7828   -4.9518 N.ar      1 <0>        -0.5008
     27 C19        -1.5918   -5.7224   -5.8653 C.ar      1 <0>         0.2185
     28 C20        -0.5464   -4.8114   -5.7333 C.ar      1 <0>        -0.1453
     29 C21        -1.6332   -6.6264   -7.0353 C.2       1 <0>         0.2951
     30 N5         -2.5993   -7.5546   -7.2938 N.pl3     1 <0>        -0.5196
     31 H1         -3.3797   -7.7419   -6.7491 H         1 <0>         0.4364
     32 C22        -2.2593   -8.1700   -8.4662 C.2       1 <0>        -0.1211
     33 C23        -1.1072   -7.6076   -8.8883 C.2       1 <0>         0.0664
     34 N6         -0.7487   -6.6689   -8.0066 N.2       1 <0>        -0.4582
     35 C24        -3.0256   -9.2688   -9.1565 C.3       1 <0>         0.5516
     36 F4         -3.9502   -8.7065  -10.0431 F         1 <0>        -0.1675
     37 F5         -2.1361  -10.0835   -9.8651 F         1 <0>        -0.1592
     38 F6         -3.7018  -10.0363   -8.2021 F         1 <0>        -0.1759
     39 H2          0.9883    1.9420    0.4122 H         1 <0>         0.0804
     40 H3         -0.6705    1.7164   -0.1926 H         1 <0>         0.0932
     41 H4         -0.2881    1.3632    1.5095 H         1 <0>         0.0841
     42 H5         -0.2858    0.9195   -2.5011 H         1 <0>         0.1337
     43 H6         -0.2058   -0.5511   -4.4673 H         1 <0>         0.1432
     44 H7          1.0819   -3.8113   -2.0243 H         1 <0>         0.1405
     45 H8          0.7733   -0.0434    2.7688 H         1 <0>         0.4223
     46 H9          2.6684   -2.7473    1.4722 H         1 <0>         0.1551
     47 H10         3.5917   -4.5939    2.8116 H         1 <0>         0.1402
     48 H11         1.4439   -3.2049    6.2251 H         1 <0>         0.1410
     49 H12         0.5234   -1.3483    4.8975 H         1 <0>         0.1374
     50 H13        -1.5643   -3.4335   -2.8221 H         1 <0>         0.1469
     51 H14        -3.3584   -5.0766   -3.1737 H         1 <0>         0.1687
     52 H15         0.2337   -4.7602   -6.4784 H         1 <0>         0.1618
     53 H16        -0.5687   -7.8687   -9.7873 H         1 <0>         0.1936
@<TRIPOS>BOND
     1    1    2 1
     2    1   39 1
     3    1   40 1
     4    1   41 1
     5    2   10 1
     6    2    3 1
     7    3    8 ar
     8    3    4 ar
     9    4    5 ar
    10    4   42 1
    11    5    6 ar
    12    5   43 1
    13    6    7 ar
    14    6   22 1
    15    7    8 ar
    16    7   44 1
    17    8    9 1
    18    9   10 2
    19   10   11 1
    20   11   12 1
    21   11   45 1
    22   12   17 ar
    23   12   13 ar
    24   13   14 ar
    25   13   46 1
    26   14   15 ar
    27   14   47 1
    28   15   16 ar
    29   15   18 1
    30   16   17 ar
    31   16   48 1
    32   17   49 1
    33   18   19 1
    34   18   20 1
    35   18   21 1
    36   22   23 1
    37   23   28 ar
    38   23   24 ar
    39   24   25 ar
    40   24   50 1
    41   25   26 ar
    42   25   51 1
    43   26   27 ar
    44   27   28 ar
    45   27   29 1
    46   28   52 1
    47   29   34 2
    48   29   30 1
    49   30   31 1
    50   30   32 1
    51   32   33 2
    52   32   35 1
    53   33   34 1
    54   33   53 1
    55   35   36 1
    56   35   37 1
    57   35   38 1
@<TRIPOS>MOLECULE
ZINC03820040
   62    66     0     0     0
SMALL
USER_CHARGES
N-[4-[4-(4-methylpiperazin-1-yl)-6-[(5-methyl-2H-pyrazol-3-yl)amino]pyrimidin-2-yl]sulfanylphenyl]cyclopropanecarboxamide
@<TRIPOS>ATOM
      1 C1          1.8035   -7.6837    0.5070 C.3       1 <0>        -0.0779
      2 C2          2.3685   -6.3674    0.0389 C.2       1 <0>         0.0949
      3 C3          1.9325   -5.1020    0.4407 C.2       1 <0>        -0.2905
      4 C4          2.6904   -4.1743   -0.2066 C.2       1 <0>         0.3252
      5 N1          3.5799   -4.8447   -0.9836 N.pl3     1 <0>        -0.4853
      6 H1          4.2729   -4.4328   -1.5753 H         1 <0>         0.4473
      7 N2          3.3537   -6.2159   -0.8085 N.2       1 <0>        -0.2711
      8 N3          2.5778   -2.7905   -0.0888 N.pl3     1 <0>        -0.6296
      9 C5          1.3376   -2.2123    0.1391 C.ar      1 <0>         0.4706
     10 C6          0.1755   -2.9717    0.0343 C.ar      1 <0>        -0.2983
     11 C7         -1.0466   -2.3490    0.2714 C.ar      1 <0>         0.3791
     12 N4         -1.0643   -1.0564    0.5886 N.ar      1 <0>        -0.5664
     13 C8          0.0620   -0.3646    0.6795 C.ar      1 <0>         0.3511
     14 N5          1.2425   -0.9231    0.4557 N.ar      1 <0>        -0.5606
     15 S1         -0.0125    1.3444    1.1018 S.3       1 <0>         0.1303
     16 C9          1.7078    1.7032    1.2298 C.ar      1 <0>        -0.1638
     17 C10         2.3806    1.4637    2.4214 C.ar      1 <0>        -0.0284
     18 C11         3.7293    1.7409    2.5200 C.ar      1 <0>        -0.1315
     19 C12         4.4114    2.2681    1.4313 C.ar      1 <0>         0.1902
     20 C13         3.7379    2.5125    0.2417 C.ar      1 <0>        -0.1573
     21 C14         2.3903    2.2311    0.1410 C.ar      1 <0>        -0.0288
     22 N6          5.7793    2.5539    1.5333 N.am      1 <0>        -0.6744
     23 C15         6.5739    1.7808    2.2997 C.2       1 <0>         0.5466
     24 O1          6.1269    0.7811    2.8213 O.2       1 <0>        -0.5140
     25 C16         8.0178    2.1584    2.5086 C.3       1 <0>        -0.2022
     26 C17         9.0818    1.2604    1.8742 C.3       1 <0>        -0.1494
     27 C18         8.8679    1.2402    3.3890 C.3       1 <0>        -0.1425
     28 N7         -2.2296   -3.0657    0.1789 N.pl3     1 <0>        -0.4710
     29 C19        -2.3617   -3.6957   -1.1422 C.3       1 <0>         0.0277
     30 C20        -3.6379   -4.5399   -1.1765 C.3       1 <0>         0.0040
     31 C21        -4.6643   -3.0537    0.4349 C.3       1 <0>        -0.0004
     32 C22        -3.3881   -2.2095    0.4692 C.3       1 <0>         0.0347
     33 C23        -6.0501   -4.4431   -0.9842 C.3       1 <0>        -0.0407
     34 H2          2.3381   -8.0122    1.3982 H         1 <0>         0.0831
     35 H3          0.7460   -7.5623    0.7417 H         1 <0>         0.0784
     36 H4          1.9177   -8.4287   -0.2805 H         1 <0>         0.0774
     37 H5          1.1347   -4.8964    1.1389 H         1 <0>         0.1550
     38 H6          3.3667   -2.2314   -0.1662 H         1 <0>         0.4241
     39 H7          0.2211   -4.0192   -0.2246 H         1 <0>         0.1631
     40 H8          1.8494    1.0573    3.2693 H         1 <0>         0.1319
     41 H9          4.2533    1.5509    3.4451 H         1 <0>         0.1405
     42 H10         4.2686    2.9225   -0.6049 H         1 <0>         0.1339
     43 H11         1.8666    2.4209   -0.7843 H         1 <0>         0.1341
     44 H12         6.1543    3.3081    1.0523 H         1 <0>         0.4168
     45 H13         8.2224    3.2282    2.5520 H         1 <0>         0.1306
     46 H14         8.7374    0.3965    1.3057 H         1 <0>         0.0995
     47 H15         9.9866    1.7393    1.5000 H         1 <0>         0.1100
     48 H16         9.6320    1.7059    4.0114 H         1 <0>         0.1092
     49 H17         8.3827    0.3633    3.8175 H         1 <0>         0.1093
     50 H18        -2.4158   -2.9234   -1.9095 H         1 <0>         0.0737
     51 H19        -1.4982   -4.3342   -1.3286 H         1 <0>         0.1318
     52 H20        -3.5722   -5.3290   -0.4274 H         1 <0>         0.1439
     53 H21        -3.7533   -4.9852   -2.1646 H         1 <0>         0.1412
     54 H22        -4.6102   -3.8259    1.2022 H         1 <0>         0.1407
     55 H23        -5.5278   -2.4152    0.6217 H         1 <0>         0.1407
     56 H24        -3.2729   -1.7645    1.4575 H         1 <0>         0.1357
     57 H25        -3.4537   -1.4201   -0.2796 H         1 <0>         0.0793
     58 H26        -6.8948   -3.7714   -0.8313 H         1 <0>         0.1238
     59 H27        -6.1225   -4.8989   -1.9717 H         1 <0>         0.1230
     60 H28        -6.0632   -5.2226   -0.2224 H         1 <0>         0.1251
     61 N8         -4.7966   -3.6630   -0.9051 N.4       1 <0>        -0.4014
     62 H29        -4.8229   -2.9169   -1.6099 H         1 <0>         0.4281
@<TRIPOS>BOND
     1    1    2 1
     2    1   34 1
     3    1   35 1
     4    1   36 1
     5    2    7 2
     6    2    3 1
     7    3    4 2
     8    3   37 1
     9    4    5 1
    10    4    8 1
    11    5    6 1
    12    5    7 1
    13    8    9 1
    14    8   38 1
    15    9   14 ar
    16    9   10 ar
    17   10   11 ar
    18   10   39 1
    19   11   12 ar
    20   11   28 1
    21   12   13 ar
    22   13   14 ar
    23   13   15 1
    24   15   16 1
    25   16   21 ar
    26   16   17 ar
    27   17   18 ar
    28   17   40 1
    29   18   19 ar
    30   18   41 1
    31   19   20 ar
    32   19   22 1
    33   20   21 ar
    34   20   42 1
    35   21   43 1
    36   22   23 am
    37   22   44 1
    38   23   24 2
    39   23   25 1
    40   25   27 1
    41   25   26 1
    42   25   45 1
    43   26   27 1
    44   26   46 1
    45   26   47 1
    46   27   48 1
    47   27   49 1
    48   28   32 1
    49   28   29 1
    50   29   30 1
    51   29   50 1
    52   29   51 1
    53   30   52 1
    54   30   53 1
    55   30   61 1
    56   31   32 1
    57   31   54 1
    58   31   55 1
    59   31   61 1
    60   32   56 1
    61   32   57 1
    62   33   58 1
    63   33   59 1
    64   33   60 1
    65   33   61 1
    66   61   62 1
@<TRIPOS>MOLECULE
ZINC18710082
   51    54     0     0     0
SMALL
USER_CHARGES
N-(3,3-dimethylindolin-6-yl)-2-(4-pyridylmethylamino)pyridine-3-carboxamide
@<TRIPOS>ATOM
      1 C1         -0.1736   12.3280    1.7993 C.3       1 <0>        -0.1353
      2 C2          0.1708   11.8132    0.4003 C.3       1 <0>        -0.0256
      3 C3         -1.0658   11.8695   -0.5114 C.3       1 <0>         0.1234
      4 N1         -1.3159   10.4807   -0.9061 N.pl3     1 <0>        -0.7429
      5 C4         -0.3660    9.6387   -0.3256 C.ar      1 <0>         0.2160
      6 C5          0.5375   10.3468    0.4531 C.ar      1 <0>        -0.1735
      7 C6          1.5592    9.6928    1.1152 C.ar      1 <0>        -0.0387
      8 C7          1.6921    8.3220    1.0083 C.ar      1 <0>        -0.1957
      9 C8          0.7942    7.6005    0.2318 C.ar      1 <0>         0.1856
     10 C9         -0.2273    8.2550   -0.4368 C.ar      1 <0>        -0.1821
     11 N2          0.9251    6.2127    0.1203 N.am      1 <0>        -0.6647
     12 C10        -0.1735    5.4372    0.0302 C.2       1 <0>         0.5789
     13 O1         -1.2750    5.9485   -0.0352 O.2       1 <0>        -0.5287
     14 C11        -0.0401    3.9694    0.0111 C.ar      1 <0>        -0.2727
     15 C12         1.2239    3.3691   -0.0284 C.ar      1 <0>         0.0067
     16 C13         1.2952    1.9877   -0.0446 C.ar      1 <0>        -0.2460
     17 C14         0.1281    1.2446   -0.0215 C.ar      1 <0>         0.1889
     18 N3         -1.0535    1.8288    0.0102 N.ar      1 <0>        -0.5475
     19 C15        -1.1794    3.1469    0.0326 C.ar      1 <0>         0.4585
     20 N4         -2.4385    3.7170    0.0712 N.pl3     1 <0>        -0.6966
     21 C16        -3.6235    2.8669    0.2103 C.3       1 <0>         0.1646
     22 C17        -4.8603    3.7278    0.2259 C.ar      1 <0>        -0.0635
     23 C18        -5.3699    4.2164    1.4192 C.ar      1 <0>        -0.1527
     24 C19        -6.5037    5.0063    1.3940 C.ar      1 <0>         0.0990
     25 N5         -7.1042    5.2881    0.2543 N.ar      1 <0>        -0.4796
     26 C20        -6.6504    4.8370   -0.8988 C.ar      1 <0>         0.0984
     27 C21        -5.5189    4.0453   -0.9522 C.ar      1 <0>        -0.1533
     28 C22         1.3163   12.6286   -0.2029 C.3       1 <0>        -0.1347
     29 H1          0.6875   12.2011    2.4554 H         1 <0>         0.0611
     30 H2         -0.4352   13.3847    1.7435 H         1 <0>         0.0600
     31 H3         -1.0186   11.7650    2.1958 H         1 <0>         0.0571
     32 H4         -0.8602   12.4810   -1.3900 H         1 <0>         0.0683
     33 H5         -1.9215   12.2676    0.0338 H         1 <0>         0.0682
     34 H6         -2.0366   10.1891   -1.4861 H         1 <0>         0.4122
     35 H7          2.2565   10.2556    1.7181 H         1 <0>         0.1233
     36 H8          2.4915    7.8130    1.5263 H         1 <0>         0.1249
     37 H9         -0.9211    7.6916   -1.0433 H         1 <0>         0.1338
     38 H10         1.8066    5.8081    0.1078 H         1 <0>         0.4114
     39 H11         2.1214    3.9696   -0.0455 H         1 <0>         0.1354
     40 H12         2.2547    1.4928   -0.0753 H         1 <0>         0.1405
     41 H13         0.1860    0.1663   -0.0342 H         1 <0>         0.1633
     42 H14        -2.5372    4.6797    0.0061 H         1 <0>         0.4269
     43 H15        -3.6739    2.1736   -0.6293 H         1 <0>         0.0815
     44 H16        -3.5601    2.3050    1.1421 H         1 <0>         0.0787
     45 H17        -4.8851    3.9853    2.3562 H         1 <0>         0.1361
     46 H18        -6.9051    5.3935    2.3188 H         1 <0>         0.1583
     47 H19        -7.1692    5.0889   -1.8119 H         1 <0>         0.1582
     48 H20        -5.1525    3.6783   -1.8995 H         1 <0>         0.1363
     49 H21         1.5192   12.2770   -1.2145 H         1 <0>         0.0571
     50 H22         1.0360   13.6815   -0.2335 H         1 <0>         0.0599
     51 H23         2.2099   12.5082    0.4097 H         1 <0>         0.0612
@<TRIPOS>BOND
     1    1    2 1
     2    1   29 1
     3    1   30 1
     4    1   31 1
     5    2    6 1
     6    2    3 1
     7    2   28 1
     8    3    4 1
     9    3   32 1
    10    3   33 1
    11    4    5 1
    12    4   34 1
    13    5   10 ar
    14    5    6 ar
    15    6    7 ar
    16    7    8 ar
    17    7   35 1
    18    8    9 ar
    19    8   36 1
    20    9   10 ar
    21    9   11 1
    22   10   37 1
    23   11   12 am
    24   11   38 1
    25   12   13 2
    26   12   14 1
    27   14   19 ar
    28   14   15 ar
    29   15   16 ar
    30   15   39 1
    31   16   17 ar
    32   16   40 1
    33   17   18 ar
    34   17   41 1
    35   18   19 ar
    36   19   20 1
    37   20   21 1
    38   20   42 1
    39   21   22 1
    40   21   43 1
    41   21   44 1
    42   22   27 ar
    43   22   23 ar
    44   23   24 ar
    45   23   45 1
    46   24   25 ar
    47   24   46 1
    48   25   26 ar
    49   26   27 ar
    50   26   47 1
    51   27   48 1
    52   28   49 1
    53   28   50 1
    54   28   51 1
@<TRIPOS>MOLECULE
ZINC18825339
   59    62     0     0     0
SMALL
USER_CHARGES
5-[(Z)-(5-fluoro-2-oxo-indolin-3-ylidene)methyl]-N-[(2R)-2-hydroxy-3-morpholino-propyl]-2,4-dimethyl-1H-pyrrole-3-carboxamide
@<TRIPOS>ATOM
      1 C1          3.5607    0.7280    0.3667 C.3       1 <0>        -0.0956
      2 C2          2.0758    0.7165    0.1102 C.2       1 <0>        -0.0564
      3 C3          1.2591    1.8188   -0.0477 C.2       1 <0>        -0.0308
      4 N1         -0.0271    1.3691   -0.2640 N.pl3     1 <0>        -0.5068
      5 H1         -0.8436    2.0903   -0.4163 H         1 <0>         0.4494
      6 C4         -0.0354    0.0257   -0.2455 C.2       1 <0>         0.1277
      7 C5          1.2525   -0.4230   -0.0155 C.2       1 <0>        -0.2308
      8 C6          1.6847   -1.8291    0.0810 C.2       1 <0>         0.5980
      9 O1          2.0430   -2.4250   -0.9167 O.2       1 <0>        -0.5421
     10 N2          1.6827   -2.4542    1.2750 N.am      1 <0>        -0.7266
     11 C7          2.1121   -3.8516    1.3710 C.3       1 <0>         0.1299
     12 C8          2.0150   -4.3162    2.8255 C.3       1 <0>         0.1144
     13 H2          2.5334   -3.6206    3.5018 H         1 <0>         0.0568
     14 C9          2.5799   -5.7329    2.9471 C.3       1 <0>         0.0228
     15 N3          2.4867   -6.1790    4.3436 N.3       1 <0>        -0.5349
     16 C10         3.3671   -5.3829    5.2109 C.3       1 <0>         0.0083
     17 C11         3.1945   -5.8402    6.6618 C.3       1 <0>         0.0618
     18 O2          3.4694   -7.2408    6.7508 O.3       1 <0>        -0.3843
     19 C12         2.6296   -8.0463    5.9193 C.3       1 <0>         0.0614
     20 C13         2.7965   -7.6114    4.4609 C.3       1 <0>         0.0172
     21 O3          0.6463   -4.3123    3.2364 O.3       1 <0>        -0.5882
     22 C14        -1.2476   -0.8477   -0.4426 C.3       1 <0>        -0.0994
     23 C15         1.6686    3.1691    0.0027 C.2       1 <0>         0.0908
     24 C16         0.8216    4.1284    0.5209 C.2       1 <0>        -0.2125
     25 C17         1.0162    5.5955    0.5210 C.ar      1 <0>        -0.0684
     26 C18         2.0202    6.4240    0.0297 C.ar      1 <0>        -0.1043
     27 C19         1.9118    7.7937    0.1786 C.ar      1 <0>         0.0808
     28 C20         0.8031    8.3379    0.8097 C.ar      1 <0>        -0.1198
     29 C21        -0.2000    7.5233    1.2941 C.ar      1 <0>        -0.1061
     30 C22        -0.1080    6.1430    1.1533 C.ar      1 <0>         0.1250
     31 N4         -0.9593    5.1144    1.5420 N.am      1 <0>        -0.6604
     32 C23        -0.4649    3.9133    1.1971 C.2       1 <0>         0.5647
     33 O4         -0.9909    2.8351    1.4086 O.2       1 <0>        -0.5132
     34 F1          2.8866    8.6030   -0.2904 F         1 <0>        -0.1355
     35 H3          3.9167    1.7678    0.4131 H         1 <0>         0.0672
     36 H4          4.0776    0.1994   -0.4478 H         1 <0>         0.0746
     37 H5          3.7717    0.2252    1.3221 H         1 <0>         0.0710
     38 H6          1.3586   -1.9152    2.1775 H         1 <0>         0.4262
     39 H7          1.4633   -4.4786    0.7417 H         1 <0>         0.0750
     40 H8          3.1531   -3.9398    1.0266 H         1 <0>         0.0785
     41 H9          2.0023   -6.4143    2.3052 H         1 <0>         0.0900
     42 H10         3.6334   -5.7360    2.6307 H         1 <0>         0.0465
     43 H11         4.4130   -5.5254    4.9015 H         1 <0>         0.0459
     44 H12         3.1012   -4.3189    5.1257 H         1 <0>         0.0881
     45 H13         3.8925   -5.2859    7.3064 H         1 <0>         0.1001
     46 H14         2.1618   -5.6458    6.9871 H         1 <0>         0.0615
     47 H15         2.9156   -9.1033    6.0238 H         1 <0>         0.1009
     48 H16         1.5805   -7.9185    6.2243 H         1 <0>         0.0621
     49 H17         2.1104   -8.1883    3.8234 H         1 <0>         0.0898
     50 H18         3.8332   -7.7899    4.1393 H         1 <0>         0.0455
     51 H19         0.3780   -4.6185    4.2583 H         1 <0>         0.4136
     52 H20        -0.9523   -1.9052   -0.3757 H         1 <0>         0.0845
     53 H21        -1.6843   -0.6508   -1.4328 H         1 <0>         0.0777
     54 H22        -1.9909   -0.6245    0.3369 H         1 <0>         0.0809
     55 H23         2.6624    3.4568   -0.3709 H         1 <0>         0.1579
     56 H24         2.8828    5.9984   -0.4614 H         1 <0>         0.1409
     57 H25         0.7239    9.4091    0.9228 H         1 <0>         0.1443
     58 H26        -1.0583    7.9589    1.7840 H         1 <0>         0.1386
     59 H27        -1.9003    5.3463    2.0623 H         1 <0>         0.4455
@<TRIPOS>BOND
     1    1    2 1
     2    1   35 1
     3    1   36 1
     4    1   37 1
     5    2    7 1
     6    2    3 2
     7    3    4 1
     8    3   23 1
     9    4    5 1
    10    4    6 1
    11    6    7 2
    12    6   22 1
    13    7    8 1
    14    8    9 2
    15    8   10 am
    16   10   11 1
    17   10   38 1
    18   11   12 1
    19   11   39 1
    20   11   40 1
    21   12   13 1
    22   12   14 1
    23   12   21 1
    24   14   15 1
    25   14   41 1
    26   14   42 1
    27   15   20 1
    28   15   16 1
    29   16   17 1
    30   16   43 1
    31   16   44 1
    32   17   18 1
    33   17   45 1
    34   17   46 1
    35   18   19 1
    36   19   20 1
    37   19   47 1
    38   19   48 1
    39   20   49 1
    40   20   50 1
    41   21   51 1
    42   22   52 1
    43   22   53 1
    44   22   54 1
    45   23   24 2
    46   23   55 1
    47   24   32 1
    48   24   25 1
    49   25   30 ar
    50   25   26 ar
    51   26   27 ar
    52   26   56 1
    53   27   28 ar
    54   27   34 1
    55   28   29 ar
    56   28   57 1
    57   29   30 ar
    58   29   58 1
    59   30   31 1
    60   31   32 am
    61   31   59 1
    62   32   33 2
@<TRIPOS>MOLECULE
ZINC18825344
   59    62     0     0     0
SMALL
USER_CHARGES
5-[(Z)-(5-fluoro-2-oxo-indolin-3-ylidene)methyl]-N-[(2S)-2-hydroxy-3-morpholino-propyl]-2,4-dimethyl-1H-pyrrole-3-carboxamide
@<TRIPOS>ATOM
      1 C1          4.7056    0.6287    1.0117 C.3       1 <0>        -0.0968
      2 C2          3.2464    0.8378    0.6983 C.2       1 <0>        -0.0523
      3 C3          2.5980    2.0501    0.5678 C.2       1 <0>        -0.0327
      4 N1          1.2732    1.7961    0.2789 N.pl3     1 <0>        -0.5060
      5 H1          0.5720    2.6311    0.1339 H         1 <0>         0.4496
      6 C4          1.0783    0.4679    0.2258 C.2       1 <0>         0.1246
      7 C5          2.2801   -0.1676    0.4808 C.2       1 <0>        -0.2308
      8 C6          2.5088   -1.6234    0.5191 C.2       1 <0>         0.5976
      9 O1          2.8262   -2.2159   -0.4944 O.2       1 <0>        -0.5428
     10 N2          2.3662   -2.2977    1.6773 N.am      1 <0>        -0.7254
     11 C7          2.5935   -3.7444    1.7154 C.3       1 <0>         0.1298
     12 C8          2.3672   -4.2590    3.1384 C.3       1 <0>         0.1172
     13 H2          1.3599   -4.0040    3.4994 H         1 <0>         0.0560
     14 C9          2.6045   -5.7699    3.1781 C.3       1 <0>         0.0219
     15 N3          2.3382   -6.2720    4.5327 N.3       1 <0>        -0.5356
     16 C10         2.9762   -7.5793    4.7450 C.3       1 <0>         0.0168
     17 C11         2.7241   -8.0365    6.1842 C.3       1 <0>         0.0612
     18 O2          1.3152   -8.0759    6.4267 O.3       1 <0>        -0.3844
     19 C12         0.6618   -6.8191    6.2299 C.3       1 <0>         0.0617
     20 C13         0.8930   -6.3496    4.7911 C.3       1 <0>         0.0111
     21 O3          3.2765   -3.6103    4.0297 O.3       1 <0>        -0.5892
     22 C14        -0.2328   -0.2165   -0.0637 C.3       1 <0>        -0.0987
     23 C15         3.1876    3.3256    0.7056 C.2       1 <0>         0.0935
     24 C16         2.4515    4.3746    1.2192 C.2       1 <0>        -0.2157
     25 C17         2.8515    5.7966    1.3077 C.ar      1 <0>        -0.0669
     26 C18         3.9943    6.4912    0.9234 C.ar      1 <0>        -0.1048
     27 C19         4.0710    7.8545    1.1363 C.ar      1 <0>         0.0814
     28 C20         3.0098    8.5263    1.7247 C.ar      1 <0>        -0.1204
     29 C21         1.8704    7.8457    2.1029 C.ar      1 <0>        -0.1055
     30 C22         1.7753    6.4739    1.8965 C.ar      1 <0>         0.1237
     31 N4          0.7622    5.5637    2.1775 N.am      1 <0>        -0.6596
     32 C23         1.1039    4.3195    1.8021 C.2       1 <0>         0.5657
     33 O4          0.4171    3.3209    1.9242 O.2       1 <0>        -0.5153
     34 F1          5.1807    8.5334    0.7715 F         1 <0>        -0.1355
     35 H3          5.1994    1.6049    1.1269 H         1 <0>         0.0668
     36 H4          5.1808    0.0720    0.1906 H         1 <0>         0.0744
     37 H5          4.8016    0.0567    1.9464 H         1 <0>         0.0741
     38 H6          2.0791   -1.7617    2.5940 H         1 <0>         0.4273
     39 H7          1.8935   -4.2437    1.0293 H         1 <0>         0.0777
     40 H8          3.6268   -3.9615    1.4070 H         1 <0>         0.0736
     41 H9          1.9304   -6.2658    2.4641 H         1 <0>         0.0486
     42 H10         3.6486   -5.9844    2.9062 H         1 <0>         0.0884
     43 H11         2.5501   -8.3132    4.0451 H         1 <0>         0.0451
     44 H12         4.0587   -7.4917    4.5704 H         1 <0>         0.0900
     45 H13         3.1515   -9.0395    6.3305 H         1 <0>         0.1008
     46 H14         3.1986   -7.3305    6.8817 H         1 <0>         0.0620
     47 H15        -0.4170   -6.9344    6.4112 H         1 <0>         0.1000
     48 H16         1.0741   -6.0778    6.9303 H         1 <0>         0.0613
     49 H17         0.4415   -5.3564    4.6504 H         1 <0>         0.0873
     50 H18         0.4333   -7.0637    4.0920 H         1 <0>         0.0461
     51 H19         3.2627   -3.8533    5.1024 H         1 <0>         0.4141
     52 H20        -0.0899   -1.3070   -0.0417 H         1 <0>         0.0829
     53 H21        -0.5927    0.0862   -1.0581 H         1 <0>         0.0781
     54 H22        -0.9728    0.0718    0.6974 H         1 <0>         0.0803
     55 H23         4.2335    3.4835    0.4037 H         1 <0>         0.1584
     56 H24         4.8196    5.9664    0.4654 H         1 <0>         0.1411
     57 H25         3.0756    9.5918    1.8882 H         1 <0>         0.1443
     58 H26         1.0507    8.3797    2.5605 H         1 <0>         0.1385
     59 H27        -0.1701    5.9069    2.6497 H         1 <0>         0.4455
@<TRIPOS>BOND
     1    1    2 1
     2    1   35 1
     3    1   36 1
     4    1   37 1
     5    2    7 1
     6    2    3 2
     7    3    4 1
     8    3   23 1
     9    4    5 1
    10    4    6 1
    11    6    7 2
    12    6   22 1
    13    7    8 1
    14    8    9 2
    15    8   10 am
    16   10   11 1
    17   10   38 1
    18   11   12 1
    19   11   39 1
    20   11   40 1
    21   12   13 1
    22   12   14 1
    23   12   21 1
    24   14   15 1
    25   14   41 1
    26   14   42 1
    27   15   20 1
    28   15   16 1
    29   16   17 1
    30   16   43 1
    31   16   44 1
    32   17   18 1
    33   17   45 1
    34   17   46 1
    35   18   19 1
    36   19   20 1
    37   19   47 1
    38   19   48 1
    39   20   49 1
    40   20   50 1
    41   21   51 1
    42   22   52 1
    43   22   53 1
    44   22   54 1
    45   23   24 2
    46   23   55 1
    47   24   32 1
    48   24   25 1
    49   25   30 ar
    50   25   26 ar
    51   26   27 ar
    52   26   56 1
    53   27   28 ar
    54   27   34 1
    55   28   29 ar
    56   28   57 1
    57   29   30 ar
    58   29   58 1
    59   30   31 1
    60   31   32 am
    61   31   59 1
    62   32   33 2
@<TRIPOS>MOLECULE
ZINC23247639
   69    72     0     0     0
SMALL
USER_CHARGES
1-[4-[(4-ethylpiperazin-1-yl)methyl]-3-(trifluoromethyl)phenyl]-3-[4-(6-methylaminopyrimidin-4-yl)oxyphenyl]urea
@<TRIPOS>ATOM
      1 C1          8.9417    3.3719    8.2172 C.3       1 <0>        -0.1901
      2 C2         10.1498    2.9102    7.3997 C.3       1 <0>        -0.0070
      3 N1          9.9972    3.3533    6.0075 N.4       1 <0>        -0.4011
      4 C3         11.2367    3.1387    5.2477 C.3       1 <0>         0.0016
      5 C4         11.0629    3.6845    3.8284 C.3       1 <0>         0.0271
      6 N2          9.9288    3.0094    3.1822 N.3       1 <0>        -0.5300
      7 C5          8.6893    3.2240    3.9420 C.3       1 <0>         0.0232
      8 C6          8.8631    2.6781    5.3612 C.3       1 <0>        -0.0016
      9 C7          9.7762    3.4524    1.7899 C.3       1 <0>         0.0786
     10 C8          8.7879    2.5601    1.0842 C.ar      1 <0>        -0.0666
     11 C9          7.5022    3.0092    0.8434 C.ar      1 <0>        -0.0932
     12 C10         6.5958    2.1959    0.1923 C.ar      1 <0>        -0.0888
     13 C11         6.9731    0.9214   -0.2106 C.ar      1 <0>         0.1880
     14 C12         8.2646    0.4735    0.0326 C.ar      1 <0>        -0.1043
     15 C13         9.1683    1.2940    0.6793 C.ar      1 <0>        -0.1369
     16 C14        10.5702    0.8086    0.9441 C.3       1 <0>         0.5111
     17 F1         10.7250   -0.4786    0.4184 F         1 <0>        -0.1776
     18 F2         11.4860    1.6739    0.3362 F         1 <0>        -0.1774
     19 F3         10.8008    0.7797    2.3237 F         1 <0>        -0.1628
     20 N3          6.0552    0.0926   -0.8655 N.am      1 <0>        -0.6979
     21 C15         4.7513    0.1311   -0.5266 C.2       1 <0>         0.7117
     22 O1          4.3858    0.8194    0.4067 O.2       1 <0>        -0.5623
     23 N4          3.8526   -0.5934   -1.2222 N.am      1 <0>        -0.6900
     24 C16         2.4863   -0.4790   -0.9335 C.ar      1 <0>         0.1635
     25 C17         1.5516   -0.5518   -1.9576 C.ar      1 <0>        -0.1265
     26 C18         0.2052   -0.4394   -1.6724 C.ar      1 <0>        -0.0923
     27 C19        -0.2137   -0.2543   -0.3628 C.ar      1 <0>         0.0841
     28 C20         0.7198   -0.1815    0.6609 C.ar      1 <0>        -0.0957
     29 C21         2.0665   -0.2932    0.3769 C.ar      1 <0>        -0.1058
     30 O2         -1.5393   -0.1385   -0.0833 O.3       1 <0>        -0.2424
     31 C22        -2.3129   -1.2454   -0.1983 C.ar      1 <0>         0.3836
     32 C23        -3.6894   -1.1637   -0.0277 C.ar      1 <0>        -0.3134
     33 C24        -4.4409   -2.3284   -0.1601 C.ar      1 <0>         0.4631
     34 N5         -3.8165   -3.4721   -0.4341 N.ar      1 <0>        -0.5936
     35 C25        -2.5082   -3.5081   -0.5840 C.ar      1 <0>         0.3760
     36 N6         -1.7644   -2.4263   -0.4707 N.ar      1 <0>        -0.6039
     37 N7         -5.8178   -2.2988   -0.0034 N.pl3     1 <0>        -0.7218
     38 C26        -6.4937   -1.0344    0.2979 C.3       1 <0>         0.0891
     39 H1          9.0560    3.0401    9.2597 H         1 <0>         0.1066
     40 H2          8.0243    2.9380    7.7928 H         1 <0>         0.0798
     41 H3          8.8763    4.4695    8.1868 H         1 <0>         0.0803
     42 H4         11.0672    3.3441    7.8241 H         1 <0>         0.1306
     43 H5         10.2153    1.8126    7.4301 H         1 <0>         0.1269
     44 H6         12.0665    3.6630    5.7442 H         1 <0>         0.1361
     45 H7         11.4577    2.0621    5.2031 H         1 <0>         0.1357
     46 H8         10.8699    4.7665    3.8728 H         1 <0>         0.0625
     47 H9         11.9796    3.4990    3.2494 H         1 <0>         0.1239
     48 H10         8.4684    4.3007    3.9867 H         1 <0>         0.0621
     49 H11         7.8594    2.6998    3.4455 H         1 <0>         0.1239
     50 H12         9.0569    1.5962    5.3178 H         1 <0>         0.1351
     51 H13         7.9470    2.8635    5.9412 H         1 <0>         0.1359
     52 H14         9.4106    4.4897    1.7732 H         1 <0>         0.0663
     53 H15        10.7489    3.3982    1.2791 H         1 <0>         0.1073
     54 H16         7.2082    3.9988    1.1607 H         1 <0>         0.1358
     55 H17         5.5933    2.5489    0.0003 H         1 <0>         0.1466
     56 H18         8.5625   -0.5152   -0.2838 H         1 <0>         0.1447
     57 H19         6.3979   -0.5903   -1.6569 H         1 <0>         0.4387
     58 H20         4.1917   -1.2745   -2.0166 H         1 <0>         0.4355
     59 H21         1.8775   -0.6959   -2.9771 H         1 <0>         0.1334
     60 H22        -0.5220   -0.4960   -2.4689 H         1 <0>         0.1303
     61 H23         0.3932   -0.0371    1.6801 H         1 <0>         0.1327
     62 H24         2.7931   -0.2369    1.1740 H         1 <0>         0.1442
     63 H25        -4.1646   -0.2205    0.1982 H         1 <0>         0.1466
     64 H26        -2.0315   -4.4515   -0.8058 H         1 <0>         0.2000
     65 H27        -6.4030   -3.2246   -0.1053 H         1 <0>         0.4376
     66 H28        -7.5762   -1.2091    0.3856 H         1 <0>         0.0864
     67 H29        -6.3028   -0.3146   -0.5117 H         1 <0>         0.0603
     68 H30        -6.1096   -0.6302    1.2461 H         1 <0>         0.0599
     69 H31         9.7882    4.4332    6.0188 H         1 <0>         0.4364
@<TRIPOS>BOND
     1    1    2 1
     2    1   39 1
     3    1   40 1
     4    1   41 1
     5    2    3 1
     6    2   42 1
     7    2   43 1
     8    3    8 1
     9    3    4 1
    10    3   69 1
    11    4    5 1
    12    4   44 1
    13    4   45 1
    14    5    6 1
    15    5   46 1
    16    5   47 1
    17    6    7 1
    18    6    9 1
    19    7    8 1
    20    7   48 1
    21    7   49 1
    22    8   50 1
    23    8   51 1
    24    9   10 1
    25    9   52 1
    26    9   53 1
    27   10   15 ar
    28   10   11 ar
    29   11   12 ar
    30   11   54 1
    31   12   13 ar
    32   12   55 1
    33   13   14 ar
    34   13   20 1
    35   14   15 ar
    36   14   56 1
    37   15   16 1
    38   16   17 1
    39   16   18 1
    40   16   19 1
    41   20   21 am
    42   20   57 1
    43   21   22 2
    44   21   23 am
    45   23   24 1
    46   23   58 1
    47   24   29 ar
    48   24   25 ar
    49   25   26 ar
    50   25   59 1
    51   26   27 ar
    52   26   60 1
    53   27   28 ar
    54   27   30 1
    55   28   29 ar
    56   28   61 1
    57   29   62 1
    58   30   31 1
    59   31   36 ar
    60   31   32 ar
    61   32   33 ar
    62   32   63 1
    63   33   34 ar
    64   33   37 1
    65   34   35 ar
    66   35   36 ar
    67   35   64 1
    68   37   38 1
    69   37   65 1
    70   38   66 1
    71   38   67 1
    72   38   68 1
@<TRIPOS>MOLECULE
ZINC23247639
   69    72     0     0     0
SMALL
USER_CHARGES
1-[4-[(4-ethylpiperazin-1-yl)methyl]-3-(trifluoromethyl)phenyl]-3-[4-(6-methylaminopyrimidin-4-yl)oxyphenyl]urea
@<TRIPOS>ATOM
      1 C1          8.9417    3.3719    8.2172 C.3       1 <0>        -0.1569
      2 C2         10.1498    2.9102    7.3997 C.3       1 <0>         0.0486
      3 N1          9.9972    3.3533    6.0075 N.3       1 <0>        -0.5379
      4 C3         11.2367    3.1387    5.2477 C.3       1 <0>         0.0250
      5 C4         11.0629    3.6845    3.8284 C.3       1 <0>         0.0004
      6 N2          9.9288    3.0094    3.1822 N.4       1 <0>        -0.4202
      7 C5          8.6893    3.2240    3.9420 C.3       1 <0>        -0.0009
      8 C6          8.8631    2.6781    5.3612 C.3       1 <0>         0.0222
      9 C7          9.7762    3.4524    1.7899 C.3       1 <0>         0.0266
     10 C8          8.7879    2.5601    1.0842 C.ar      1 <0>        -0.1272
     11 C9          7.5022    3.0092    0.8434 C.ar      1 <0>        -0.0630
     12 C10         6.5958    2.1959    0.1923 C.ar      1 <0>        -0.0846
     13 C11         6.9731    0.9214   -0.2106 C.ar      1 <0>         0.2154
     14 C12         8.2646    0.4735    0.0326 C.ar      1 <0>        -0.0955
     15 C13         9.1683    1.2940    0.6793 C.ar      1 <0>        -0.1507
     16 C14        10.5702    0.8086    0.9441 C.3       1 <0>         0.5109
     17 F1         10.7250   -0.4786    0.4184 F         1 <0>        -0.1491
     18 F2         11.4860    1.6739    0.3362 F         1 <0>        -0.1584
     19 F3         10.8008    0.7797    2.3237 F         1 <0>        -0.1724
     20 N3          6.0552    0.0926   -0.8655 N.am      1 <0>        -0.6988
     21 C15         4.7513    0.1311   -0.5266 C.2       1 <0>         0.7114
     22 O1          4.3858    0.8194    0.4067 O.2       1 <0>        -0.5584
     23 N4          3.8526   -0.5934   -1.2222 N.am      1 <0>        -0.6858
     24 C16         2.4863   -0.4790   -0.9335 C.ar      1 <0>         0.1577
     25 C17         1.5516   -0.5518   -1.9576 C.ar      1 <0>        -0.1240
     26 C18         0.2052   -0.4394   -1.6724 C.ar      1 <0>        -0.0926
     27 C19        -0.2137   -0.2543   -0.3628 C.ar      1 <0>         0.0883
     28 C20         0.7198   -0.1815    0.6609 C.ar      1 <0>        -0.0957
     29 C21         2.0665   -0.2932    0.3769 C.ar      1 <0>        -0.1046
     30 O2         -1.5393   -0.1385   -0.0833 O.3       1 <0>        -0.2426
     31 C22        -2.3129   -1.2454   -0.1983 C.ar      1 <0>         0.3832
     32 C23        -3.6894   -1.1637   -0.0277 C.ar      1 <0>        -0.3126
     33 C24        -4.4409   -2.3284   -0.1601 C.ar      1 <0>         0.4635
     34 N5         -3.8165   -3.4721   -0.4341 N.ar      1 <0>        -0.5931
     35 C25        -2.5082   -3.5081   -0.5840 C.ar      1 <0>         0.3762
     36 N6         -1.7644   -2.4263   -0.4707 N.ar      1 <0>        -0.6049
     37 N7         -5.8178   -2.2988   -0.0034 N.pl3     1 <0>        -0.7212
     38 C26        -6.4937   -1.0344    0.2979 C.3       1 <0>         0.0887
     39 H1          9.0560    3.0401    9.2597 H         1 <0>         0.0714
     40 H2          8.0243    2.9380    7.7928 H         1 <0>         0.0562
     41 H3          8.8763    4.4695    8.1868 H         1 <0>         0.0696
     42 H4         11.0672    3.3441    7.8241 H         1 <0>         0.0895
     43 H5         10.2153    1.8126    7.4301 H         1 <0>         0.0455
     44 H6         12.0665    3.6630    5.7442 H         1 <0>         0.1253
     45 H7         11.4577    2.0621    5.2031 H         1 <0>         0.0582
     46 H8         10.8699    4.7665    3.8728 H         1 <0>         0.1369
     47 H9         11.9796    3.4990    3.2494 H         1 <0>         0.1329
     48 H10         8.4684    4.3007    3.9867 H         1 <0>         0.1355
     49 H11         7.8594    2.6998    3.4455 H         1 <0>         0.1312
     50 H12         9.0569    1.5962    5.3178 H         1 <0>         0.0572
     51 H13         7.9470    2.8635    5.9412 H         1 <0>         0.1266
     52 H14         9.4106    4.4897    1.7732 H         1 <0>         0.1472
     53 H15        10.7489    3.3982    1.2791 H         1 <0>         0.1420
     54 H16         7.2082    3.9988    1.1607 H         1 <0>         0.1512
     55 H17         5.5933    2.5489    0.0003 H         1 <0>         0.1583
     56 H18         8.5625   -0.5152   -0.2838 H         1 <0>         0.1556
     57 H19         6.3979   -0.5903   -1.6569 H         1 <0>         0.4440
     58 H20         4.1917   -1.2745   -2.0166 H         1 <0>         0.4371
     59 H21         1.8775   -0.6959   -2.9771 H         1 <0>         0.1338
     60 H22        -0.5220   -0.4960   -2.4689 H         1 <0>         0.1313
     61 H23         0.3932   -0.0371    1.6801 H         1 <0>         0.1341
     62 H24         2.7931   -0.2369    1.1740 H         1 <0>         0.1440
     63 H25        -4.1646   -0.2205    0.1982 H         1 <0>         0.1470
     64 H26        -2.0315   -4.4515   -0.8058 H         1 <0>         0.2001
     65 H27        -6.4030   -3.2246   -0.1053 H         1 <0>         0.4380
     66 H28        -7.5762   -1.2091    0.3856 H         1 <0>         0.0868
     67 H29        -6.3028   -0.3146   -0.5117 H         1 <0>         0.0604
     68 H30        -6.1096   -0.6302    1.2461 H         1 <0>         0.0603
     69 H31        10.1379    1.9295    3.1711 H         1 <0>         0.4253
@<TRIPOS>BOND
     1    1    2 1
     2    1   39 1
     3    1   40 1
     4    1   41 1
     5    2    3 1
     6    2   42 1
     7    2   43 1
     8    3    8 1
     9    3    4 1
    10    4    5 1
    11    4   44 1
    12    4   45 1
    13    5    6 1
    14    5   46 1
    15    5   47 1
    16    6    7 1
    17    6    9 1
    18    6   69 1
    19    7    8 1
    20    7   48 1
    21    7   49 1
    22    8   50 1
    23    8   51 1
    24    9   10 1
    25    9   52 1
    26    9   53 1
    27   10   15 ar
    28   10   11 ar
    29   11   12 ar
    30   11   54 1
    31   12   13 ar
    32   12   55 1
    33   13   14 ar
    34   13   20 1
    35   14   15 ar
    36   14   56 1
    37   15   16 1
    38   16   17 1
    39   16   18 1
    40   16   19 1
    41   20   21 am
    42   20   57 1
    43   21   22 2
    44   21   23 am
    45   23   24 1
    46   23   58 1
    47   24   29 ar
    48   24   25 ar
    49   25   26 ar
    50   25   59 1
    51   26   27 ar
    52   26   60 1
    53   27   28 ar
    54   27   30 1
    55   28   29 ar
    56   28   61 1
    57   29   62 1
    58   30   31 1
    59   31   36 ar
    60   31   32 ar
    61   32   33 ar
    62   32   63 1
    63   33   34 ar
    64   33   37 1
    65   34   35 ar
    66   35   36 ar
    67   35   64 1
    68   37   38 1
    69   37   65 1
    70   38   66 1
    71   38   67 1
    72   38   68 1
@<TRIPOS>MOLECULE
ZINC23247639
   68    71     0     0     0
SMALL
USER_CHARGES
1-[4-[(4-ethylpiperazin-1-yl)methyl]-3-(trifluoromethyl)phenyl]-3-[4-(6-methylaminopyrimidin-4-yl)oxyphenyl]urea
@<TRIPOS>ATOM
      1 C1          8.9417    3.3719    8.2172 C.3       1 <0>        -0.1510
      2 C2         10.1498    2.9102    7.3997 C.3       1 <0>         0.0499
      3 N1          9.9972    3.3533    6.0075 N.3       1 <0>        -0.5402
      4 C3         11.2367    3.1387    5.2477 C.3       1 <0>         0.0569
      5 C4         11.0629    3.6845    3.8284 C.3       1 <0>         0.0590
      6 N2          9.9288    3.0094    3.1822 N.3       1 <0>        -0.5268
      7 C5          8.6893    3.2240    3.9420 C.3       1 <0>         0.0561
      8 C6          8.8631    2.6781    5.3612 C.3       1 <0>         0.0550
      9 C7          9.7762    3.4524    1.7899 C.3       1 <0>         0.0729
     10 C8          8.7879    2.5601    1.0842 C.ar      1 <0>        -0.0447
     11 C9          7.5022    3.0092    0.8434 C.ar      1 <0>        -0.0942
     12 C10         6.5958    2.1959    0.1923 C.ar      1 <0>        -0.0884
     13 C11         6.9731    0.9214   -0.2106 C.ar      1 <0>         0.1720
     14 C12         8.2646    0.4735    0.0326 C.ar      1 <0>        -0.1038
     15 C13         9.1683    1.2940    0.6793 C.ar      1 <0>        -0.1404
     16 C14        10.5702    0.8086    0.9441 C.3       1 <0>         0.5095
     17 F1         10.7250   -0.4786    0.4184 F         1 <0>        -0.1841
     18 F2         11.4860    1.6739    0.3362 F         1 <0>        -0.1795
     19 F3         10.8008    0.7797    2.3237 F         1 <0>        -0.1519
     20 N3          6.0552    0.0926   -0.8655 N.am      1 <0>        -0.6948
     21 C15         4.7513    0.1311   -0.5266 C.2       1 <0>         0.7096
     22 O1          4.3858    0.8194    0.4067 O.2       1 <0>        -0.5587
     23 N4          3.8526   -0.5934   -1.2222 N.am      1 <0>        -0.6930
     24 C16         2.4863   -0.4790   -0.9335 C.ar      1 <0>         0.1697
     25 C17         1.5516   -0.5518   -1.9576 C.ar      1 <0>        -0.1297
     26 C18         0.2052   -0.4394   -1.6724 C.ar      1 <0>        -0.0930
     27 C19        -0.2137   -0.2543   -0.3628 C.ar      1 <0>         0.0783
     28 C20         0.7198   -0.1815    0.6609 C.ar      1 <0>        -0.0936
     29 C21         2.0665   -0.2932    0.3769 C.ar      1 <0>        -0.1059
     30 O2         -1.5393   -0.1385   -0.0833 O.3       1 <0>        -0.2412
     31 C22        -2.3129   -1.2454   -0.1983 C.ar      1 <0>         0.3851
     32 C23        -3.6894   -1.1637   -0.0277 C.ar      1 <0>        -0.3141
     33 C24        -4.4409   -2.3284   -0.1601 C.ar      1 <0>         0.4620
     34 N5         -3.8165   -3.4721   -0.4341 N.ar      1 <0>        -0.5954
     35 C25        -2.5082   -3.5081   -0.5840 C.ar      1 <0>         0.3753
     36 N6         -1.7644   -2.4263   -0.4707 N.ar      1 <0>        -0.6017
     37 N7         -5.8178   -2.2988   -0.0034 N.pl3     1 <0>        -0.7231
     38 C26        -6.4937   -1.0344    0.2979 C.3       1 <0>         0.0898
     39 H1          9.0560    3.0401    9.2597 H         1 <0>         0.0595
     40 H2          8.0243    2.9380    7.7928 H         1 <0>         0.0547
     41 H3          8.8763    4.4695    8.1868 H         1 <0>         0.0631
     42 H4         11.0672    3.3441    7.8241 H         1 <0>         0.0746
     43 H5         10.2153    1.8126    7.4301 H         1 <0>         0.0335
     44 H6         12.0665    3.6630    5.7442 H         1 <0>         0.0800
     45 H7         11.4577    2.0621    5.2031 H         1 <0>         0.0441
     46 H8         10.8699    4.7665    3.8728 H         1 <0>         0.0445
     47 H9         11.9796    3.4990    3.2494 H         1 <0>         0.0809
     48 H10         8.4684    4.3007    3.9867 H         1 <0>         0.0435
     49 H11         7.8594    2.6998    3.4455 H         1 <0>         0.0808
     50 H12         9.0569    1.5962    5.3178 H         1 <0>         0.0425
     51 H13         7.9470    2.8635    5.9412 H         1 <0>         0.0819
     52 H14         9.4106    4.4897    1.7732 H         1 <0>         0.0550
     53 H15        10.7489    3.3982    1.2791 H         1 <0>         0.0962
     54 H16         7.2082    3.9988    1.1607 H         1 <0>         0.1355
     55 H17         5.5933    2.5489    0.0003 H         1 <0>         0.1427
     56 H18         8.5625   -0.5152   -0.2838 H         1 <0>         0.1409
     57 H19         6.3979   -0.5903   -1.6569 H         1 <0>         0.4343
     58 H20         4.1917   -1.2745   -2.0166 H         1 <0>         0.4332
     59 H21         1.8775   -0.6959   -2.9771 H         1 <0>         0.1323
     60 H22        -0.5220   -0.4960   -2.4689 H         1 <0>         0.1282
     61 H23         0.3932   -0.0371    1.6801 H         1 <0>         0.1328
     62 H24         2.7931   -0.2369    1.1740 H         1 <0>         0.1466
     63 H25        -4.1646   -0.2205    0.1982 H         1 <0>         0.1463
     64 H26        -2.0315   -4.4515   -0.8058 H         1 <0>         0.1996
     65 H27        -6.4030   -3.2246   -0.1053 H         1 <0>         0.4362
     66 H28        -7.5762   -1.2091    0.3856 H         1 <0>         0.0851
     67 H29        -6.3028   -0.3146   -0.5117 H         1 <0>         0.0598
     68 H30        -6.1096   -0.6302    1.2461 H         1 <0>         0.0599
@<TRIPOS>BOND
     1    1    2 1
     2    1   39 1
     3    1   40 1
     4    1   41 1
     5    2    3 1
     6    2   42 1
     7    2   43 1
     8    3    8 1
     9    3    4 1
    10    4    5 1
    11    4   44 1
    12    4   45 1
    13    5    6 1
    14    5   46 1
    15    5   47 1
    16    6    7 1
    17    6    9 1
    18    7    8 1
    19    7   48 1
    20    7   49 1
    21    8   50 1
    22    8   51 1
    23    9   10 1
    24    9   52 1
    25    9   53 1
    26   10   15 ar
    27   10   11 ar
    28   11   12 ar
    29   11   54 1
    30   12   13 ar
    31   12   55 1
    32   13   14 ar
    33   13   20 1
    34   14   15 ar
    35   14   56 1
    36   15   16 1
    37   16   17 1
    38   16   18 1
    39   16   19 1
    40   20   21 am
    41   20   57 1
    42   21   22 2
    43   21   23 am
    44   23   24 1
    45   23   58 1
    46   24   29 ar
    47   24   25 ar
    48   25   26 ar
    49   25   59 1
    50   26   27 ar
    51   26   60 1
    52   27   28 ar
    53   27   30 1
    54   28   29 ar
    55   28   61 1
    56   29   62 1
    57   30   31 1
    58   31   36 ar
    59   31   32 ar
    60   32   33 ar
    61   32   63 1
    62   33   34 ar
    63   33   37 1
    64   34   35 ar
    65   35   36 ar
    66   35   64 1
    67   37   38 1
    68   37   65 1
    69   38   66 1
    70   38   67 1
    71   38   68 1
@<TRIPOS>MOLECULE
ZINC22453679
   66    70     0     0     0
SMALL
USER_CHARGES

@<TRIPOS>ATOM
      1 C1         -0.0187    1.5258    0.0104 C.3       1 <0>        -0.1890
      2 C2          0.0021   -0.0041    0.0020 C.3       1 <0>        -0.0097
      3 N1          0.7126   -0.4907    1.1921 N.4       1 <0>        -0.3874
      4 C3         -0.0391   -0.1172    2.3976 C.3       1 <0>        -0.0057
      5 C4          0.7102   -0.6075    3.6385 C.3       1 <0>         0.0259
      6 N2          0.8644   -2.0675    3.5691 N.3       1 <0>        -0.5344
      7 C5          1.5937   -2.4582    2.3543 C.3       1 <0>         0.0198
      8 C6          0.8371   -1.9527    1.1240 C.3       1 <0>        -0.0016
      9 C7          1.5305   -2.5843    4.7721 C.3       1 <0>         0.0972
     10 C8          1.4527   -4.0892    4.7821 C.ar      1 <0>        -0.0953
     11 C9          0.3763   -4.7192    5.3812 C.ar      1 <0>        -0.0834
     12 C10         0.2987   -6.0966    5.3935 C.ar      1 <0>        -0.1148
     13 C11         1.3091   -6.8546    4.7998 C.ar      1 <0>        -0.0051
     14 C12         2.3921   -6.2129    4.1972 C.ar      1 <0>        -0.0993
     15 C13         2.4550   -4.8348    4.1873 C.ar      1 <0>        -0.1085
     16 C14         1.2327   -8.3312    4.8097 C.2       1 <0>         0.0915
     17 C15         2.1554   -9.1674    4.2704 C.2       1 <0>        -0.1277
     18 C16         1.6811  -10.5259    4.5073 C.ar      1 <0>        -0.2687
     19 C17         0.4596  -10.4070    5.1989 C.ar      1 <0>         0.3592
     20 N3          0.2160   -9.0721    5.3732 N.pl3     1 <0>        -0.5647
     21 H1         -0.5589   -8.7017    5.8241 H         1 <0>         0.4207
     22 N4         -0.1890  -11.5192    5.5397 N.ar      1 <0>        -0.5753
     23 C18         0.3000  -12.7027    5.2372 C.ar      1 <0>         0.3728
     24 N5          1.4409  -12.8604    4.5907 N.ar      1 <0>        -0.5959
     25 C19         2.1624  -11.8112    4.2074 C.ar      1 <0>         0.4981
     26 N6          3.3559  -11.9810    3.5299 N.pl3     1 <0>        -0.6941
     27 C20         3.8405  -13.3299    3.2267 C.3       1 <0>         0.1914
     28 H2          2.9928  -13.9813    3.0140 H         1 <0>         0.1038
     29 C21         4.6143  -13.8759    4.4284 C.3       1 <0>        -0.1576
     30 C22         4.7489  -13.2790    2.0253 C.ar      1 <0>        -0.0950
     31 C23         5.6479  -12.2387    1.8821 C.ar      1 <0>        -0.1174
     32 C24         6.4811  -12.1921    0.7801 C.ar      1 <0>        -0.1162
     33 C25         6.4157  -13.1860   -0.1785 C.ar      1 <0>        -0.1176
     34 C26         5.5173  -14.2267   -0.0348 C.ar      1 <0>        -0.1134
     35 C27         4.6871  -14.2757    1.0694 C.ar      1 <0>        -0.1053
     36 H3          1.0039    1.9031    0.0027 H         1 <0>         0.0798
     37 H4         -0.5459    1.8868   -0.8726 H         1 <0>         0.1070
     38 H5         -0.5289    1.8773    0.9072 H         1 <0>         0.0804
     39 H6         -1.0205   -0.3814    0.0098 H         1 <0>         0.1299
     40 H7          0.5123   -0.3556   -0.8948 H         1 <0>         0.1306
     41 H8         -0.1420    0.9671    2.4401 H         1 <0>         0.1368
     42 H9         -1.0278   -0.5751    2.3656 H         1 <0>         0.1376
     43 H10         1.6938   -0.1394    3.6780 H         1 <0>         0.0612
     44 H11         0.1452   -0.3436    4.5324 H         1 <0>         0.1242
     45 H12         2.5918   -2.0206    2.3727 H         1 <0>         0.0610
     46 H13         1.6732   -3.5445    2.3114 H         1 <0>         0.1269
     47 H14        -0.1561   -2.4011    1.0986 H         1 <0>         0.1372
     48 H15         1.3837   -2.2291    0.2224 H         1 <0>         0.1352
     49 H16         2.5756   -2.2746    4.7702 H         1 <0>         0.0573
     50 H17         1.0360   -2.1890    5.6594 H         1 <0>         0.0978
     51 H18        -0.4047   -4.1314    5.8405 H         1 <0>         0.1285
     52 H19        -0.5418   -6.5871    5.8617 H         1 <0>         0.1228
     53 H20         3.1772   -6.7938    3.7361 H         1 <0>         0.1323
     54 H21         3.2904   -4.3368    3.7177 H         1 <0>         0.1240
     55 H22         3.0653   -8.8819    3.7634 H         1 <0>         0.1506
     56 H23        -0.2545  -13.5819    5.5301 H         1 <0>         0.2021
     57 H24         3.8721  -11.2071    3.2554 H         1 <0>         0.4088
     58 H25         3.9573  -13.9127    5.2973 H         1 <0>         0.0676
     59 H26         4.9749  -14.8795    4.2028 H         1 <0>         0.0701
     60 H27         5.4620  -13.2245    4.6411 H         1 <0>         0.0562
     61 H28         5.6990  -11.4622    2.6310 H         1 <0>         0.1174
     62 H29         7.1830  -11.3789    0.6678 H         1 <0>         0.1232
     63 H30         7.0662  -13.1491   -1.0398 H         1 <0>         0.1240
     64 H31         5.4660  -15.0031   -0.7838 H         1 <0>         0.1263
     65 H32         3.9878  -15.0908    1.1835 H         1 <0>         0.1266
     66 H33         1.6319   -0.0763    1.2276 H         1 <0>         0.4197
@<TRIPOS>BOND
     1    1    2 1
     2    1   36 1
     3    1   37 1
     4    1   38 1
     5    2    3 1
     6    2   39 1
     7    2   40 1
     8    3    8 1
     9    3    4 1
    10    3   66 1
    11    4    5 1
    12    4   41 1
    13    4   42 1
    14    5    6 1
    15    5   43 1
    16    5   44 1
    17    6    7 1
    18    6    9 1
    19    7    8 1
    20    7   45 1
    21    7   46 1
    22    8   47 1
    23    8   48 1
    24    9   10 1
    25    9   49 1
    26    9   50 1
    27   10   15 ar
    28   10   11 ar
    29   11   12 ar
    30   11   51 1
    31   12   13 ar
    32   12   52 1
    33   13   14 ar
    34   13   16 1
    35   14   15 ar
    36   14   53 1
    37   15   54 1
    38   16   20 1
    39   16   17 2
    40   17   18 1
    41   17   55 1
    42   18   25 ar
    43   18   19 ar
    44   19   20 1
    45   19   22 ar
    46   20   21 1
    47   22   23 ar
    48   23   24 ar
    49   23   56 1
    50   24   25 ar
    51   25   26 1
    52   26   27 1
    53   26   57 1
    54   27   28 1
    55   27   29 1
    56   27   30 1
    57   29   58 1
    58   29   59 1
    59   29   60 1
    60   30   35 ar
    61   30   31 ar
    62   31   32 ar
    63   31   61 1
    64   32   33 ar
    65   32   62 1
    66   33   34 ar
    67   33   63 1
    68   34   35 ar
    69   34   64 1
    70   35   65 1
@<TRIPOS>MOLECULE
ZINC22453679
   66    70     0     0     0
SMALL
USER_CHARGES
6-[4-[(4-ethylpiperazin-1-yl)methyl]phenyl]-N-[(1R)-1-phenylethyl]-7H-pyrrolo[3,2-e]pyrimidin-4-amine
@<TRIPOS>ATOM
      1 C1         -3.9920    0.9667   -5.1070 C.3       1 <0>        -0.1574
      2 C2         -2.7225    1.7944   -4.8969 C.3       1 <0>         0.0492
      3 N1         -2.0121    1.3078   -3.7068 N.3       1 <0>        -0.5400
      4 C3         -0.6771    1.9138   -3.6059 C.3       1 <0>         0.0242
      5 C4          0.0588    1.3229   -2.4010 C.3       1 <0>         0.0006
      6 N2         -0.7232    1.5724   -1.1821 N.4       1 <0>        -0.3994
      7 C5         -2.0582    0.9664   -1.2830 C.3       1 <0>        -0.0030
      8 C6         -2.7940    1.5574   -2.4879 C.3       1 <0>         0.0221
      9 C7         -0.0127    1.0858    0.0080 C.3       1 <0>         0.0478
     10 C8         -0.7181    1.5718    1.2479 C.ar      1 <0>        -0.1672
     11 C9         -0.3572    2.7804    1.8166 C.ar      1 <0>        -0.0805
     12 C10        -1.0028    3.2337    2.9484 C.ar      1 <0>        -0.1034
     13 C11        -2.0145    2.4651    3.5260 C.ar      1 <0>         0.0310
     14 C12        -2.3699    1.2442    2.9505 C.ar      1 <0>        -0.1200
     15 C13        -1.7199    0.8048    1.8157 C.ar      1 <0>        -0.0824
     16 C14        -2.7073    2.9424    4.7419 C.2       1 <0>         0.0633
     17 C15        -2.4433    4.1057    5.3887 C.2       1 <0>        -0.1135
     18 C16        -3.3575    4.1730    6.5229 C.ar      1 <0>        -0.2757
     19 C17        -4.1306    2.9961    6.4824 C.ar      1 <0>         0.3752
     20 N3         -3.7174    2.2718    5.3978 N.pl3     1 <0>        -0.5765
     21 H1         -4.0676    1.2997    5.0205 H         1 <0>         0.4447
     22 N4         -5.0513    2.8073    7.4262 N.ar      1 <0>        -0.5808
     23 C18        -5.2346    3.7000    8.3752 C.ar      1 <0>         0.3789
     24 N5         -4.5332    4.8165    8.4511 N.ar      1 <0>        -0.6005
     25 C19        -3.5907    5.0963    7.5557 C.ar      1 <0>         0.5045
     26 N6         -2.8590    6.2667    7.6389 N.pl3     1 <0>        -0.7034
     27 C20        -3.1179    7.2170    8.7234 C.3       1 <0>         0.1933
     28 H2         -3.3676    6.6343    9.6223 H         1 <0>         0.1032
     29 C21        -4.2727    8.1396    8.3283 C.3       1 <0>        -0.1568
     30 C22        -1.8811    8.0401    8.9760 C.ar      1 <0>        -0.0936
     31 C23        -1.1141    8.4791    7.9131 C.ar      1 <0>        -0.1185
     32 C24         0.0180    9.2379    8.1445 C.ar      1 <0>        -0.1155
     33 C25         0.3883    9.5496    9.4394 C.ar      1 <0>        -0.1172
     34 C26        -0.3761    9.1065   10.5025 C.ar      1 <0>        -0.1120
     35 C27        -1.5106    8.3514   10.2708 C.ar      1 <0>        -0.1061
     36 H3         -4.5240    1.3311   -5.9982 H         1 <0>         0.0719
     37 H4         -4.6432    1.0641   -4.2258 H         1 <0>         0.0560
     38 H5         -3.7215   -0.0902   -5.2480 H         1 <0>         0.0694
     39 H6         -2.0713    1.6970   -5.7781 H         1 <0>         0.0892
     40 H7         -2.9930    2.8513   -4.7559 H         1 <0>         0.0459
     41 H8         -0.1084    1.7029   -4.5236 H         1 <0>         0.1237
     42 H9         -0.7770    3.0018   -3.4783 H         1 <0>         0.0600
     43 H10         0.1831    0.2392   -2.5427 H         1 <0>         0.1358
     44 H11         1.0473    1.7961   -2.3069 H         1 <0>         0.1366
     45 H12        -1.9583   -0.1216   -1.4107 H         1 <0>         0.1346
     46 H13        -2.6269    1.1772   -0.3653 H         1 <0>         0.1346
     47 H14        -2.9181    2.6413   -2.3474 H         1 <0>         0.0595
     48 H15        -3.7826    1.0845   -2.5831 H         1 <0>         0.1247
     49 H16         0.0022   -0.0141    0.0019 H         1 <0>         0.1342
     50 H17         1.0193    1.4665    0.0002 H         1 <0>         0.1386
     51 H18         0.4287    3.3722    1.3710 H         1 <0>         0.1363
     52 H19        -0.7229    4.1791    3.3891 H         1 <0>         0.1406
     53 H20        -3.1517    0.6446    3.3928 H         1 <0>         0.1310
     54 H21        -1.9939   -0.1397    1.3694 H         1 <0>         0.1342
     55 H22        -1.7010    4.8409    5.1150 H         1 <0>         0.1500
     56 H23        -5.9906    3.5121    9.1232 H         1 <0>         0.2018
     57 H24        -2.0825    6.4842    6.8907 H         1 <0>         0.4278
     58 H25        -4.4670    8.8531    9.1426 H         1 <0>         0.0707
     59 H26        -5.1755    7.5387    8.1440 H         1 <0>         0.0670
     60 H27        -4.0058    8.6902    7.4142 H         1 <0>         0.0569
     61 H28        -1.4011    8.2322    6.9016 H         1 <0>         0.1169
     62 H29         0.6150    9.5844    7.3139 H         1 <0>         0.1235
     63 H30         1.2746   10.1395    9.6204 H         1 <0>         0.1246
     64 H31        -0.0868    9.3500   11.5141 H         1 <0>         0.1266
     65 H32        -2.1076    8.0050   11.1015 H         1 <0>         0.1262
     66 H33        -0.8508    2.6599   -1.0770 H         1 <0>         0.4368
@<TRIPOS>BOND
     1    1    2 1
     2    1   36 1
     3    1   37 1
     4    1   38 1
     5    2    3 1
     6    2   39 1
     7    2   40 1
     8    3    8 1
     9    3    4 1
    10    4    5 1
    11    4   41 1
    12    4   42 1
    13    5    6 1
    14    5   43 1
    15    5   44 1
    16    6    7 1
    17    6    9 1
    18    6   66 1
    19    7    8 1
    20    7   45 1
    21    7   46 1
    22    8   47 1
    23    8   48 1
    24    9   10 1
    25    9   49 1
    26    9   50 1
    27   10   15 ar
    28   10   11 ar
    29   11   12 ar
    30   11   51 1
    31   12   13 ar
    32   12   52 1
    33   13   14 ar
    34   13   16 1
    35   14   15 ar
    36   14   53 1
    37   15   54 1
    38   16   20 1
    39   16   17 2
    40   17   18 1
    41   17   55 1
    42   18   25 ar
    43   18   19 ar
    44   19   20 1
    45   19   22 ar
    46   20   21 1
    47   22   23 ar
    48   23   24 ar
    49   23   56 1
    50   24   25 ar
    51   25   26 1
    52   26   27 1
    53   26   57 1
    54   27   28 1
    55   27   29 1
    56   27   30 1
    57   29   58 1
    58   29   59 1
    59   29   60 1
    60   30   35 ar
    61   30   31 ar
    62   31   32 ar
    63   31   61 1
    64   32   33 ar
    65   32   62 1
    66   33   34 ar
    67   33   63 1
    68   34   35 ar
    69   34   64 1
    70   35   65 1
@<TRIPOS>MOLECULE
ZINC22453679
   65    69     0     0     0
SMALL
USER_CHARGES
6-[4-[(4-ethylpiperazin-1-yl)methyl]phenyl]-N-[(1R)-1-phenylethyl]-7H-pyrrolo[3,2-e]pyrimidin-4-amine
@<TRIPOS>ATOM
      1 C1         -3.9920    0.9667   -5.1070 C.3       1 <0>        -0.1515
      2 C2         -2.7225    1.7944   -4.8969 C.3       1 <0>         0.0495
      3 N1         -2.0121    1.3078   -3.7068 N.3       1 <0>        -0.5409
      4 C3         -0.6771    1.9138   -3.6059 C.3       1 <0>         0.0556
      5 C4          0.0588    1.3229   -2.4010 C.3       1 <0>         0.0561
      6 N2         -0.7232    1.5724   -1.1821 N.3       1 <0>        -0.5333
      7 C5         -2.0582    0.9664   -1.2830 C.3       1 <0>         0.0528
      8 C6         -2.7940    1.5574   -2.4879 C.3       1 <0>         0.0537
      9 C7         -0.0127    1.0858    0.0080 C.3       1 <0>         0.0905
     10 C8         -0.7181    1.5718    1.2479 C.ar      1 <0>        -0.0729
     11 C9         -0.3572    2.7804    1.8166 C.ar      1 <0>        -0.0895
     12 C10        -1.0028    3.2337    2.9484 C.ar      1 <0>        -0.0983
     13 C11        -2.0145    2.4651    3.5260 C.ar      1 <0>        -0.0214
     14 C12        -2.3699    1.2442    2.9505 C.ar      1 <0>        -0.1158
     15 C13        -1.7199    0.8048    1.8157 C.ar      1 <0>        -0.1054
     16 C14        -2.7073    2.9424    4.7419 C.2       1 <0>         0.1003
     17 C15        -2.4433    4.1057    5.3887 C.2       1 <0>        -0.1431
     18 C16        -3.3575    4.1730    6.5229 C.ar      1 <0>        -0.2657
     19 C17        -4.1306    2.9961    6.4824 C.ar      1 <0>         0.3623
     20 N3         -3.7174    2.2718    5.3978 N.pl3     1 <0>        -0.5766
     21 H1         -4.0676    1.2997    5.0205 H         1 <0>         0.4449
     22 N4         -5.0513    2.8073    7.4262 N.ar      1 <0>        -0.5776
     23 C18        -5.2346    3.7000    8.3752 C.ar      1 <0>         0.3645
     24 N5         -4.5332    4.8165    8.4511 N.ar      1 <0>        -0.6035
     25 C19        -3.5907    5.0963    7.5557 C.ar      1 <0>         0.4985
     26 N6         -2.8590    6.2667    7.6389 N.pl3     1 <0>        -0.7082
     27 C20        -3.1179    7.2170    8.7234 C.3       1 <0>         0.1946
     28 H2         -3.3676    6.6343    9.6223 H         1 <0>         0.1012
     29 C21        -4.2727    8.1396    8.3283 C.3       1 <0>        -0.1563
     30 C22        -1.8811    8.0401    8.9760 C.ar      1 <0>        -0.0908
     31 C23        -1.1141    8.4791    7.9131 C.ar      1 <0>        -0.1165
     32 C24         0.0180    9.2379    8.1445 C.ar      1 <0>        -0.1149
     33 C25         0.3883    9.5496    9.4394 C.ar      1 <0>        -0.1195
     34 C26        -0.3761    9.1065   10.5025 C.ar      1 <0>        -0.1145
     35 C27        -1.5106    8.3514   10.2708 C.ar      1 <0>        -0.1076
     36 H3         -4.5240    1.3311   -5.9982 H         1 <0>         0.0604
     37 H4         -4.6432    1.0641   -4.2258 H         1 <0>         0.0547
     38 H5         -3.7215   -0.0902   -5.2480 H         1 <0>         0.0634
     39 H6         -2.0713    1.6970   -5.7781 H         1 <0>         0.0752
     40 H7         -2.9930    2.8513   -4.7559 H         1 <0>         0.0338
     41 H8         -0.1084    1.7029   -4.5236 H         1 <0>         0.0810
     42 H9         -0.7770    3.0018   -3.4783 H         1 <0>         0.0429
     43 H10         0.1831    0.2392   -2.5427 H         1 <0>         0.0443
     44 H11         1.0473    1.7961   -2.3069 H         1 <0>         0.0819
     45 H12        -1.9583   -0.1216   -1.4107 H         1 <0>         0.0424
     46 H13        -2.6269    1.1772   -0.3653 H         1 <0>         0.0840
     47 H14        -2.9181    2.6413   -2.3474 H         1 <0>         0.0419
     48 H15        -3.7826    1.0845   -2.5831 H         1 <0>         0.0824
     49 H16         0.0022   -0.0141    0.0019 H         1 <0>         0.0463
     50 H17         1.0193    1.4665    0.0002 H         1 <0>         0.0869
     51 H18         0.4287    3.3722    1.3710 H         1 <0>         0.1285
     52 H19        -0.7229    4.1791    3.3891 H         1 <0>         0.1286
     53 H20        -3.1517    0.6446    3.3928 H         1 <0>         0.1182
     54 H21        -1.9939   -0.1397    1.3694 H         1 <0>         0.1234
     55 H22        -1.7010    4.8409    5.1150 H         1 <0>         0.1477
     56 H23        -5.9906    3.5121    9.1232 H         1 <0>         0.1970
     57 H24        -2.0825    6.4842    6.8907 H         1 <0>         0.4284
     58 H25        -4.4670    8.8531    9.1426 H         1 <0>         0.0674
     59 H26        -5.1755    7.5387    8.1440 H         1 <0>         0.0670
     60 H27        -4.0058    8.6902    7.4142 H         1 <0>         0.0567
     61 H28        -1.4011    8.2322    6.9016 H         1 <0>         0.1192
     62 H29         0.6150    9.5844    7.3139 H         1 <0>         0.1237
     63 H30         1.2746   10.1395    9.6204 H         1 <0>         0.1230
     64 H31        -0.0868    9.3500   11.5141 H         1 <0>         0.1245
     65 H32        -2.1076    8.0050   11.1015 H         1 <0>         0.1250
@<TRIPOS>BOND
     1    1    2 1
     2    1   36 1
     3    1   37 1
     4    1   38 1
     5    2    3 1
     6    2   39 1
     7    2   40 1
     8    3    8 1
     9    3    4 1
    10    4    5 1
    11    4   41 1
    12    4   42 1
    13    5    6 1
    14    5   43 1
    15    5   44 1
    16    6    7 1
    17    6    9 1
    18    7    8 1
    19    7   45 1
    20    7   46 1
    21    8   47 1
    22    8   48 1
    23    9   10 1
    24    9   49 1
    25    9   50 1
    26   10   15 ar
    27   10   11 ar
    28   11   12 ar
    29   11   51 1
    30   12   13 ar
    31   12   52 1
    32   13   14 ar
    33   13   16 1
    34   14   15 ar
    35   14   53 1
    36   15   54 1
    37   16   20 1
    38   16   17 2
    39   17   18 1
    40   17   55 1
    41   18   25 ar
    42   18   19 ar
    43   19   20 1
    44   19   22 ar
    45   20   21 1
    46   22   23 ar
    47   23   24 ar
    48   23   56 1
    49   24   25 ar
    50   25   26 1
    51   26   27 1
    52   26   57 1
    53   27   28 1
    54   27   29 1
    55   27   30 1
    56   29   58 1
    57   29   59 1
    58   29   60 1
    59   30   35 ar
    60   30   31 ar
    61   31   32 ar
    62   31   61 1
    63   32   33 ar
    64   32   62 1
    65   33   34 ar
    66   33   63 1
    67   34   35 ar
    68   34   64 1
    69   35   65 1
@<TRIPOS>MOLECULE
ZINC22453679
   66    70     0     0     0
SMALL
USER_CHARGES

@<TRIPOS>ATOM
      1 C1         -0.0187    1.5258    0.0104 C.3       1 <0>        -0.1890
      2 C2          0.0021   -0.0041    0.0020 C.3       1 <0>        -0.0097
      3 N1          0.6897   -0.4778   -1.2066 N.4       1 <0>        -0.3874
      4 C3          2.0996   -0.0687   -1.1596 C.3       1 <0>        -0.0060
      5 C4          2.8119   -0.5457   -2.4272 C.3       1 <0>         0.0263
      6 N2          2.7114   -2.0090   -2.5210 N.3       1 <0>        -0.5341
      7 C5          1.3050   -2.4352   -2.5438 C.3       1 <0>         0.0194
      8 C6          0.6051   -1.9426   -1.2753 C.3       1 <0>        -0.0019
      9 C7          3.4331   -2.5119   -3.6975 C.3       1 <0>         0.0938
     10 C8          3.5185   -4.0150   -3.6298 C.ar      1 <0>        -0.0709
     11 C9          4.5914   -4.6156   -2.9946 C.ar      1 <0>        -0.0986
     12 C10         4.6767   -5.9903   -2.9285 C.ar      1 <0>        -0.0615
     13 C11         3.6752   -6.7778   -3.5050 C.ar      1 <0>        -0.0405
     14 C12         2.5940   -6.1634   -4.1446 C.ar      1 <0>        -0.0793
     15 C13         2.5206   -4.7874   -4.1982 C.ar      1 <0>        -0.1237
     16 C14         3.7588   -8.2458   -3.4393 C.2       1 <0>         0.2328
     17 N3          4.7020   -8.9376   -2.8734 N.2       1 <0>        -0.4566
     18 C15         4.5268  -10.2819   -2.9614 C.ar      1 <0>         0.3595
     19 C16         3.3482  -10.5690   -3.6552 C.ar      1 <0>        -0.3228
     20 C17         2.9781  -11.8847   -3.8588 C.ar      1 <0>         0.4786
     21 N4          3.7662  -12.8507   -3.3815 N.ar      1 <0>        -0.5690
     22 C18         4.8728  -12.5529   -2.7304 C.ar      1 <0>         0.3595
     23 N5          5.2579  -11.3131   -2.5177 N.ar      1 <0>        -0.5361
     24 N6          1.8133  -12.1947   -4.5436 N.pl3     1 <0>        -0.7018
     25 C19         1.4360  -13.5951   -4.7505 C.3       1 <0>         0.1918
     26 H1          1.7341  -14.1837   -3.8829 H         1 <0>         0.1025
     27 C20         2.1390  -14.1337   -5.9982 C.3       1 <0>        -0.1578
     28 C21        -0.0567  -13.6913   -4.9341 C.ar      1 <0>        -0.0956
     29 C22        -0.7235  -12.7408   -5.6844 C.ar      1 <0>        -0.1179
     30 C23        -2.0927  -12.8290   -5.8527 C.ar      1 <0>        -0.1158
     31 C24        -2.7951  -13.8679   -5.2711 C.ar      1 <0>        -0.1169
     32 C25        -2.1282  -14.8189   -4.5216 C.ar      1 <0>        -0.1128
     33 C26        -0.7584  -14.7331   -4.3568 C.ar      1 <0>        -0.1054
     34 C27         2.7568   -9.2282   -4.0139 C.3       1 <0>        -0.0911
     35 H2          1.0039    1.9031    0.0027 H         1 <0>         0.0805
     36 H3         -0.5459    1.8868   -0.8726 H         1 <0>         0.0797
     37 H4         -0.5289    1.8773    0.9072 H         1 <0>         0.1069
     38 H5          0.5293   -0.3651    0.8851 H         1 <0>         0.1301
     39 H6         -1.0205   -0.3814    0.0098 H         1 <0>         0.1304
     40 H7          2.1607    1.0177   -1.0955 H         1 <0>         0.1370
     41 H8          2.5775   -0.5116   -0.2858 H         1 <0>         0.1381
     42 H9          2.3428   -0.0922   -3.3004 H         1 <0>         0.0615
     43 H10         3.8616   -0.2551   -2.3857 H         1 <0>         0.1250
     44 H11         0.8111   -2.0129   -3.4190 H         1 <0>         0.0613
     45 H12         1.2553   -3.5232   -2.5875 H         1 <0>         0.1270
     46 H13         1.0907   -2.3759   -0.4009 H         1 <0>         0.1376
     47 H14        -0.4417   -2.2455   -1.2969 H         1 <0>         0.1351
     48 H15         2.9014   -2.2186   -4.6027 H         1 <0>         0.0591
     49 H16         4.4385   -2.0913   -3.7142 H         1 <0>         0.1004
     50 H17         5.3641   -4.0060   -2.5499 H         1 <0>         0.1330
     51 H18         5.5149   -6.4575   -2.4331 H         1 <0>         0.1426
     52 H19         1.8167   -6.7649   -4.5922 H         1 <0>         0.1340
     53 H20         1.6844   -4.3114   -4.6886 H         1 <0>         0.1267
     54 H21         5.4876  -13.3585   -2.3570 H         1 <0>         0.2070
     55 H22         1.2482  -11.4845   -4.8857 H         1 <0>         0.4079
     56 H23         3.2186  -14.0641   -5.8654 H         1 <0>         0.0663
     57 H24         1.8582  -15.1756   -6.1522 H         1 <0>         0.0709
     58 H25         1.8409  -13.5450   -6.8658 H         1 <0>         0.0565
     59 H26        -0.1747  -11.9291   -6.1387 H         1 <0>         0.1166
     60 H27        -2.6137  -12.0861   -6.4383 H         1 <0>         0.1237
     61 H28        -3.8649  -13.9365   -5.4021 H         1 <0>         0.1247
     62 H29        -2.6770  -15.6304   -4.0669 H         1 <0>         0.1269
     63 H30        -0.2368  -15.4781   -3.7743 H         1 <0>         0.1265
     64 H31         1.7800   -9.0990   -3.5478 H         1 <0>         0.1221
     65 H32         2.6860   -9.1176   -5.0960 H         1 <0>         0.1226
     66 H33         0.2506   -0.0772   -2.0220 H         1 <0>         0.4198
@<TRIPOS>BOND
     1    1    2 1
     2    1   35 1
     3    1   36 1
     4    1   37 1
     5    2    3 1
     6    2   38 1
     7    2   39 1
     8    3    8 1
     9    3    4 1
    10    3   66 1
    11    4    5 1
    12    4   40 1
    13    4   41 1
    14    5    6 1
    15    5   42 1
    16    5   43 1
    17    6    7 1
    18    6    9 1
    19    7    8 1
    20    7   44 1
    21    7   45 1
    22    8   46 1
    23    8   47 1
    24    9   10 1
    25    9   48 1
    26    9   49 1
    27   10   15 ar
    28   10   11 ar
    29   11   12 ar
    30   11   50 1
    31   12   13 ar
    32   12   51 1
    33   13   14 ar
    34   13   16 1
    35   14   15 ar
    36   14   52 1
    37   15   53 1
    38   16   34 1
    39   16   17 2
    40   17   18 1
    41   18   23 ar
    42   18   19 ar
    43   19   20 ar
    44   19   34 1
    45   20   21 ar
    46   20   24 1
    47   21   22 ar
    48   22   23 ar
    49   22   54 1
    50   24   25 1
    51   24   55 1
    52   25   26 1
    53   25   27 1
    54   25   28 1
    55   27   56 1
    56   27   57 1
    57   27   58 1
    58   28   33 ar
    59   28   29 ar
    60   29   30 ar
    61   29   59 1
    62   30   31 ar
    63   30   60 1
    64   31   32 ar
    65   31   61 1
    66   32   33 ar
    67   32   62 1
    68   33   63 1
    69   34   64 1
    70   34   65 1
@<TRIPOS>MOLECULE
ZINC43196377
   58    60     0     0     0
SMALL
USER_CHARGES

@<TRIPOS>ATOM
      1 C1         -0.1020    1.4354   -0.8175 C.3       1 <0>         0.0203
      2 O1         -0.0873    0.0071   -0.8604 O.3       1 <0>        -0.2971
      3 C2         -1.2670   -0.6288   -0.6382 C.ar      1 <0>         0.1631
      4 C3         -2.4033    0.1098   -0.3922 C.ar      1 <0>        -0.1839
      5 C4         -3.6177   -0.5483   -0.1635 C.ar      1 <0>         0.2009
      6 C5         -3.6582   -1.9645   -0.1890 C.ar      1 <0>        -0.1825
      7 C6         -2.4890   -2.6918   -0.4413 C.ar      1 <0>        -0.1484
      8 C7         -1.3159   -2.0294   -0.6675 C.ar      1 <0>         0.1139
      9 O2         -0.1818   -2.7367   -0.9180 O.3       1 <0>        -0.2985
     10 C8         -0.2959   -4.1611   -0.9346 C.3       1 <0>         0.0535
     11 C9          1.0722   -4.7789   -1.2302 C.3       1 <0>        -0.1180
     12 C10         0.9501   -6.3039   -1.2480 C.3       1 <0>        -0.1175
     13 C11         2.3182   -6.9217   -1.5436 C.3       1 <0>        -0.1185
     14 C12         2.1960   -8.4467   -1.5614 C.3       1 <0>        -0.1066
     15 C13         3.5642   -9.0645   -1.8570 C.3       1 <0>        -0.1271
     16 C14         3.4438  -10.5666   -1.8745 C.2       1 <0>         0.5211
     17 O3          2.3696  -11.0913   -1.6707 O.2       1 <0>        -0.5193
     18 N1          4.5300  -11.3269   -2.1168 N.am      1 <0>        -0.6000
     19 O4          4.4170  -12.7383   -2.1333 O.3       1 <0>        -0.3205
     20 C15        -4.9002   -2.6012    0.0453 C.ar      1 <0>         0.4647
     21 N2         -5.9619   -1.8401    0.2764 N.ar      1 <0>        -0.5803
     22 C16        -5.8762   -0.5194    0.2905 C.ar      1 <0>         0.3431
     23 N3         -4.7531    0.1249    0.0803 N.ar      1 <0>        -0.5432
     24 N4         -5.0043   -3.9778    0.0331 N.pl3     1 <0>        -0.6411
     25 C17        -6.2584   -4.5850    0.1466 C.ar      1 <0>         0.1525
     26 C18        -6.3923   -5.7779    0.8480 C.ar      1 <0>        -0.1358
     27 C19        -7.6298   -6.3821    0.9625 C.ar      1 <0>        -0.0973
     28 C20        -8.7411   -5.8052    0.3813 C.ar      1 <0>        -0.1093
     29 C21        -8.6173   -4.6077   -0.3245 C.ar      1 <0>         0.0287
     30 C22        -7.3697   -3.9948   -0.4354 C.ar      1 <0>        -0.0845
     31 C23        -9.7686   -4.0074   -0.9284 C.1       1 <0>        -0.1517
     32 C24       -10.7126   -3.5153   -1.4234 C.1       1 <0>        -0.1691
     33 H1          0.9012    1.8151   -1.0110 H         1 <0>         0.1069
     34 H2         -0.7867    1.8147   -1.5762 H         1 <0>         0.0619
     35 H3         -0.4319    1.7659    0.1674 H         1 <0>         0.0619
     36 H4         -2.3577    1.1887   -0.3754 H         1 <0>         0.1556
     37 H5         -2.5152   -3.7713   -0.4617 H         1 <0>         0.1384
     38 H6         -0.6494   -4.5086    0.0362 H         1 <0>         0.0636
     39 H7         -1.0041   -4.4598   -1.7074 H         1 <0>         0.0639
     40 H8          1.4257   -4.4314   -2.2009 H         1 <0>         0.0764
     41 H9          1.7805   -4.4801   -0.4574 H         1 <0>         0.0764
     42 H10         0.5966   -6.6514   -0.2773 H         1 <0>         0.0677
     43 H11         0.2419   -6.6027   -2.0208 H         1 <0>         0.0678
     44 H12         2.6717   -6.5742   -2.5144 H         1 <0>         0.0670
     45 H13         3.0264   -6.6230   -0.7708 H         1 <0>         0.0670
     46 H14         1.8425   -8.7943   -0.5907 H         1 <0>         0.0735
     47 H15         1.4878   -8.7455   -2.3342 H         1 <0>         0.0736
     48 H16         3.9177   -8.7170   -2.8278 H         1 <0>         0.0998
     49 H17         4.2724   -8.7658   -1.0842 H         1 <0>         0.0998
     50 H18         5.3892  -10.9073   -2.2798 H         1 <0>         0.4083
     51 H19         5.2483  -13.1974   -2.3152 H         1 <0>         0.3880
     52 H20        -6.7712    0.0535    0.4833 H         1 <0>         0.1970
     53 H21        -4.2073   -4.5237   -0.0542 H         1 <0>         0.4199
     54 H22        -5.5263   -6.2340    1.3046 H         1 <0>         0.1283
     55 H23        -7.7278   -7.3089    1.5083 H         1 <0>         0.1335
     56 H24        -9.7064   -6.2809    0.4724 H         1 <0>         0.1285
     57 H25        -7.2686   -3.0659   -0.9770 H         1 <0>         0.1383
     58 H26       -11.5568   -3.0752   -1.8662 H         1 <0>         0.2250
@<TRIPOS>BOND
     1    1    2 1
     2    1   33 1
     3    1   34 1
     4    1   35 1
     5    2    3 1
     6    3    8 ar
     7    3    4 ar
     8    4    5 ar
     9    4   36 1
    10    5   23 ar
    11    5    6 ar
    12    6    7 ar
    13    6   20 ar
    14    7    8 ar
    15    7   37 1
    16    8    9 1
    17    9   10 1
    18   10   11 1
    19   10   38 1
    20   10   39 1
    21   11   12 1
    22   11   40 1
    23   11   41 1
    24   12   13 1
    25   12   42 1
    26   12   43 1
    27   13   14 1
    28   13   44 1
    29   13   45 1
    30   14   15 1
    31   14   46 1
    32   14   47 1
    33   15   16 1
    34   15   48 1
    35   15   49 1
    36   16   17 2
    37   16   18 am
    38   18   19 1
    39   18   50 1
    40   19   51 1
    41   20   21 ar
    42   20   24 1
    43   21   22 ar
    44   22   23 ar
    45   22   52 1
    46   24   25 1
    47   24   53 1
    48   25   30 ar
    49   25   26 ar
    50   26   27 ar
    51   26   54 1
    52   27   28 ar
    53   27   55 1
    54   28   29 ar
    55   28   56 1
    56   29   30 ar
    57   29   31 1
    58   30   57 1
    59   31   32 3
    60   32   58 1
@<TRIPOS>MOLECULE
ZINC03875028
   47    50     0     0     0
SMALL
USER_CHARGES

@<TRIPOS>ATOM
      1 C1         -2.5941    1.6316   -0.5549 C.3       1 <0>         0.0875
      2 N1         -1.4727    0.8249   -1.0428 N.pl3     1 <0>        -1.0063
      3 C2         -0.7489    1.2308   -2.2501 C.3       1 <0>         0.0907
      4 S1         -1.0231   -0.5457   -0.2294 S.o2      1 <0>         2.6970
      5 O1          0.3400   -0.7819   -0.5540 O.2       1 <0>        -0.9509
      6 O2         -1.4711   -0.3886    1.1099 O.2       1 <0>        -0.9503
      7 C3         -1.9430   -1.8833   -0.9144 C.ar      1 <0>        -0.7042
      8 C4         -3.1793   -2.2152   -0.3852 C.ar      1 <0>         0.0215
      9 C5         -3.9118   -3.2601   -0.9107 C.ar      1 <0>        -0.1588
     10 C6         -3.4122   -3.9932   -1.9816 C.ar      1 <0>         0.2096
     11 C7         -2.1609   -3.6544   -2.5144 C.ar      1 <0>        -0.1334
     12 C8         -1.4332   -2.5953   -1.9811 C.ar      1 <0>         0.0424
     13 C9         -1.9103   -4.6006   -3.6241 C.2       1 <0>        -0.1424
     14 C10        -0.8016   -4.6562   -4.4470 C.2       1 <0>         0.0616
     15 C11        -0.7256   -5.6316   -5.4625 C.2       1 <0>        -0.0097
     16 C12        -0.1011   -6.8678   -5.3686 C.2       1 <0>        -0.1392
     17 C13        -0.2684   -7.5007   -6.5951 C.2       1 <0>        -0.1603
     18 C14        -0.9747   -6.6681   -7.4088 C.2       1 <0>         0.0349
     19 N2         -1.2634   -5.5344   -6.7296 N.pl3     1 <0>        -0.5237
     20 H1         -1.7630   -4.7786   -7.0760 H         1 <0>         0.4119
     21 C15        -1.3537   -7.0049   -8.8315 C.3       1 <0>        -0.0514
     22 C16        -0.4837   -8.1772   -9.2999 C.3       1 <0>        -0.1118
     23 C17        -0.5357   -9.3006   -8.2611 C.3       1 <0>        -0.1202
     24 C18         0.2244   -8.8674   -7.0016 C.3       1 <0>        -0.0477
     25 C19        -3.0944   -5.4683   -3.6609 C.2       1 <0>         0.5549
     26 O3         -3.2848   -6.3870   -4.4381 O.2       1 <0>        -0.4682
     27 N3         -3.9316   -5.0713   -2.6876 N.am      1 <0>        -0.6564
     28 H2         -2.7402    2.4871   -1.2144 H         1 <0>         0.0834
     29 H3         -3.4994    1.0247   -0.5413 H         1 <0>         0.0603
     30 H4         -2.3771    1.9832    0.4537 H         1 <0>         0.0709
     31 H5          0.0785    1.8849   -1.9751 H         1 <0>         0.0635
     32 H6         -0.3606    0.3466   -2.7555 H         1 <0>         0.0714
     33 H7         -1.4262    1.7630   -2.9180 H         1 <0>         0.0753
     34 H8         -3.5737   -1.6510    0.4470 H         1 <0>         0.1507
     35 H9         -4.8745   -3.5091   -0.4892 H         1 <0>         0.1416
     36 H10        -0.4715   -2.3341   -2.3974 H         1 <0>         0.1469
     37 H11         0.0066   -3.9527   -4.3123 H         1 <0>         0.1492
     38 H12         0.4165   -7.2627   -4.5069 H         1 <0>         0.1369
     39 H13        -2.4053   -7.2885   -8.8739 H         1 <0>         0.0761
     40 H14        -1.1802   -6.1402   -9.4721 H         1 <0>         0.0712
     41 H15        -0.8570   -8.5477  -10.2546 H         1 <0>         0.0694
     42 H16         0.5461   -7.8402   -9.4190 H         1 <0>         0.0673
     43 H17        -1.5741   -9.5106   -8.0047 H         1 <0>         0.0637
     44 H18        -0.0746  -10.1982   -8.6732 H         1 <0>         0.0660
     45 H19         1.2926   -8.8242   -7.2141 H         1 <0>         0.0682
     46 H20         0.0380   -9.5791   -6.1973 H         1 <0>         0.0687
     47 H21        -4.7890   -5.4848   -2.5014 H         1 <0>         0.4224
@<TRIPOS>BOND
     1    1    2 1
     2    1   28 1
     3    1   29 1
     4    1   30 1
     5    2    3 1
     6    2    4 1
     7    3   31 1
     8    3   32 1
     9    3   33 1
    10    4    5 2
    11    4    6 2
    12    4    7 1
    13    7   12 ar
    14    7    8 ar
    15    8    9 ar
    16    8   34 1
    17    9   10 ar
    18    9   35 1
    19   10   27 1
    20   10   11 ar
    21   11   12 ar
    22   11   13 1
    23   12   36 1
    24   13   14 2
    25   13   25 1
    26   14   15 1
    27   14   37 1
    28   15   19 1
    29   15   16 2
    30   16   17 1
    31   16   38 1
    32   17   24 1
    33   17   18 2
    34   18   19 1
    35   18   21 1
    36   19   20 1
    37   21   22 1
    38   21   39 1
    39   21   40 1
    40   22   23 1
    41   22   41 1
    42   22   42 1
    43   23   24 1
    44   23   43 1
    45   23   44 1
    46   24   45 1
    47   24   46 1
    48   25   26 2
    49   25   27 am
    50   27   47 1
@<TRIPOS>MOLECULE
ZINC03874586
   26    28     0     0     0
SMALL
USER_CHARGES
(3Z)-3-(1H-pyrrol-2-ylmethylene)indolin-2-one
@<TRIPOS>ATOM
      1 C1          7.0447    1.1800   -0.4427 C.ar      1 <0>        -0.1433
      2 C2          7.6417    2.4276   -0.5186 C.ar      1 <0>        -0.0761
      3 C3          6.8792    3.5765   -0.4637 C.ar      1 <0>        -0.1404
      4 C4          5.4975    3.4914   -0.3312 C.ar      1 <0>         0.1515
      5 C5          4.8971    2.2272   -0.2552 C.ar      1 <0>        -0.1173
      6 C6          5.6749    1.0750   -0.3114 C.ar      1 <0>        -0.0565
      7 C7          3.4426    2.4639   -0.1215 C.2       1 <0>        -0.1358
      8 C8          2.4433    1.5157   -0.0127 C.2       1 <0>         0.0467
      9 C9          1.1118    1.9181    0.2193 C.2       1 <0>        -0.0015
     10 C10         0.1329    2.1100   -0.7436 C.2       1 <0>        -0.1517
     11 C11        -1.0261    2.5088   -0.0753 C.2       1 <0>        -0.1986
     12 C12        -0.7515    2.5460    1.2525 C.2       1 <0>         0.0006
     13 N1          0.5443    2.1928    1.4450 N.pl3     1 <0>        -0.5342
     14 H1          0.9957    2.1416    2.3021 H         1 <0>         0.4138
     15 C13         3.2904    3.9244   -0.1359 C.2       1 <0>         0.5524
     16 O1          2.2396    4.5354   -0.0532 O.2       1 <0>        -0.4793
     17 N2          4.5133    4.4689   -0.2532 N.am      1 <0>        -0.6582
     18 H2          7.6521    0.2880   -0.4867 H         1 <0>         0.1321
     19 H3          8.7142    2.5019   -0.6212 H         1 <0>         0.1333
     20 H4          7.3563    4.5435   -0.5243 H         1 <0>         0.1293
     21 H5          5.2087    0.1026   -0.2529 H         1 <0>         0.1304
     22 H6          2.6820    0.4665   -0.1053 H         1 <0>         0.1464
     23 H7          0.2468    1.9801   -1.8097 H         1 <0>         0.1362
     24 H8         -1.9750    2.7438   -0.5344 H         1 <0>         0.1371
     25 H9         -1.4501    2.8169    2.0303 H         1 <0>         0.1648
     26 H10         4.6864    5.4228   -0.2844 H         1 <0>         0.4184
@<TRIPOS>BOND
     1    1    6 ar
     2    1    2 ar
     3    1   18 1
     4    2    3 ar
     5    2   19 1
     6    3    4 ar
     7    3   20 1
     8    4   17 1
     9    4    5 ar
    10    5    6 ar
    11    5    7 1
    12    6   21 1
    13    7    8 2
    14    7   15 1
    15    8    9 1
    16    8   22 1
    17    9   13 1
    18    9   10 2
    19   10   11 1
    20   10   23 1
    21   11   12 2
    22   11   24 1
    23   12   13 1
    24   12   25 1
    25   13   14 1
    26   15   16 2
    27   15   17 am
    28   17   26 1
@<TRIPOS>MOLECULE
ZINC19632614
   55    58     0     0     0
SMALL
USER_CHARGES

@<TRIPOS>ATOM
      1 C1         -0.7374    1.4118    0.5253 C.3       1 <0>         0.0199
      2 O1         -0.7263   -0.0171    0.5247 O.3       1 <0>        -0.2961
      3 C2          0.0734   -0.6280    1.4373 C.ar      1 <0>         0.1647
      4 C3          0.8188    0.1348    2.3090 C.ar      1 <0>        -0.1833
      5 C4          1.6420   -0.4976    3.2485 C.ar      1 <0>         0.2017
      6 C5          1.6952   -1.9130    3.2874 C.ar      1 <0>        -0.1805
      7 C6          0.9277   -2.6653    2.3903 C.ar      1 <0>        -0.1504
      8 C7          0.1268   -2.0280    1.4855 C.ar      1 <0>         0.1167
      9 O2         -0.6229   -2.7597    0.6185 O.3       1 <0>        -0.2957
     10 C8         -0.5255   -4.1819    0.7171 C.3       1 <0>         0.0569
     11 C9         -1.4334   -4.8292   -0.3307 C.3       1 <0>        -0.1162
     12 C10        -1.3291   -6.3519   -0.2252 C.3       1 <0>         0.0590
     13 N1         -2.2008   -6.9733   -1.2311 N.3       1 <0>        -0.5361
     14 C11        -3.6165   -6.7053   -0.9393 C.3       1 <0>         0.0126
     15 C12        -4.4841   -7.3184   -2.0416 C.3       1 <0>         0.0623
     16 O3         -4.2065   -8.7181   -2.1368 O.3       1 <0>        -0.3850
     17 C13        -2.8368   -9.0154   -2.4209 C.3       1 <0>         0.0626
     18 C14        -1.9524   -8.4195   -1.3224 C.3       1 <0>         0.0175
     19 C15         2.5361   -2.5234    4.2482 C.ar      1 <0>         0.4639
     20 N2          3.2308   -1.7396    5.0625 N.ar      1 <0>        -0.5813
     21 C16         3.1493   -0.4206    4.9892 C.ar      1 <0>         0.3427
     22 N3          2.3876    0.1999    4.1200 N.ar      1 <0>        -0.5394
     23 N4          2.6306   -3.8977    4.3362 N.pl3     1 <0>        -0.6396
     24 C17         3.3713   -4.4833    5.3684 C.ar      1 <0>         0.1586
     25 C18         3.4039   -3.8902    6.6240 C.ar      1 <0>        -0.0764
     26 C19         4.1353   -4.4698    7.6421 C.ar      1 <0>        -0.1191
     27 C20         4.8362   -5.6416    7.4124 C.ar      1 <0>         0.0961
     28 C21         4.8054   -6.2354    6.1608 C.ar      1 <0>        -0.0542
     29 C22         4.0703   -5.6613    5.1406 C.ar      1 <0>        -0.1133
     30 Cl1         5.6852   -7.7046    5.8756 Cl        1 <0>        -0.0422
     31 F1          5.5513   -6.2065    8.4097 F         1 <0>        -0.1250
     32 H1          0.2683    1.7831    0.3285 H         1 <0>         0.0625
     33 H2         -1.4151    1.7702   -0.2495 H         1 <0>         0.1078
     34 H3         -1.0740    1.7722    1.4974 H         1 <0>         0.0624
     35 H4          0.7687    1.2128    2.2678 H         1 <0>         0.1567
     36 H5          0.9651   -3.7443    2.4164 H         1 <0>         0.1382
     37 H6          0.5060   -4.4884    0.5431 H         1 <0>         0.0655
     38 H7         -0.8359   -4.4993    1.7126 H         1 <0>         0.0633
     39 H8         -2.4649   -4.5227   -0.1568 H         1 <0>         0.0772
     40 H9         -1.1230   -4.5118   -1.3262 H         1 <0>         0.0870
     41 H10        -0.2976   -6.6584   -0.3991 H         1 <0>         0.0806
     42 H11        -1.6394   -6.6693    0.7704 H         1 <0>         0.0394
     43 H12        -3.8805   -7.1489    0.0207 H         1 <0>         0.0445
     44 H13        -3.7829   -5.6288   -0.9016 H         1 <0>         0.0906
     45 H14        -5.5369   -7.1717   -1.8001 H         1 <0>         0.0996
     46 H15        -4.2579   -6.8370   -2.9930 H         1 <0>         0.0614
     47 H16        -2.6980  -10.0960   -2.4536 H         1 <0>         0.0999
     48 H17        -2.5626   -8.5833   -3.3833 H         1 <0>         0.0613
     49 H18        -0.9041   -8.5942   -1.5643 H         1 <0>         0.0880
     50 H19        -2.1898   -8.8905   -0.3685 H         1 <0>         0.0446
     51 H20         3.7361    0.1714    5.6759 H         1 <0>         0.1991
     52 H21         2.1833   -4.4574    3.6823 H         1 <0>         0.4215
     53 H22         2.8578   -2.9760    6.8040 H         1 <0>         0.1516
     54 H23         4.1608   -4.0084    8.6183 H         1 <0>         0.1509
     55 H24         4.0430   -6.1262    4.1662 H         1 <0>         0.1452
@<TRIPOS>BOND
     1    1    2 1
     2    1   32 1
     3    1   33 1
     4    1   34 1
     5    2    3 1
     6    3    8 ar
     7    3    4 ar
     8    4    5 ar
     9    4   35 1
    10    5   22 ar
    11    5    6 ar
    12    6    7 ar
    13    6   19 ar
    14    7    8 ar
    15    7   36 1
    16    8    9 1
    17    9   10 1
    18   10   11 1
    19   10   37 1
    20   10   38 1
    21   11   12 1
    22   11   39 1
    23   11   40 1
    24   12   13 1
    25   12   41 1
    26   12   42 1
    27   13   18 1
    28   13   14 1
    29   14   15 1
    30   14   43 1
    31   14   44 1
    32   15   16 1
    33   15   45 1
    34   15   46 1
    35   16   17 1
    36   17   18 1
    37   17   47 1
    38   17   48 1
    39   18   49 1
    40   18   50 1
    41   19   20 ar
    42   19   23 1
    43   20   21 ar
    44   21   22 ar
    45   21   51 1
    46   23   24 1
    47   23   52 1
    48   24   29 ar
    49   24   25 ar
    50   25   26 ar
    51   25   53 1
    52   26   27 ar
    53   26   54 1
    54   27   28 ar
    55   27   31 1
    56   28   29 ar
    57   28   30 1
    58   29   55 1
@<TRIPOS>MOLECULE
ZINC19632614
   57    60     0     0     0
SMALL
USER_CHARGES

@<TRIPOS>ATOM
      1 C1          0.4957    0.6763   -1.2292 C.3       1 <0>         0.0097
      2 O1          0.3708   -0.6717   -0.7717 O.3       1 <0>        -0.2780
      3 C2         -0.8861   -1.1806   -0.6878 C.ar      1 <0>         0.2175
      4 C3         -1.9704   -0.3964   -1.0449 C.ar      1 <0>        -0.2163
      5 C4         -3.2517   -0.9159   -0.9595 C.ar      1 <0>         0.2109
      6 C5         -3.4429   -2.2355   -0.5110 C.ar      1 <0>        -0.1696
      7 C6         -2.3484   -3.0191   -0.1533 C.ar      1 <0>        -0.1343
      8 C7         -1.0748   -2.4922   -0.2475 C.ar      1 <0>         0.1172
      9 O2         -0.0002   -3.2528    0.0951 O.3       1 <0>        -0.2792
     10 C8         -0.2516   -4.6209    0.4223 C.3       1 <0>         0.0522
     11 C9          1.0783   -5.3474    0.6333 C.3       1 <0>        -0.1519
     12 C10         0.8148   -6.8369    0.8638 C.3       1 <0>        -0.0151
     13 N1          2.0946   -7.5463    0.9928 N.4       1 <0>        -0.3820
     14 C11         2.8253   -7.4743   -0.2800 C.3       1 <0>        -0.0514
     15 C12         4.1584   -8.2140   -0.1429 C.3       1 <0>         0.0361
     16 O3          3.9086   -9.5683    0.2435 O.3       1 <0>        -0.3530
     17 C13         3.1775   -9.6905    1.4668 C.3       1 <0>         0.0362
     18 C14         1.8426   -8.9535    1.3327 C.3       1 <0>        -0.0460
     19 C15        -4.8247   -2.7457   -0.4360 C.cat     1 <0>         0.5319
     20 N2         -5.0725   -3.9771   -0.0222 N.pl3     1 <0>        -0.5604
     21 C16        -4.2014   -4.6012    0.8249 C.ar      1 <0>         0.0974
     22 C17        -3.7272   -3.9360    1.9592 C.ar      1 <0>        -0.0816
     23 C18        -2.8483   -4.5713    2.8111 C.ar      1 <0>        -0.1175
     24 C19        -2.4343   -5.8665    2.5448 C.ar      1 <0>         0.1198
     25 C20        -2.9002   -6.5323    1.4212 C.ar      1 <0>        -0.0716
     26 C21        -3.7851   -5.9094    0.5642 C.ar      1 <0>        -0.0825
     27 Cl1        -2.3754   -8.1547    1.0956 Cl        1 <0>        -0.0183
     28 F1         -1.5728   -6.4831    3.3830 F         1 <0>        -0.1112
     29 N3         -5.8317   -1.9199   -0.8014 N.2       1 <0>        -0.5495
     30 C22        -5.6076   -0.7054   -1.2106 C.2       1 <0>         0.4712
     31 N4         -4.3672   -0.1695   -1.3053 N.pl3     1 <0>        -0.5812
     32 H1         -4.2589    0.7427   -1.6168 H         1 <0>         0.4503
     33 H2          1.5487    0.9571   -1.2491 H         1 <0>         0.1245
     34 H3          0.0784    0.7596   -2.2327 H         1 <0>         0.0727
     35 H4         -0.0447    1.3405   -0.5547 H         1 <0>         0.0731
     36 H5         -1.8176    0.6161   -1.3882 H         1 <0>         0.1754
     37 H6         -2.4939   -4.0322    0.1915 H         1 <0>         0.1665
     38 H7         -0.8431   -4.6731    1.3364 H         1 <0>         0.0710
     39 H8         -0.7992   -5.0947   -0.3924 H         1 <0>         0.0775
     40 H9          1.7051   -5.2217   -0.2495 H         1 <0>         0.1094
     41 H10         1.5867   -4.9297    1.5023 H         1 <0>         0.1099
     42 H11         0.2340   -6.9660    1.7771 H         1 <0>         0.1336
     43 H12         0.2581   -7.2423    0.0189 H         1 <0>         0.1350
     44 H13         2.2311   -7.9385   -1.0671 H         1 <0>         0.1411
     45 H14         3.0128   -6.4308   -0.5330 H         1 <0>         0.1444
     46 H15         4.6829   -8.1989   -1.0982 H         1 <0>         0.1447
     47 H16         4.7692   -7.7256    0.6163 H         1 <0>         0.0840
     48 H17         2.9923  -10.7439    1.6765 H         1 <0>         0.1456
     49 H18         3.7548   -9.2526    2.2811 H         1 <0>         0.0847
     50 H19         1.3007   -9.0081    2.2769 H         1 <0>         0.1448
     51 H20         1.2488   -9.4172    0.5450 H         1 <0>         0.1398
     52 H21        -4.0484   -2.9261    2.1679 H         1 <0>         0.1559
     53 H22        -2.4815   -4.0580    3.6876 H         1 <0>         0.1719
     54 H23        -4.1514   -6.4303   -0.3081 H         1 <0>         0.1696
     55 H24        -6.4530   -0.0939   -1.4891 H         1 <0>         0.2492
     56 H25        -5.8728   -4.4370   -0.3202 H         1 <0>         0.4487
     57 H26         2.6450   -7.1175    1.7216 H         1 <0>         0.4269
@<TRIPOS>BOND
     1    1    2 1
     2    1   33 1
     3    1   34 1
     4    1   35 1
     5    2    3 1
     6    3    8 ar
     7    3    4 ar
     8    4    5 ar
     9    4   36 1
    10    5   31 1
    11    5    6 ar
    12    6    7 ar
    13    6   19 1
    14    7    8 ar
    15    7   37 1
    16    8    9 1
    17    9   10 1
    18   10   11 1
    19   10   38 1
    20   10   39 1
    21   11   12 1
    22   11   40 1
    23   11   41 1
    24   12   13 1
    25   12   42 1
    26   12   43 1
    27   13   18 1
    28   13   14 1
    29   13   57 1
    30   14   15 1
    31   14   44 1
    32   14   45 1
    33   15   16 1
    34   15   46 1
    35   15   47 1
    36   16   17 1
    37   17   18 1
    38   17   48 1
    39   17   49 1
    40   18   50 1
    41   18   51 1
    42   19   20 2
    43   19   29 1
    44   20   21 1
    45   20   56 1
    46   21   26 ar
    47   21   22 ar
    48   22   23 ar
    49   22   52 1
    50   23   24 ar
    51   23   53 1
    52   24   25 ar
    53   24   28 1
    54   25   26 ar
    55   25   27 1
    56   26   54 1
    57   29   30 2
    58   30   31 1
    59   30   55 1
    60   31   32 1
