@<TRIPOS>MOLECULE
ZINC72107484
   54    57     0     0     0
SMALL
USER_CHARGES

@<TRIPOS>ATOM
      1 C1          1.9820    1.3909   -0.9390 C.ar      1 <0>        -0.0969
      2 C2          1.1682    2.0879   -0.0703 C.ar      1 <0>        -0.1320
      3 C3          0.3470    1.3953    0.8260 C.ar      1 <0>        -0.0148
      4 C4          0.3560   -0.0027    0.8359 C.ar      1 <0>        -0.1066
      5 C5          1.1780   -0.6910   -0.0418 C.ar      1 <0>         0.1474
      6 C6          1.9902    0.0084   -0.9284 C.ar      1 <0>        -0.1575
      7 N1          1.1911   -2.0886   -0.0363 N.pl3     1 <0>        -0.6402
      8 C7          0.0310   -2.7921    0.2533 C.ar      1 <0>         0.3769
      9 C8          0.0730   -4.2026    0.3655 C.ar      1 <0>         0.3619
     10 N2         -1.0212   -4.8823    0.6396 N.ar      1 <0>        -0.4525
     11 C9         -2.1823   -4.2341    0.8140 C.ar      1 <0>         0.0739
     12 C10        -3.3622   -4.9363    1.1075 C.ar      1 <0>        -0.0003
     13 C11        -4.5292   -4.2552    1.2806 C.ar      1 <0>        -0.0403
     14 C12        -4.5705   -2.8679    1.1705 C.ar      1 <0>        -0.0726
     15 C13        -3.4449   -2.1549    0.8869 C.ar      1 <0>        -0.0659
     16 C14        -2.2243   -2.8237    0.7022 C.ar      1 <0>         0.1230
     17 N3         -1.1017   -2.1431    0.4274 N.ar      1 <0>        -0.4640
     18 N4         -5.7703   -5.0002    1.5894 N.pl3     1 <0>         0.0372
     19 O1         -5.7438   -6.2050    1.6864 O.2       1 <0>        -0.1626
     20 O2         -6.8105   -4.4040    1.7446 O.3       1 <0>        -0.1565
     21 N5          1.2741   -4.8730    0.1851 N.pl3     1 <0>        -0.6440
     22 C15         1.3009   -6.2705    0.1825 C.ar      1 <0>         0.1510
     23 C16         0.2210   -6.9855   -0.3248 C.ar      1 <0>        -0.1257
     24 C17         0.2411   -8.3679   -0.3304 C.ar      1 <0>        -0.0972
     25 C18         1.3326   -9.0493    0.1667 C.ar      1 <0>        -0.1313
     26 C19         2.4248   -8.3409    0.6791 C.ar      1 <0>        -0.0141
     27 C20         2.4055   -6.9430    0.6799 C.ar      1 <0>        -0.1413
     28 C21         3.5906   -9.0638    1.2106 C.2       1 <0>        -0.1183
     29 C22         3.6081  -10.4150    1.2046 C.2       1 <0>        -0.1612
     30 C23         4.7302  -11.1108    1.7161 C.2       1 <0>         0.5002
     31 O3          5.6851  -10.4879    2.1641 O.co2     1 <0>        -0.6949
     32 O4          4.7460  -12.3356    1.7107 O.co2     1 <0>        -0.6996
     33 C24        -0.5220    2.1350    1.7544 C.2       1 <0>        -0.1161
     34 C25        -0.5282    3.4862    1.7427 C.2       1 <0>        -0.1614
     35 C26        -1.3646    4.1981    2.6363 C.2       1 <0>         0.5001
     36 O5         -2.0826    3.5891    3.4200 O.co2     1 <0>        -0.6932
     37 O6         -1.3702    5.4230    2.6257 O.co2     1 <0>        -0.7005
     38 H1          2.6120    1.9271   -1.6332 H         1 <0>         0.1241
     39 H2          1.1652    3.1678   -0.0817 H         1 <0>         0.1279
     40 H3         -0.2750   -0.5440    1.5252 H         1 <0>         0.1361
     41 H4          2.6296   -0.5308   -1.6116 H         1 <0>         0.1203
     42 H5          2.0114   -2.5667   -0.2350 H         1 <0>         0.4164
     43 H6         -3.3447   -6.0126    1.1954 H         1 <0>         0.1646
     44 H7         -5.5076   -2.3500    1.3116 H         1 <0>         0.1593
     45 H8         -3.4913   -1.0790    0.8047 H         1 <0>         0.1615
     46 H9          2.0953   -4.3720    0.0609 H         1 <0>         0.4155
     47 H10        -0.6369   -6.4586   -0.7156 H         1 <0>         0.1289
     48 H11        -0.6013   -8.9165   -0.7252 H         1 <0>         0.1234
     49 H12         1.3439  -10.1292    0.1607 H         1 <0>         0.1276
     50 H13         3.2468   -6.3894    1.0700 H         1 <0>         0.1261
     51 H14         4.4325   -8.5146    1.6056 H         1 <0>         0.1279
     52 H15         2.7662  -10.9641    0.8096 H         1 <0>         0.1016
     53 H16        -1.1551    1.5980    2.4453 H         1 <0>         0.1279
     54 H17         0.1048    4.0231    1.0518 H         1 <0>         0.1006
@<TRIPOS>BOND
     1    1    6 ar
     2    1    2 ar
     3    1   38 1
     4    2    3 ar
     5    2   39 1
     6    3    4 ar
     7    3   33 1
     8    4    5 ar
     9    4   40 1
    10    5    6 ar
    11    5    7 1
    12    6   41 1
    13    7    8 1
    14    7   42 1
    15    8   17 ar
    16    8    9 ar
    17    9   10 ar
    18    9   21 1
    19   10   11 ar
    20   11   16 ar
    21   11   12 ar
    22   12   13 ar
    23   12   43 1
    24   13   14 ar
    25   13   18 1
    26   14   15 ar
    27   14   44 1
    28   15   16 ar
    29   15   45 1
    30   16   17 ar
    31   18   19 2
    32   18   20 1
    33   21   22 1
    34   21   46 1
    35   22   27 ar
    36   22   23 ar
    37   23   24 ar
    38   23   47 1
    39   24   25 ar
    40   24   48 1
    41   25   26 ar
    42   25   49 1
    43   26   27 ar
    44   26   28 1
    45   27   50 1
    46   28   29 2
    47   28   51 1
    48   29   30 1
    49   29   52 1
    50   30   31 2
    51   30   32 1
    52   33   34 2
    53   33   53 1
    54   34   35 1
    55   34   54 1
    56   35   36 2
    57   35   37 1
@<TRIPOS>MOLECULE
ZINC00689897
   47    50     0     0     0
SMALL
USER_CHARGES
3-[(4,6-dianilino-1,3,5-triazin-2-yl)amino]benzoic acid
@<TRIPOS>ATOM
      1 C1         -1.1358    5.3224    1.1520 C.ar      1 <0>        -0.1380
      2 C2         -0.5585    5.0198    2.3717 C.ar      1 <0>        -0.1029
      3 C3         -0.4103    3.7025    2.7593 C.ar      1 <0>        -0.1442
      4 C4         -0.8418    2.6813    1.9227 C.ar      1 <0>         0.1618
      5 C5         -1.4159    2.9885    0.6958 C.ar      1 <0>        -0.1093
      6 C6         -1.5660    4.3080    0.3165 C.ar      1 <0>        -0.1058
      7 N1         -0.6932    1.3465    2.3121 N.pl3     1 <0>        -0.6282
      8 C7         -1.6712    0.4224    1.9985 C.ar      1 <0>         0.6494
      9 N2         -2.7038    0.7787    1.2409 N.ar      1 <0>        -0.6603
     10 C8         -3.6449   -0.1104    0.9391 C.ar      1 <0>         0.6482
     11 N3         -3.5531   -1.3559    1.3945 N.ar      1 <0>        -0.6569
     12 C9         -2.5205   -1.7122    2.1522 C.ar      1 <0>         0.6532
     13 N4         -1.5768   -0.8244    2.4498 N.ar      1 <0>        -0.6458
     14 N5         -2.4251   -3.0067    2.6255 N.pl3     1 <0>        -0.6149
     15 C10        -1.2783   -3.4172    3.3129 C.ar      1 <0>         0.1272
     16 C11        -0.0353   -2.9045    2.9597 C.ar      1 <0>        -0.1091
     17 C12         1.1005   -3.3032    3.6389 C.ar      1 <0>        -0.1245
     18 C13         1.0099   -4.2210    4.6656 C.ar      1 <0>        -0.0855
     19 C14        -0.2330   -4.7461    5.0248 C.ar      1 <0>        -0.0962
     20 C15        -1.3804   -4.3395    4.3425 C.ar      1 <0>        -0.1030
     21 C16        -0.3330   -5.7292    6.1232 C.2       1 <0>         0.4902
     22 O1         -1.4153   -6.1849    6.4337 O.co2     1 <0>        -0.6309
     23 N6         -4.7181    0.2599    0.1517 N.pl3     1 <0>        -0.6275
     24 C17        -5.7798   -0.6285   -0.0459 C.ar      1 <0>         0.1585
     25 C18        -5.5405   -1.9950   -0.1131 C.ar      1 <0>        -0.1140
     26 C19        -6.5919   -2.8701   -0.3031 C.ar      1 <0>        -0.1026
     27 C20        -7.8805   -2.3864   -0.4367 C.ar      1 <0>        -0.1377
     28 C21        -8.1214   -1.0260   -0.3759 C.ar      1 <0>        -0.1038
     29 C22        -7.0751   -0.1459   -0.1809 C.ar      1 <0>        -0.1482
     30 H1         -1.2505    6.3533    0.8513 H         1 <0>         0.1198
     31 H2         -0.2235    5.8144    3.0219 H         1 <0>         0.1240
     32 H3          0.0409    3.4668    3.7118 H         1 <0>         0.1251
     33 H4         -1.7483    2.1966    0.0410 H         1 <0>         0.1405
     34 H5         -2.0158    4.5477   -0.6357 H         1 <0>         0.1222
     35 H6          0.0965    1.0694    2.8025 H         1 <0>         0.4276
     36 H7         -3.1535   -3.6308    2.4811 H         1 <0>         0.4248
     37 H8          0.0426   -2.1893    2.1542 H         1 <0>         0.1251
     38 H9          2.0628   -2.8982    3.3625 H         1 <0>         0.1190
     39 H10         1.9003   -4.5333    5.1909 H         1 <0>         0.1313
     40 H11        -2.3445   -4.7423    4.6155 H         1 <0>         0.1292
     41 H12        -4.7351    1.1361   -0.2640 H         1 <0>         0.4238
     42 H13        -4.5338   -2.3731   -0.0129 H         1 <0>         0.1501
     43 H14        -6.4070   -3.9330   -0.3517 H         1 <0>         0.1245
     44 H15        -8.7005   -3.0725   -0.5893 H         1 <0>         0.1204
     45 H16        -9.1290   -0.6514   -0.4807 H         1 <0>         0.1232
     46 H17        -7.2639    0.9164   -0.1339 H         1 <0>         0.1225
     47 O2          0.7761   -6.1201    6.7803 O.co2     1 <0>        -0.7522
@<TRIPOS>BOND
     1    1    6 ar
     2    1    2 ar
     3    1   30 1
     4    2    3 ar
     5    2   31 1
     6    3    4 ar
     7    3   32 1
     8    4    5 ar
     9    4    7 1
    10    5    6 ar
    11    5   33 1
    12    6   34 1
    13    7    8 1
    14    7   35 1
    15    8   13 ar
    16    8    9 ar
    17    9   10 ar
    18   10   11 ar
    19   10   23 1
    20   11   12 ar
    21   12   13 ar
    22   12   14 1
    23   14   15 1
    24   14   36 1
    25   15   20 ar
    26   15   16 ar
    27   16   17 ar
    28   16   37 1
    29   17   18 ar
    30   17   38 1
    31   18   19 ar
    32   18   39 1
    33   19   20 ar
    34   19   21 1
    35   20   40 1
    36   21   22 2
    37   21   47 1
    38   23   24 1
    39   23   41 1
    40   24   29 ar
    41   24   25 ar
    42   25   26 ar
    43   25   42 1
    44   26   27 ar
    45   26   43 1
    46   27   28 ar
    47   27   44 1
    48   28   29 ar
    49   28   45 1
    50   29   46 1
