@<TRIPOS>MOLECULE
ZINC34371722
   32    35     0     0     0
SMALL
USER_CHARGES

@<TRIPOS>ATOM
      1 C1         -0.0167    1.3786    0.0096 C.ar      1 <0>        -0.0992
      2 C2          1.1696    2.0892    0.0021 C.ar      1 <0>        -0.1009
      3 C3          2.3774    1.4194   -0.0135 C.ar      1 <0>        -0.0868
      4 C4          2.3996    0.0309   -0.0212 C.ar      1 <0>         0.1023
      5 C5          1.2065   -0.6797   -0.0132 C.ar      1 <0>        -0.1019
      6 C6          0.0021   -0.0041    0.0020 C.ar      1 <0>        -0.1064
      7 N1          3.6225   -0.6512   -0.0375 N.pl3     1 <0>        -0.4206
      8 C7          4.1021   -1.4514   -1.0568 C.ar      1 <0>         0.0694
      9 C8          3.6084   -1.8316   -2.2971 C.ar      1 <0>        -0.1075
     10 C9          4.3538   -2.6660   -3.1029 C.ar      1 <0>        -0.0860
     11 C10         5.5934   -3.1281   -2.6823 C.ar      1 <0>        -0.1214
     12 C11         6.0963   -2.7653   -1.4656 C.ar      1 <0>        -0.0553
     13 C12         5.3586   -1.9191   -0.6303 C.ar      1 <0>         0.0508
     14 N2          5.5844   -1.3971    0.5988 N.2       1 <0>        -0.4516
     15 C13         4.5709   -0.6456    0.9523 C.2       1 <0>         0.3285
     16 C14         4.4647    0.0947    2.2285 C.2       1 <0>         0.1298
     17 C15         5.4718    0.1173    3.2969 C.2       1 <0>         0.3642
     18 N3          5.0285    0.8748    4.2620 N.2       1 <0>        -0.3525
     19 O1          3.7551    1.3653    3.8823 O.3       1 <0>         0.0400
     20 N4          3.4597    0.8466    2.5976 N.2       1 <0>        -0.2360
     21 N5          6.6877   -0.5535    3.2826 N.pl3     1 <0>        -0.8022
     22 H1         -0.9598    1.9046    0.0260 H         1 <0>         0.1334
     23 H2          1.1517    3.1690    0.0081 H         1 <0>         0.1352
     24 H3          3.3035    1.9749   -0.0201 H         1 <0>         0.1235
     25 H4          1.2205   -1.7596   -0.0195 H         1 <0>         0.1285
     26 H5         -0.9261   -0.5562    0.0079 H         1 <0>         0.1351
     27 H6          2.6444   -1.4758   -2.6294 H         1 <0>         0.1278
     28 H7          3.9705   -2.9623   -4.0681 H         1 <0>         0.1368
     29 H8          6.1658   -3.7816   -3.3238 H         1 <0>         0.1367
     30 H9          7.0617   -3.1311   -1.1484 H         1 <0>         0.1371
     31 H10         6.9329   -1.0968    2.5174 H         1 <0>         0.4307
     32 H11         7.2918   -0.4786    4.0378 H         1 <0>         0.4182
@<TRIPOS>BOND
     1    1    6 ar
     2    1    2 ar
     3    1   22 1
     4    2    3 ar
     5    2   23 1
     6    3    4 ar
     7    3   24 1
     8    4    5 ar
     9    4    7 1
    10    5    6 ar
    11    5   25 1
    12    6   26 1
    13    7   15 1
    14    7    8 1
    15    8   13 ar
    16    8    9 ar
    17    9   10 ar
    18    9   27 1
    19   10   11 ar
    20   10   28 1
    21   11   12 ar
    22   11   29 1
    23   12   13 ar
    24   12   30 1
    25   13   14 1
    26   14   15 2
    27   15   16 1
    28   16   20 2
    29   16   17 1
    30   17   18 2
    31   17   21 1
    32   18   19 1
    33   19   20 1
    34   21   31 1
    35   21   32 1
@<TRIPOS>MOLECULE
ZINC00053816
   32    35     0     0     0
SMALL
USER_CHARGES
4-[1-(cyclopropylmethyl)benzoimidazol-2-yl]-1,2,5-oxadiazol-3-amine
@<TRIPOS>ATOM
      1 C1          4.8805   -3.7251    1.3030 C.ar      1 <0>        -0.1247
      2 C2          3.5459   -3.5610    1.6481 C.ar      1 <0>        -0.0932
      3 C3          2.9579   -2.3153    1.5945 C.ar      1 <0>        -0.1078
      4 C4          3.7069   -1.2174    1.1928 C.ar      1 <0>         0.0622
      5 C5          5.0586   -1.3839    0.8403 C.ar      1 <0>         0.0499
      6 C6          5.6317   -2.6592    0.8977 C.ar      1 <0>        -0.0594
      7 N1          5.5366   -0.1631    0.5010 N.2       1 <0>        -0.4681
      8 C7          4.5843    0.7295    0.6136 C.2       1 <0>         0.3554
      9 N2          3.4306    0.1256    1.0355 N.pl3     1 <0>        -0.4661
     10 C8          2.1445    0.7830    1.2803 C.3       1 <0>         0.1379
     11 C9          1.3165    0.7789   -0.0063 C.3       1 <0>        -0.1751
     12 C10        -0.0187    1.5258    0.0104 C.3       1 <0>        -0.1609
     13 C11         0.0021   -0.0041    0.0020 C.3       1 <0>        -0.1746
     14 C12         4.7332    2.1733    0.3269 C.2       1 <0>         0.0202
     15 C13         5.9368    2.9099   -0.1250 C.2       1 <0>         0.3226
     16 N3          5.4977    4.1431   -0.2190 N.2       1 <0>        -0.4110
     17 O1          4.3320    4.1813    0.0972 O.3       1 <0>         0.3360
     18 N4          3.8316    3.1279    0.4145 N.2       1 <0>        -0.3189
     19 N5          7.2091    2.4184   -0.3859 N.pl3     1 <0>        -0.8004
     20 H1          5.3276   -4.7071    1.3495 H         1 <0>         0.1331
     21 H2          2.9640   -4.4155    1.9604 H         1 <0>         0.1334
     22 H3          1.9192   -2.1938    1.8642 H         1 <0>         0.1242
     23 H4          6.6697   -2.7981    0.6337 H         1 <0>         0.1328
     24 H5          2.3168    1.8113    1.5981 H         1 <0>         0.1074
     25 H6          1.6052    0.2469    2.0611 H         1 <0>         0.0953
     26 H7          1.8888    0.7918   -0.9339 H         1 <0>         0.1063
     27 H8         -0.3248    2.0300   -0.9061 H         1 <0>         0.1009
     28 H9         -0.3072    2.0201    0.9381 H         1 <0>         0.1003
     29 H10        -0.2728   -0.5162    0.9241 H         1 <0>         0.0972
     30 H11        -0.2904   -0.5063   -0.9201 H         1 <0>         0.0978
     31 H12         7.3960    1.4731   -0.2753 H         1 <0>         0.4300
     32 H13         7.9110    3.0205   -0.6789 H         1 <0>         0.4174
@<TRIPOS>BOND
     1    1    6 ar
     2    1    2 ar
     3    1   20 1
     4    2    3 ar
     5    2   21 1
     6    3    4 ar
     7    3   22 1
     8    4    9 1
     9    4    5 ar
    10    5    6 ar
    11    5    7 1
    12    6   23 1
    13    7    8 2
    14    8    9 1
    15    8   14 1
    16    9   10 1
    17   10   11 1
    18   10   24 1
    19   10   25 1
    20   11   13 1
    21   11   12 1
    22   11   26 1
    23   12   13 1
    24   12   27 1
    25   12   28 1
    26   13   29 1
    27   13   30 1
    28   14   18 2
    29   14   15 1
    30   15   16 2
    31   15   19 1
    32   16   17 1
    33   17   18 1
    34   19   31 1
    35   19   32 1
@<TRIPOS>MOLECULE
ZINC05481799
   34    36     0     0     0
SMALL
USER_CHARGES
4-(1-isobutylbenzoimidazol-2-yl)-1,2,5-oxadiazol-3-amine
@<TRIPOS>ATOM
      1 C1         -3.5703    2.5211   -2.0788 C.3       1 <0>        -0.1529
      2 C2         -4.1971    3.7307   -1.3824 C.3       1 <0>        -0.1080
      3 C3         -5.7197    3.5804   -1.3713 C.3       1 <0>        -0.1448
      4 C4         -3.6824    3.8144    0.0560 C.3       1 <0>         0.1080
      5 N1         -2.2413    4.0776    0.0444 N.pl3     1 <0>        -0.4655
      6 C5         -1.2361    3.1321    0.0298 C.ar      1 <0>         0.0631
      7 C6         -1.2185    1.7438    0.0173 C.ar      1 <0>        -0.1092
      8 C7         -0.0126    1.0758    0.0080 C.ar      1 <0>        -0.0938
      9 C8          1.1830    1.7812    0.0003 C.ar      1 <0>        -0.1250
     10 C9          1.1866    3.1467    0.0072 C.ar      1 <0>        -0.0594
     11 C10        -0.0247    3.8471    0.0220 C.ar      1 <0>         0.0495
     12 N2         -0.3380    5.1645    0.0320 N.2       1 <0>        -0.4686
     13 C11        -1.6401    5.3074    0.0452 C.2       1 <0>         0.3541
     14 C12        -2.3539    6.6034    0.0594 C.2       1 <0>         0.0216
     15 C13        -1.7891    7.9732    0.0674 C.2       1 <0>         0.3225
     16 N3         -2.8650    8.7249    0.0766 N.2       1 <0>        -0.4107
     17 O1         -3.8479    8.0221    0.0826 O.3       1 <0>         0.3355
     18 N4         -3.6501    6.8298    0.0738 N.2       1 <0>        -0.3215
     19 N5         -0.4565    8.3635    0.0635 N.pl3     1 <0>        -0.8003
     20 H1         -3.8418    1.6120   -1.5422 H         1 <0>         0.0582
     21 H2         -3.9370    2.4614   -3.1035 H         1 <0>         0.0612
     22 H3         -2.4856    2.6282   -2.0867 H         1 <0>         0.0568
     23 H4         -3.9257    4.6398   -1.9189 H         1 <0>         0.0747
     24 H5         -6.1662    4.4421   -0.8752 H         1 <0>         0.0630
     25 H6         -6.0864    3.5207   -2.3960 H         1 <0>         0.0640
     26 H7         -5.9911    2.6712   -0.8347 H         1 <0>         0.0589
     27 H8         -3.8753    2.8708    0.5664 H         1 <0>         0.0944
     28 H9         -4.1950    4.6218    0.5789 H         1 <0>         0.1037
     29 H10        -2.1454    1.1896    0.0190 H         1 <0>         0.1247
     30 H11         0.0021   -0.0041    0.0020 H         1 <0>         0.1331
     31 H12         2.1201    1.2444   -0.0115 H         1 <0>         0.1328
     32 H13         2.1228    3.6852    0.0015 H         1 <0>         0.1324
     33 H14         0.2451    7.6937    0.0544 H         1 <0>         0.4300
     34 H15        -0.2271    9.3060    0.0698 H         1 <0>         0.4174
@<TRIPOS>BOND
     1    1    2 1
     2    1   20 1
     3    1   21 1
     4    1   22 1
     5    2    3 1
     6    2    4 1
     7    2   23 1
     8    3   24 1
     9    3   25 1
    10    3   26 1
    11    4    5 1
    12    4   27 1
    13    4   28 1
    14    5   13 1
    15    5    6 1
    16    6   11 ar
    17    6    7 ar
    18    7    8 ar
    19    7   29 1
    20    8    9 ar
    21    8   30 1
    22    9   10 ar
    23    9   31 1
    24   10   11 ar
    25   10   32 1
    26   11   12 1
    27   12   13 2
    28   13   14 1
    29   14   18 2
    30   14   15 1
    31   15   16 2
    32   15   19 1
    33   16   17 1
    34   17   18 1
    35   19   33 1
    36   19   34 1
@<TRIPOS>MOLECULE
ZINC00051756
   31    33     0     0     0
SMALL
USER_CHARGES
4-(1-isopropylbenzoimidazol-2-yl)-1,2,5-oxadiazol-3-amine
@<TRIPOS>ATOM
      1 C1         -4.0222    2.8671   -1.1033 C.3       1 <0>        -0.1639
      2 C2         -3.6697    3.7959    0.0603 C.3       1 <0>         0.1203
      3 C3         -4.0264    3.1143    1.3829 C.3       1 <0>        -0.1645
      4 N1         -2.2347    4.0892    0.0336 N.pl3     1 <0>        -0.4635
      5 C4         -1.2091    3.1711    0.1335 C.ar      1 <0>         0.0651
      6 C5         -1.1612    1.7907    0.2750 C.ar      1 <0>        -0.1110
      7 C6          0.0590    1.1536    0.3514 C.ar      1 <0>        -0.0939
      8 C7          1.2390    1.8811    0.2772 C.ar      1 <0>        -0.1255
      9 C8          1.2128    3.2387    0.1329 C.ar      1 <0>        -0.0588
     10 C9         -0.0135    3.9084    0.0583 C.ar      1 <0>         0.0486
     11 N2         -0.3554    5.2114   -0.0807 N.2       1 <0>        -0.4683
     12 C10        -1.6604    5.3250   -0.0960 C.2       1 <0>         0.3524
     13 C11        -2.4023    6.5978   -0.2324 C.2       1 <0>         0.0231
     14 C12        -1.8722    7.9810   -0.2685 C.2       1 <0>         0.3228
     15 N3         -2.9616    8.7002   -0.4043 N.2       1 <0>        -0.4098
     16 O1         -3.9248    7.9712   -0.4360 O.3       1 <0>         0.3358
     17 N4         -3.6996    6.7871   -0.3463 N.2       1 <0>        -0.3253
     18 N5         -0.5538    8.4087   -0.1829 N.pl3     1 <0>        -0.8000
     19 H1         -5.1024    2.7261   -1.1413 H         1 <0>         0.0827
     20 H2         -3.6806    3.3106   -2.0386 H         1 <0>         0.0638
     21 H3         -3.5348    1.9029   -0.9591 H         1 <0>         0.0664
     22 H4         -4.2323    4.7248   -0.0331 H         1 <0>         0.1189
     23 H5         -3.6882    3.7337    2.2136 H         1 <0>         0.0634
     24 H6         -5.1067    2.9828    1.4440 H         1 <0>         0.0827
     25 H7         -3.5385    2.1410    1.4332 H         1 <0>         0.0669
     26 H8         -2.0758    1.2190    0.3291 H         1 <0>         0.1252
     27 H9          0.0972    0.0803    0.4652 H         1 <0>         0.1331
     28 H10         2.1876    1.3679    0.3340 H         1 <0>         0.1328
     29 H11         2.1371    3.7946    0.0766 H         1 <0>         0.1325
     30 H12         0.1610    7.7603   -0.0852 H         1 <0>         0.4301
     31 H13        -0.3477    9.3558   -0.2207 H         1 <0>         0.4176
@<TRIPOS>BOND
     1    1    2 1
     2    1   19 1
     3    1   20 1
     4    1   21 1
     5    2    3 1
     6    2    4 1
     7    2   22 1
     8    3   23 1
     9    3   24 1
    10    3   25 1
    11    4   12 1
    12    4    5 1
    13    5   10 ar
    14    5    6 ar
    15    6    7 ar
    16    6   26 1
    17    7    8 ar
    18    7   27 1
    19    8    9 ar
    20    8   28 1
    21    9   10 ar
    22    9   29 1
    23   10   11 1
    24   11   12 2
    25   12   13 1
    26   13   17 2
    27   13   14 1
    28   14   15 2
    29   14   18 1
    30   15   16 1
    31   16   17 1
    32   18   30 1
    33   18   31 1
@<TRIPOS>MOLECULE
ZINC00051756
   32    34     0     0     0
SMALL
USER_CHARGES
4-(1-isopropylbenzoimidazol-2-yl)-1,2,5-oxadiazol-3-amine
@<TRIPOS>ATOM
      1 C1         -4.0222    2.8671   -1.1033 C.3       1 <0>        -0.1707
      2 C2         -3.6697    3.7959    0.0603 C.3       1 <0>         0.1095
      3 C3         -4.0264    3.1143    1.3829 C.3       1 <0>        -0.1713
      4 N1         -2.2347    4.0892    0.0336 N.pl3     1 <0>        -0.3973
      5 C4         -1.2091    3.1711    0.1335 C.ar      1 <0>         0.0881
      6 C5         -1.1612    1.7907    0.2750 C.ar      1 <0>        -0.0874
      7 C6          0.0590    1.1536    0.3514 C.ar      1 <0>        -0.0618
      8 C7          1.2390    1.8811    0.2772 C.ar      1 <0>        -0.0724
      9 C8          1.2128    3.2387    0.1329 C.ar      1 <0>        -0.0778
     10 C9         -0.0135    3.9084    0.0583 C.ar      1 <0>         0.0592
     11 C10        -1.6604    5.3250   -0.0960 C.cat     1 <0>         0.4697
     12 C11        -2.4023    6.5978   -0.2324 C.2       1 <0>        -0.0548
     13 C12        -1.8722    7.9810   -0.2685 C.2       1 <0>         0.3255
     14 N2         -2.9616    8.7002   -0.4043 N.2       1 <0>        -0.3698
     15 O1         -3.9248    7.9712   -0.4360 O.3       1 <0>         0.3963
     16 N3         -3.6996    6.7871   -0.3463 N.2       1 <0>        -0.2820
     17 N4         -0.5538    8.4087   -0.1829 N.pl3     1 <0>        -0.7998
     18 H1         -5.1024    2.7261   -1.1413 H         1 <0>         0.1050
     19 H2         -3.6806    3.3106   -2.0386 H         1 <0>         0.0726
     20 H3         -3.5348    1.9029   -0.9591 H         1 <0>         0.0760
     21 H4         -4.2323    4.7248   -0.0331 H         1 <0>         0.1355
     22 H5         -3.6882    3.7337    2.2136 H         1 <0>         0.0722
     23 H6         -5.1067    2.9828    1.4440 H         1 <0>         0.1050
     24 H7         -3.5385    2.1410    1.4332 H         1 <0>         0.0763
     25 H8         -2.0758    1.2190    0.3291 H         1 <0>         0.1543
     26 H9          0.0972    0.0803    0.4652 H         1 <0>         0.1602
     27 H10         2.1876    1.3679    0.3340 H         1 <0>         0.1603
     28 H11         2.1371    3.7946    0.0766 H         1 <0>         0.1560
     29 H12         0.1610    7.7603   -0.0852 H         1 <0>         0.4102
     30 H13        -0.3477    9.3558   -0.2207 H         1 <0>         0.4376
     31 N5         -0.3547    5.2122   -0.0808 N.pl3     1 <0>        -0.4902
     32 H14         0.3080    5.9923   -0.1618 H         1 <0>         0.4658
@<TRIPOS>BOND
     1    1    2 1
     2    1   18 1
     3    1   19 1
     4    1   20 1
     5    2    3 1
     6    2    4 1
     7    2   21 1
     8    3   22 1
     9    3   23 1
    10    3   24 1
    11    4   11 1
    12    4    5 1
    13    5   10 ar
    14    5    6 ar
    15    6    7 ar
    16    6   25 1
    17    7    8 ar
    18    7   26 1
    19    8    9 ar
    20    8   27 1
    21    9   10 ar
    22    9   28 1
    23   10   31 1
    24   11   12 1
    25   11   31 2
    26   12   16 2
    27   12   13 1
    28   13   14 2
    29   13   17 1
    30   14   15 1
    31   15   16 1
    32   17   29 1
    33   17   30 1
    34   31   32 1
@<TRIPOS>MOLECULE
ZINC34321506
   29    32     0     0     0
SMALL
USER_CHARGES

@<TRIPOS>ATOM
      1 C1          0.0052    1.3502    0.3676 C.ar      1 <0>        -0.1235
      2 C2          1.1659    2.0806    0.1520 C.ar      1 <0>        -0.0885
      3 C3          2.3670    1.4381   -0.0601 C.ar      1 <0>        -0.1100
      4 C4          2.4151    0.0505   -0.0580 C.ar      1 <0>         0.0685
      5 C5          1.2390   -0.6897    0.1604 C.ar      1 <0>         0.0485
      6 C6          0.0318   -0.0150    0.3734 C.ar      1 <0>        -0.0562
      7 N1          1.5762   -2.0003    0.1091 N.2       1 <0>        -0.4578
      8 C7          2.8605   -2.1158   -0.1224 C.2       1 <0>         0.3252
      9 N2          3.4248   -0.8737   -0.2339 N.pl3     1 <0>        -0.4399
     10 C8          4.8367   -0.5803   -0.4920 C.3       1 <0>         0.0458
     11 C9          5.1563    0.4807   -1.5471 C.3       1 <0>        -0.1650
     12 C10         5.4085   -0.9980   -1.8483 C.3       1 <0>        -0.1529
     13 C11         3.5913   -3.3965   -0.2443 C.2       1 <0>         0.1351
     14 C12         2.9884   -4.7353   -0.2398 C.2       1 <0>         0.3630
     15 N3          3.9431   -5.6151   -0.3673 N.2       1 <0>        -0.3532
     16 O1          5.1718   -4.9161   -0.4578 O.3       1 <0>         0.0382
     17 N4          4.8854   -3.5309   -0.3804 N.2       1 <0>        -0.2407
     18 N5          1.6338   -5.0167   -0.1200 N.pl3     1 <0>        -0.8023
     19 H1         -0.9278    1.8673    0.5369 H         1 <0>         0.1352
     20 H2          1.1276    3.1599    0.1502 H         1 <0>         0.1355
     21 H3          3.2667    2.0117   -0.2276 H         1 <0>         0.1283
     22 H4         -0.8773   -0.5730    0.5425 H         1 <0>         0.1354
     23 H5          5.4961   -0.6445    0.3735 H         1 <0>         0.1403
     24 H6          4.3161    0.9604   -2.0491 H         1 <0>         0.1057
     25 H7          6.0261    1.1149   -1.3757 H         1 <0>         0.1182
     26 H8          6.4443   -1.3367   -1.8751 H         1 <0>         0.1197
     27 H9          4.7342   -1.4912   -2.5485 H         1 <0>         0.0986
     28 H10         0.9943   -4.2931   -0.0289 H         1 <0>         0.4307
     29 H11         1.3272   -5.9370   -0.1273 H         1 <0>         0.4179
@<TRIPOS>BOND
     1    1    6 ar
     2    1    2 ar
     3    1   19 1
     4    2    3 ar
     5    2   20 1
     6    3    4 ar
     7    3   21 1
     8    4    9 1
     9    4    5 ar
    10    5    6 ar
    11    5    7 1
    12    6   22 1
    13    7    8 2
    14    8    9 1
    15    8   13 1
    16    9   10 1
    17   10   12 1
    18   10   11 1
    19   10   23 1
    20   11   12 1
    21   11   24 1
    22   11   25 1
    23   12   26 1
    24   12   27 1
    25   13   17 2
    26   13   14 1
    27   14   15 2
    28   14   18 1
    29   15   16 1
    30   16   17 1
    31   18   28 1
    32   18   29 1
@<TRIPOS>MOLECULE
ZINC00022706
   44    46     0     0     0
SMALL
USER_CHARGES

@<TRIPOS>ATOM
      1 C1         -2.0705    0.9655    3.5426 C.3       1 <0>        -0.1933
      2 C2         -2.1465   -0.4564    3.0494 C.ar      1 <0>        -0.1513
      3 C3         -3.1879   -1.2598    3.4035 C.ar      1 <0>         0.1147
      4 N1         -3.2785   -2.5142    2.9839 N.ar      1 <0>        -0.4799
      5 C4         -2.3806   -3.0692    2.2037 C.ar      1 <0>         0.1608
      6 C5         -1.2670   -2.3265    1.7802 C.ar      1 <0>        -0.1298
      7 C6         -1.1465   -0.9789    2.2096 C.ar      1 <0>         0.0568
      8 C7         -0.0451   -0.2165    1.7944 C.ar      1 <0>        -0.6740
      9 C8          0.8909   -0.7791    0.9803 C.ar      1 <0>         0.0153
     10 C9          0.7709   -2.1006    0.5536 C.ar      1 <0>        -0.1568
     11 C10        -0.2792   -2.8736    0.9461 C.ar      1 <0>        -0.0074
     12 S1          0.1264    1.4561    2.3212 S.o2      1 <0>         2.7012
     13 O1         -1.0784    2.1198    1.9645 O.2       1 <0>        -0.9434
     14 O2          0.6056    1.4137    3.6583 O.2       1 <0>        -0.9375
     15 N2          1.3294    2.1360    1.4087 N.pl3     1 <0>        -1.0126
     16 C11         2.6905    2.2222    1.9753 C.3       1 <0>         0.0892
     17 C12         3.3419    3.5780    1.6472 C.3       1 <0>        -0.1524
     18 C13         2.3086    4.6758    1.7699 C.3       1 <0>        -0.0109
     19 N3          1.7064    4.9200    0.4611 N.4       1 <0>        -0.4860
     20 C14         0.5885    4.1108    0.1597 C.3       1 <0>        -0.0526
     21 C15         1.0102    2.6195    0.0811 C.3       1 <0>         0.1430
     22 H1          1.8865    2.5232   -0.5599 H         1 <0>         0.1129
     23 C16        -0.1368    1.7903   -0.5000 C.3       1 <0>        -0.2392
     24 H2         -2.4559    1.6373    2.7756 H         1 <0>         0.1512
     25 H3         -2.6675    1.0682    4.4488 H         1 <0>         0.0890
     26 H4         -1.0331    1.2197    3.7603 H         1 <0>         0.0573
     27 H5         -3.9616   -0.8638    4.0445 H         1 <0>         0.1647
     28 H6         -2.4981   -4.0954    1.8883 H         1 <0>         0.1745
     29 H7          1.7390   -0.1921    0.6602 H         1 <0>         0.1355
     30 H8          1.5278   -2.5210   -0.0920 H         1 <0>         0.1430
     31 H9         -0.3584   -3.8961    0.6075 H         1 <0>         0.1498
     32 H10         2.6356    2.1043    3.0575 H         1 <0>         0.1191
     33 H11         3.3023    1.4215    1.5597 H         1 <0>         0.0926
     34 H12         4.1580    3.7674    2.3446 H         1 <0>         0.1292
     35 H13         3.7311    3.5573    0.6292 H         1 <0>         0.0944
     36 H14         1.5354    4.3706    2.4750 H         1 <0>         0.1279
     37 H15         2.7872    5.5880    2.1262 H         1 <0>         0.1445
     38 H16         1.4207    5.8867    0.4176 H         1 <0>         0.4324
     39 H17        -0.1658    4.2331    0.9370 H         1 <0>         0.1429
     40 H18         0.1690    4.4171   -0.7986 H         1 <0>         0.1527
     41 H19        -1.0191    1.8982    0.1309 H         1 <0>         0.1208
     42 H20        -0.3649    2.1408   -1.5066 H         1 <0>         0.1012
     43 H21         0.1564    0.7412   -0.5383 H         1 <0>         0.0871
     44 H22         2.4096    4.7678   -0.2462 H         1 <0>         0.4232
@<TRIPOS>BOND
     1    1    2 1
     2    1   24 1
     3    1   25 1
     4    1   26 1
     5    2    7 ar
     6    2    3 ar
     7    3    4 ar
     8    3   27 1
     9    4    5 ar
    10    5    6 ar
    11    5   28 1
    12    6   11 ar
    13    6    7 ar
    14    7    8 ar
    15    8    9 ar
    16    8   12 1
    17    9   10 ar
    18    9   29 1
    19   10   11 ar
    20   10   30 1
    21   11   31 1
    22   12   13 2
    23   12   14 2
    24   12   15 1
    25   15   21 1
    26   15   16 1
    27   16   17 1
    28   16   32 1
    29   16   33 1
    30   17   18 1
    31   17   34 1
    32   17   35 1
    33   18   19 1
    34   18   36 1
    35   18   37 1
    36   19   20 1
    37   19   38 1
    38   19   44 1
    39   20   21 1
    40   20   39 1
    41   20   40 1
    42   21   22 1
    43   21   23 1
    44   23   41 1
    45   23   42 1
    46   23   43 1
@<TRIPOS>MOLECULE
ZINC00022708
   44    46     0     0     0
SMALL
USER_CHARGES

@<TRIPOS>ATOM
      1 C1         -1.8695    0.6016    3.8376 C.3       1 <0>        -0.2065
      2 C2         -2.5134    1.8724    4.3291 C.ar      1 <0>        -0.1497
      3 C3         -3.7024    1.8372    4.9926 C.ar      1 <0>         0.1144
      4 N1         -4.2903    2.9401    5.4349 N.ar      1 <0>        -0.4796
      5 C4         -3.7750    4.1359    5.2681 C.ar      1 <0>         0.1604
      6 C5         -2.5508    4.2825    4.5967 C.ar      1 <0>        -0.1297
      7 C6         -1.8959    3.1181    4.1168 C.ar      1 <0>         0.0562
      8 C7         -0.6693    3.2405    3.4480 C.ar      1 <0>        -0.6734
      9 C8         -0.1213    4.4752    3.2733 C.ar      1 <0>         0.0119
     10 C9         -0.7608    5.6187    3.7488 C.ar      1 <0>        -0.1572
     11 C10        -1.9581    5.5386    4.3926 C.ar      1 <0>        -0.0072
     12 S1          0.1567    1.8082    2.8391 S.o2      1 <0>         2.6982
     13 O1          0.3167    0.9306    3.9452 O.2       1 <0>        -0.9377
     14 O2         -0.5220    1.4218    1.6520 O.2       1 <0>        -0.9399
     15 N2          1.6781    2.2771    2.3831 N.pl3     1 <0>        -1.0113
     16 C11         2.7670    2.2278    3.3796 C.3       1 <0>         0.0924
     17 C12         4.0647    1.6836    2.7552 C.3       1 <0>        -0.1520
     18 C13         3.7325    0.5460    1.8152 C.3       1 <0>        -0.0116
     19 N3          3.5830    1.0690    0.4590 N.4       1 <0>        -0.4869
     20 C14         2.2832    1.5159    0.1330 C.3       1 <0>        -0.0496
     21 C15         1.8943    2.7153    1.0196 C.3       1 <0>         0.1376
     22 H1          2.6952    3.4545    0.9993 H         1 <0>         0.1130
     23 C16         0.6094    3.3449    0.4779 C.3       1 <0>        -0.2483
     24 H2         -1.0988    0.2888    4.5421 H         1 <0>         0.1502
     25 H3         -2.6248   -0.1799    3.7548 H         1 <0>         0.0905
     26 H4         -1.4192    0.7767    2.8606 H         1 <0>         0.0670
     27 H5         -4.1800    0.8836    5.1630 H         1 <0>         0.1649
     28 H6         -4.2920    5.0053    5.6465 H         1 <0>         0.1747
     29 H7          0.8234    4.5696    2.7586 H         1 <0>         0.1384
     30 H8         -0.3033    6.5852    3.5966 H         1 <0>         0.1430
     31 H9         -2.4416    6.4337    4.7552 H         1 <0>         0.1500
     32 H10         2.9478    3.2324    3.7618 H         1 <0>         0.0927
     33 H11         2.4681    1.5807    4.2043 H         1 <0>         0.1186
     34 H12         4.5629    2.4792    2.2012 H         1 <0>         0.0941
     35 H13         4.7240    1.3222    3.5444 H         1 <0>         0.1292
     36 H14         4.5369   -0.1892    1.8351 H         1 <0>         0.1447
     37 H15         2.8006    0.0753    2.1285 H         1 <0>         0.1290
     38 H16         4.2232    1.8402    0.3429 H         1 <0>         0.4238
     39 H17         2.2568    1.8160   -0.9145 H         1 <0>         0.1549
     40 H18         1.5723    0.7051    0.2919 H         1 <0>         0.1387
     41 H19         0.2531    4.1019    1.1765 H         1 <0>         0.0845
     42 H20         0.8109    3.8081   -0.4880 H         1 <0>         0.0997
     43 H21        -0.1513    2.5733    0.3592 H         1 <0>         0.1355
     44 H22         3.8430    0.3436   -0.1924 H         1 <0>         0.4325
@<TRIPOS>BOND
     1    1    2 1
     2    1   24 1
     3    1   25 1
     4    1   26 1
     5    2    7 ar
     6    2    3 ar
     7    3    4 ar
     8    3   27 1
     9    4    5 ar
    10    5    6 ar
    11    5   28 1
    12    6   11 ar
    13    6    7 ar
    14    7    8 ar
    15    8    9 ar
    16    8   12 1
    17    9   10 ar
    18    9   29 1
    19   10   11 ar
    20   10   30 1
    21   11   31 1
    22   12   13 2
    23   12   14 2
    24   12   15 1
    25   15   21 1
    26   15   16 1
    27   16   17 1
    28   16   32 1
    29   16   33 1
    30   17   18 1
    31   17   34 1
    32   17   35 1
    33   18   19 1
    34   18   36 1
    35   18   37 1
    36   19   20 1
    37   19   38 1
    38   19   44 1
    39   20   21 1
    40   20   39 1
    41   20   40 1
    42   21   22 1
    43   21   23 1
    44   23   41 1
    45   23   42 1
    46   23   43 1
@<TRIPOS>MOLECULE
ZINC00006989
   40    41     0     0     0
SMALL
USER_CHARGES

@<TRIPOS>ATOM
      1 C1         -0.0212    1.5274    0.0295 C.3       1 <0>        -0.1868
      2 C2         -0.0012   -0.0024    0.0209 C.3       1 <0>         0.0329
      3 H1         -1.0239   -0.3792    0.0336 H         1 <0>         0.1427
      4 C3          0.7447   -0.5096    1.2567 C.3       1 <0>        -0.1130
      5 C4          2.1802    0.0193    1.2388 C.3       1 <0>        -0.1460
      6 C5          2.9261   -0.4879    2.4746 C.3       1 <0>        -0.0980
      7 C6          2.9462   -2.0177    2.4660 C.3       1 <0>        -0.1139
      8 C7          1.5106   -2.5467    2.4839 C.3       1 <0>        -0.1118
      9 C8          0.7648   -2.0395    1.2481 C.3       1 <0>        -0.1341
     10 C9          3.6452   -2.5039    1.2227 C.2       1 <0>         0.5220
     11 O1          4.0842   -1.7055    0.4223 O.2       1 <0>        -0.5211
     12 N1          3.7826   -3.8261    1.0002 N.am      1 <0>        -0.6683
     13 C10         4.3419   -4.2780   -0.1958 C.ar      1 <0>         0.1766
     14 C11         5.3665   -3.5677   -0.8193 C.ar      1 <0>        -0.1772
     15 C12         5.8925   -4.0480   -2.0007 C.ar      1 <0>         0.1192
     16 N2          5.4378   -5.1635   -2.5396 N.ar      1 <0>        -0.4895
     17 C13         4.4694   -5.8640   -1.9800 C.ar      1 <0>         0.1213
     18 C14         3.8943   -5.4544   -0.7948 C.ar      1 <0>        -0.2009
     19 N3          0.6803   -0.4764   -1.1911 N.4       1 <0>        -0.6406
     20 H2          1.0015    1.9043    0.0167 H         1 <0>         0.0857
     21 H3         -0.5526    1.8888   -0.8510 H         1 <0>         0.0831
     22 H4         -0.5268    1.8791    0.9288 H         1 <0>         0.1077
     23 H5          0.2391   -0.1579    2.1560 H         1 <0>         0.1206
     24 H6          2.6859   -0.3323    0.3395 H         1 <0>         0.0852
     25 H7          2.1660    1.1092    1.2449 H         1 <0>         0.0829
     26 H8          3.9488   -0.1110    2.4619 H         1 <0>         0.0827
     27 H9          2.4205   -0.1362    3.3740 H         1 <0>         0.0826
     28 H10         3.4775   -2.3791    3.3465 H         1 <0>         0.1134
     29 H11         1.5249   -3.6366    2.4778 H         1 <0>         0.0792
     30 H12         1.0050   -2.1950    3.3833 H         1 <0>         0.0918
     31 H13        -0.2579   -2.4163    1.2609 H         1 <0>         0.0866
     32 H14         1.2704   -2.3912    0.3488 H         1 <0>         0.0540
     33 H15         3.4928   -4.4636    1.6714 H         1 <0>         0.4174
     34 H16         5.7430   -2.6539   -0.3838 H         1 <0>         0.1497
     35 H17         6.6863   -3.5040   -2.4909 H         1 <0>         0.1619
     36 H18         4.1259   -6.7718   -2.4535 H         1 <0>         0.1630
     37 H19         3.1054   -6.0348   -0.3398 H         1 <0>         0.1388
     38 H20         1.6270   -0.1275   -1.2030 H         1 <0>         0.4337
     39 H21         0.6935   -1.4853   -1.1968 H         1 <0>         0.4310
     40 H22         0.1884   -0.1419   -2.0062 H         1 <0>         0.4354
@<TRIPOS>BOND
     1    1    2 1
     2    1   20 1
     3    1   21 1
     4    1   22 1
     5    2    3 1
     6    2    4 1
     7    2   19 1
     8    4    9 1
     9    4    5 1
    10    4   23 1
    11    5    6 1
    12    5   24 1
    13    5   25 1
    14    6    7 1
    15    6   26 1
    16    6   27 1
    17    7    8 1
    18    7   10 1
    19    7   28 1
    20    8    9 1
    21    8   29 1
    22    8   30 1
    23    9   31 1
    24    9   32 1
    25   10   11 2
    26   10   12 am
    27   12   13 1
    28   12   33 1
    29   13   18 ar
    30   13   14 ar
    31   14   15 ar
    32   14   34 1
    33   15   16 ar
    34   15   35 1
    35   16   17 ar
    36   17   18 ar
    37   17   36 1
    38   18   37 1
    39   19   38 1
    40   19   39 1
    41   19   40 1
@<TRIPOS>MOLECULE
ZINC13815406
   39    41     0     0     0
SMALL
USER_CHARGES

@<TRIPOS>ATOM
      1 C1          1.9341    1.3849   -0.9653 C.ar      1 <0>        -0.1599
      2 C2          1.2879    2.1037    0.0165 C.ar      1 <0>         0.0165
      3 C3          0.5909    1.4246    1.0153 C.ar      1 <0>        -0.1690
      4 C4          0.5567    0.0108    1.0069 C.ar      1 <0>         0.1107
      5 C5         -0.1831   -0.6726    2.0694 C.2       1 <0>        -0.2571
      6 C6         -0.8030    0.0533    3.0138 C.2       1 <0>         0.1674
      7 N1         -0.7725    1.4183    3.0255 N.am      1 <0>        -0.6308
      8 H1         -1.2384    1.8911    3.7328 H         1 <0>         0.4249
      9 C7         -0.1169    2.1315    2.0883 C.2       1 <0>         0.5480
     10 O1         -0.1124    3.3486    2.1317 O.2       1 <0>        -0.5064
     11 C8          1.2204   -0.6905   -0.0001 C.ar      1 <0>        -0.6929
     12 C9          1.8975   -0.0034   -0.9691 C.ar      1 <0>         0.0083
     13 S1          1.1868   -2.4520   -0.0228 S.o2      1 <0>         2.6928
     14 O2          2.1635   -2.8890    0.9122 O.2       1 <0>        -0.9379
     15 O3         -0.1791   -2.8333    0.0680 O.2       1 <0>        -0.9327
     16 N2          1.7139   -2.9326   -1.5173 N.pl3     1 <0>        -1.0126
     17 C10         0.7944   -3.0347   -2.6190 C.3       1 <0>         0.0910
     18 C11         0.1279   -4.4147   -2.8245 C.3       1 <0>        -0.1665
     19 C12         1.1664   -5.5429   -2.6199 C.3       1 <0>        -0.0238
     20 N3          2.4374   -5.1448   -3.1775 N.4       1 <0>        -0.4916
     21 C13         3.2204   -4.7109   -2.0246 C.3       1 <0>        -0.0359
     22 C14         3.1611   -3.2631   -1.7465 C.3       1 <0>         0.0902
     23 H2          2.4713    1.9070   -1.7432 H         1 <0>         0.1446
     24 H3          1.3213    3.1832    0.0129 H         1 <0>         0.1517
     25 H4         -0.2301   -1.7513    2.0933 H         1 <0>         0.1505
     26 H5         -1.3461   -0.4615    3.7925 H         1 <0>         0.1761
     27 H6          2.4109   -0.5476   -1.7480 H         1 <0>         0.1348
     28 H7          0.0066   -2.2956   -2.4733 H         1 <0>         0.1075
     29 H8          1.3295   -2.7766   -3.5329 H         1 <0>         0.0859
     30 H9         -0.6829   -4.5351   -2.1060 H         1 <0>         0.1214
     31 H10        -0.2759   -4.4742   -3.8353 H         1 <0>         0.1115
     32 H11         1.2836   -5.7385   -1.5540 H         1 <0>         0.1321
     33 H12         0.8201   -6.4487   -3.1176 H         1 <0>         0.1367
     34 H13         2.8834   -5.9275   -3.6319 H         1 <0>         0.4397
     35 H14         2.8644   -5.2472   -1.1450 H         1 <0>         0.1397
     36 H15         4.2618   -4.9858   -2.1925 H         1 <0>         0.1451
     37 H16         3.5412   -2.7015   -2.5999 H         1 <0>         0.1118
     38 H17         3.7429   -3.0280   -0.8552 H         1 <0>         0.1484
     39 H18         2.3140   -4.3823   -3.8267 H         1 <0>         0.4298
@<TRIPOS>BOND
     1    1   12 ar
     2    1    2 ar
     3    1   23 1
     4    2    3 ar
     5    2   24 1
     6    3    9 1
     7    3    4 ar
     8    4    5 1
     9    4   11 ar
    10    5    6 2
    11    5   25 1
    12    6    7 1
    13    6   26 1
    14    7    8 1
    15    7    9 am
    16    9   10 2
    17   11   12 ar
    18   11   13 1
    19   12   27 1
    20   13   14 2
    21   13   15 2
    22   13   16 1
    23   16   22 1
    24   16   17 1
    25   17   18 1
    26   17   28 1
    27   17   29 1
    28   18   19 1
    29   18   30 1
    30   18   31 1
    31   19   20 1
    32   19   32 1
    33   19   33 1
    34   20   21 1
    35   20   34 1
    36   20   39 1
    37   21   22 1
    38   21   35 1
    39   21   36 1
    40   22   37 1
    41   22   38 1
@<TRIPOS>MOLECULE
ZINC03814434
   62    69     0     0     0
SMALL
USER_CHARGES

@<TRIPOS>ATOM
      1 C1         -0.1295    1.5952   -0.2973 C.3       1 <0>        -0.1687
      2 C2         -0.0862    0.0696   -0.1900 C.3       1 <0>         0.3342
      3 C3          0.5692   -0.4501   -1.4637 C.3       1 <0>         0.0405
      4 H1          1.4796    0.1159   -1.6612 H         1 <0>         0.1372
      5 C4          0.9167   -1.9328   -1.2889 C.3       1 <0>        -0.0061
      6 H2          1.3963   -2.3075   -2.1932 H         1 <0>         0.1555
      7 C5          1.8785   -2.0596   -0.1021 C.3       1 <0>        -0.1827
      8 C6          1.2061   -1.5198    1.1541 C.3       1 <0>         0.2999
      9 H3          1.9797   -1.4243    1.9161 H         1 <0>         0.1550
     10 O1          0.6555   -0.2442    0.9666 O.3       1 <0>        -0.3234
     11 N1          0.2189   -2.4746    1.6600 N.pl3     1 <0>        -0.5366
     12 C7          0.4705   -3.5508    2.4739 C.ar      1 <0>         0.1469
     13 C8          1.6649   -4.0152    3.0240 C.ar      1 <0>        -0.1522
     14 C9          1.5948   -5.1456    3.8201 C.ar      1 <0>        -0.0582
     15 C10         0.4006   -5.7997    4.0696 C.ar      1 <0>        -0.1457
     16 C11        -0.7984   -5.3597    3.5358 C.ar      1 <0>        -0.0280
     17 C12        -0.7487   -4.2198    2.7307 C.ar      1 <0>        -0.1131
     18 C13        -1.7893   -3.4830    2.0197 C.ar      1 <0>         0.0276
     19 C14        -1.1442   -2.4197    1.3841 C.ar      1 <0>         0.0376
     20 C15        -1.8806   -1.5095    0.6175 C.ar      1 <0>         0.0894
     21 N2         -1.4718   -0.3951   -0.1095 N.pl3     1 <0>        -0.5183
     22 C16        -2.5611    0.1913   -0.7090 C.ar      1 <0>         0.1618
     23 C17        -2.6521    1.3277   -1.5118 C.ar      1 <0>        -0.1305
     24 C18        -3.9109    1.6745   -1.9733 C.ar      1 <0>        -0.0737
     25 C19        -5.0393    0.9368   -1.6616 C.ar      1 <0>        -0.1358
     26 C20        -4.9745   -0.1955   -0.8662 C.ar      1 <0>        -0.0503
     27 C21        -3.7147   -0.5596   -0.3919 C.ar      1 <0>        -0.1042
     28 C22        -3.2693   -1.6660    0.4845 C.ar      1 <0>        -0.0360
     29 C23        -3.9084   -2.7313    1.1102 C.ar      1 <0>        -0.0288
     30 C24        -3.1873   -3.6421    1.8754 C.ar      1 <0>        -0.1255
     31 C25        -4.1221   -4.6480    2.4030 C.2       1 <0>         0.5632
     32 O2         -3.8062   -5.5851    3.1110 O.2       1 <0>        -0.5106
     33 N3         -5.3744   -4.3851    1.9926 N.am      1 <0>        -0.7162
     34 C26        -5.3495   -3.1771    1.1601 C.3       1 <0>         0.1358
     35 N4         -0.3067   -2.7008   -1.0216 N.4       1 <0>        -0.5252
     36 C27         0.0145   -4.1336   -0.9773 C.3       1 <0>        -0.0497
     37 O3         -0.3340   -0.2979   -2.5607 O.3       1 <0>        -0.3614
     38 C28         0.3101   -0.0933   -3.8198 C.3       1 <0>         0.0162
     39 H4          0.8261    2.0094    0.0240 H         1 <0>         0.0984
     40 H5         -0.3202    1.8814   -1.3317 H         1 <0>         0.1036
     41 H6         -0.9255    1.9818    0.3392 H         1 <0>         0.0921
     42 H7          2.1370   -3.1081    0.0458 H         1 <0>         0.1233
     43 H8          2.7835   -1.4869   -0.3048 H         1 <0>         0.1455
     44 H9          2.6036   -3.5149    2.8368 H         1 <0>         0.1365
     45 H10         2.5026   -5.5304    4.2610 H         1 <0>         0.1359
     46 H11         0.4045   -6.6780    4.6980 H         1 <0>         0.1352
     47 H12        -1.7278   -5.8736    3.7323 H         1 <0>         0.1600
     48 H13        -1.7792    1.9122   -1.7624 H         1 <0>         0.1440
     49 H14        -4.0153    2.5500   -2.5970 H         1 <0>         0.1336
     50 H15        -5.9967    1.2527   -2.0488 H         1 <0>         0.1332
     51 H16        -5.8575   -0.7687   -0.6249 H         1 <0>         0.1415
     52 H17        -6.1628   -4.9065    2.2103 H         1 <0>         0.4348
     53 H18        -5.9671   -2.3994    1.6094 H         1 <0>         0.1115
     54 H19        -5.7060   -3.4063    0.1559 H         1 <0>         0.1103
     55 H20        -0.6958   -2.4158   -0.1353 H         1 <0>         0.4186
     56 H21         0.4349   -4.4415   -1.9347 H         1 <0>         0.1256
     57 H22         0.7403   -4.3189   -0.1854 H         1 <0>         0.1191
     58 H23        -0.8932   -4.7035   -0.7789 H         1 <0>         0.1256
     59 H24         0.9168    0.8112   -3.7748 H         1 <0>         0.0633
     60 H25         0.9482   -0.9479   -4.0446 H         1 <0>         0.0514
     61 H26        -0.4433    0.0130   -4.6003 H         1 <0>         0.1100
     62 H27        -0.9785   -2.5293   -1.7546 H         1 <0>         0.4274
@<TRIPOS>BOND
     1    1    2 1
     2    1   39 1
     3    1   40 1
     4    1   41 1
     5    2   10 1
     6    2   21 1
     7    2    3 1
     8    3    4 1
     9    3    5 1
    10    3   37 1
    11    5    6 1
    12    5    7 1
    13    5   35 1
    14    7    8 1
    15    7   42 1
    16    7   43 1
    17    8    9 1
    18    8   10 1
    19    8   11 1
    20   11   19 1
    21   11   12 1
    22   12   17 ar
    23   12   13 ar
    24   13   14 ar
    25   13   44 1
    26   14   15 ar
    27   14   45 1
    28   15   16 ar
    29   15   46 1
    30   16   17 ar
    31   16   47 1
    32   17   18 1
    33   18   30 ar
    34   18   19 ar
    35   19   20 ar
    36   20   28 ar
    37   20   21 1
    38   21   22 1
    39   22   27 ar
    40   22   23 ar
    41   23   24 ar
    42   23   48 1
    43   24   25 ar
    44   24   49 1
    45   25   26 ar
    46   25   50 1
    47   26   27 ar
    48   26   51 1
    49   27   28 1
    50   28   29 ar
    51   29   34 1
    52   29   30 ar
    53   30   31 1
    54   31   32 2
    55   31   33 am
    56   33   34 1
    57   33   52 1
    58   34   53 1
    59   34   54 1
    60   35   36 1
    61   35   55 1
    62   35   62 1
    63   36   56 1
    64   36   57 1
    65   36   58 1
    66   37   38 1
    67   38   59 1
    68   38   60 1
    69   38   61 1
@<TRIPOS>MOLECULE
ZINC34603838
   35    37     0     0     0
SMALL
USER_CHARGES

@<TRIPOS>ATOM
      1 C1          1.1990   -0.6794   -0.2379 C.ar      1 <0>        -0.1633
      2 C2          2.3670   -0.0090   -0.4640 C.ar      1 <0>        -0.0005
      3 C3          2.3435    1.3699   -0.6767 C.ar      1 <0>        -0.1854
      4 C4          1.1101    2.0641   -0.6567 C.ar      1 <0>         0.0514
      5 C5          1.1223    3.5108   -0.8832 C.2       1 <0>        -0.2265
      6 C6          2.2912    4.1339   -1.1016 C.2       1 <0>         0.1375
      7 N1          3.4830    3.4672   -1.1221 N.am      1 <0>        -0.6344
      8 H1          4.2971    3.9688   -1.2850 H         1 <0>         0.4200
      9 C7          3.5676    2.1370   -0.9233 C.2       1 <0>         0.5472
     10 O1          4.6498    1.5784   -0.9483 O.2       1 <0>        -0.5167
     11 C8         -0.0718    1.3638   -0.4245 C.ar      1 <0>        -0.2289
     12 C9         -0.0205   -0.0033   -0.2165 C.ar      1 <0>         0.1599
     13 O2         -1.1679   -0.6926    0.0100 O.3       1 <0>        -0.2947
     14 C10        -2.3692    0.0708    0.1370 C.3       1 <0>         0.0722
     15 C11        -2.9506    0.3458   -1.2528 C.3       1 <0>        -0.1813
     16 C12        -4.2771    1.0944   -1.1058 C.3       1 <0>        -0.0024
     17 N2         -5.2203    0.2784   -0.3319 N.4       1 <0>        -0.5078
     18 C13        -4.7021    0.0709    1.0256 C.3       1 <0>        -0.0013
     19 C14        -3.3920   -0.7170    0.9607 C.3       1 <0>        -0.1470
     20 H2          1.2194   -1.7473   -0.0780 H         1 <0>         0.1422
     21 H3          3.3051   -0.5438   -0.4778 H         1 <0>         0.1497
     22 H4          0.1992    4.0713   -0.8749 H         1 <0>         0.1472
     23 H5          2.2890    5.2011   -1.2675 H         1 <0>         0.1650
     24 H6         -1.0187    1.8829   -0.4066 H         1 <0>         0.1343
     25 H7         -2.1498    1.0153    0.6350 H         1 <0>         0.0940
     26 H8         -2.2510    0.9541   -1.8262 H         1 <0>         0.1203
     27 H9         -3.1209   -0.5987   -1.7695 H         1 <0>         0.1035
     28 H10        -4.1055    2.0387   -0.5893 H         1 <0>         0.1336
     29 H11        -4.6936    1.2919   -2.0935 H         1 <0>         0.1409
     30 H12        -6.1104    0.7510   -0.2825 H         1 <0>         0.4356
     31 H13        -4.5215    1.0371    1.4967 H         1 <0>         0.1345
     32 H14        -5.4325   -0.4871    1.6115 H         1 <0>         0.1437
     33 H15        -3.5715   -1.6836    0.4899 H         1 <0>         0.1028
     34 H16        -3.0079   -0.8684    1.9695 H         1 <0>         0.1236
     35 H17        -5.3410   -0.6151   -0.7850 H         1 <0>         0.4311
@<TRIPOS>BOND
     1    1   12 ar
     2    1    2 ar
     3    1   20 1
     4    2    3 ar
     5    2   21 1
     6    3    9 1
     7    3    4 ar
     8    4    5 1
     9    4   11 ar
    10    5    6 2
    11    5   22 1
    12    6    7 1
    13    6   23 1
    14    7    8 1
    15    7    9 am
    16    9   10 2
    17   11   12 ar
    18   11   24 1
    19   12   13 1
    20   13   14 1
    21   14   19 1
    22   14   15 1
    23   14   25 1
    24   15   16 1
    25   15   26 1
    26   15   27 1
    27   16   17 1
    28   16   28 1
    29   16   29 1
    30   17   18 1
    31   17   30 1
    32   17   35 1
    33   18   19 1
    34   18   31 1
    35   18   32 1
    36   19   33 1
    37   19   34 1
@<TRIPOS>MOLECULE
ZINC68203217
   69    73     0     0     0
SMALL
USER_CHARGES

@<TRIPOS>ATOM
      1 C1         -0.1628    1.3084   -0.2207 C.3       1 <0>        -0.1696
      2 C2         -0.1088   -0.2035    0.0075 C.3       1 <0>         0.1443
      3 H1          0.3296   -0.6892   -0.8643 H         1 <0>         0.0945
      4 C3         -1.5258   -0.7394    0.2355 C.3       1 <0>        -0.1287
      5 C4         -2.0843   -0.1563    1.5355 C.3       1 <0>        -0.1149
      6 C5         -1.2075   -0.5938    2.7110 C.3       1 <0>        -0.1220
      7 H2         -1.1811   -1.6824    2.7597 H         1 <0>         0.1011
      8 C6          0.2130   -0.0563    2.5111 C.3       1 <0>         0.1413
      9 N1          0.7063   -0.4937    1.1949 N.pl3     1 <0>        -0.5857
     10 C7          1.9116   -1.1672    1.0766 C.ar      1 <0>         0.4905
     11 C8          2.4755   -1.3910   -0.1789 C.ar      1 <0>        -0.3165
     12 C9          3.6884   -2.0726   -0.2479 C.ar      1 <0>         0.2466
     13 N2          4.2649   -2.4851    0.8819 N.ar      1 <0>        -0.5956
     14 C10         3.6986   -2.2537    2.0552 C.ar      1 <0>         0.6133
     15 N3          2.5485   -1.6039    2.1591 N.ar      1 <0>        -0.6138
     16 N4          4.3272   -2.6979    3.2055 N.pl3     1 <0>        -0.6996
     17 C11         5.6022   -3.4135    3.1137 C.3       1 <0>         0.1064
     18 C12         4.3291   -2.3362   -1.5585 C.ar      1 <0>         0.0874
     19 C13         3.7024   -1.8855   -2.7352 C.ar      1 <0>        -0.1331
     20 C14         4.2476   -2.1010   -3.9568 C.ar      1 <0>         0.0022
     21 C15         5.4708   -2.7913   -4.0674 C.ar      1 <0>        -0.2331
     22 C16         6.1370   -3.2681   -2.8453 C.ar      1 <0>         0.2310
     23 C17         5.5290   -3.0126   -1.5995 C.ar      1 <0>        -0.1179
     24 N5          7.2483   -3.8737   -3.2258 N.pl3     1 <0>        -0.4232
     25 H3          8.0726   -4.1953   -5.1424 H         1 <0>         0.4692
     26 N6          7.3460   -3.8202   -4.6205 N.pl3     1 <0>        -0.4346
     27 C18         6.2845   -3.1732   -5.1303 C.2       1 <0>         0.5274
     28 N7          6.0427   -2.9300   -6.4737 N.pl3     1 <0>        -0.7843
     29 C19        -1.7771   -0.0466    3.9944 C.2       1 <0>         0.5221
     30 O1         -1.1127    0.6978    4.6839 O.2       1 <0>        -0.5333
     31 N8         -3.0248   -0.3843    4.3760 N.am      1 <0>        -0.7251
     32 C20        -3.5785    0.1477    5.6236 C.3       1 <0>         0.1446
     33 C21        -3.1396   -0.7351    6.7937 C.3       1 <0>        -0.1282
     34 C22        -3.7179   -0.1794    8.0967 C.3       1 <0>        -0.1182
     35 C23        -5.2455   -0.1670    8.0122 C.3       1 <0>        -0.1233
     36 C24        -5.6844    0.7157    6.8422 C.3       1 <0>        -0.1170
     37 C25        -5.1062    0.1601    5.5392 C.3       1 <0>        -0.1259
     38 H4          0.8466    1.6884   -0.3776 H         1 <0>         0.0621
     39 H5         -0.7721    1.5218   -1.0989 H         1 <0>         0.0739
     40 H6         -0.6015    1.7921    0.6521 H         1 <0>         0.0662
     41 H7         -2.1639   -0.4467   -0.5983 H         1 <0>         0.0866
     42 H8         -1.4963   -1.8266    0.3075 H         1 <0>         0.0719
     43 H9         -2.0904    0.9319    1.4723 H         1 <0>         0.0768
     44 H10        -3.1017   -0.5167    1.6875 H         1 <0>         0.0739
     45 H11         0.2008    1.0329    2.5527 H         1 <0>         0.0784
     46 H12         0.8648   -0.4466    3.2927 H         1 <0>         0.1050
     47 H13         1.9838   -1.0446   -1.0759 H         1 <0>         0.1457
     48 H14         3.9236   -2.5353    4.0724 H         1 <0>         0.4187
     49 H15         5.9411   -3.6820    4.1144 H         1 <0>         0.0785
     50 H16         5.4693   -4.3181    2.5203 H         1 <0>         0.0585
     51 H17         6.3450   -2.7730    2.6383 H         1 <0>         0.0588
     52 H18         2.7642   -1.3555   -2.6629 H         1 <0>         0.1525
     53 H19         3.7454   -1.7446   -4.8440 H         1 <0>         0.1517
     54 H20         5.9975   -3.3471   -0.6857 H         1 <0>         0.1668
     55 H21         5.2431   -2.4519   -6.7438 H         1 <0>         0.4458
     56 H22         6.6732   -3.2379   -7.1434 H         1 <0>         0.4282
     57 H23        -3.5562   -0.9797    3.8245 H         1 <0>         0.3992
     58 H24        -3.2149    1.1635    5.7785 H         1 <0>         0.0891
     59 H25        -3.5032   -1.7509    6.6388 H         1 <0>         0.0628
     60 H26        -2.0513   -0.7439    6.8538 H         1 <0>         0.0663
     61 H27        -3.4052   -0.8083    8.9302 H         1 <0>         0.0660
     62 H28        -3.3543    0.8364    8.2515 H         1 <0>         0.0650
     63 H29        -5.6091   -1.1829    7.8574 H         1 <0>         0.0628
     64 H30        -5.6575    0.2288    8.9405 H         1 <0>         0.0659
     65 H31        -6.7727    0.7245    6.7820 H         1 <0>         0.0689
     66 H32        -5.3208    1.7315    6.9970 H         1 <0>         0.0659
     67 H33        -5.4189    0.7889    4.7056 H         1 <0>         0.0685
     68 H34        -5.4697   -0.8558    5.3843 H         1 <0>         0.0678
     69 H35         7.8936   -4.2890   -2.6326 H         1 <0>         0.4736
@<TRIPOS>BOND
     1    1    2 1
     2    1   38 1
     3    1   39 1
     4    1   40 1
     5    2    3 1
     6    2    9 1
     7    2    4 1
     8    4    5 1
     9    4   41 1
    10    4   42 1
    11    5    6 1
    12    5   43 1
    13    5   44 1
    14    6    7 1
    15    6    8 1
    16    6   29 1
    17    8    9 1
    18    8   45 1
    19    8   46 1
    20    9   10 1
    21   10   15 ar
    22   10   11 ar
    23   11   12 ar
    24   11   47 1
    25   12   13 ar
    26   12   18 1
    27   13   14 ar
    28   14   15 ar
    29   14   16 1
    30   16   17 1
    31   16   48 1
    32   17   49 1
    33   17   50 1
    34   17   51 1
    35   18   23 ar
    36   18   19 ar
    37   19   20 ar
    38   19   52 1
    39   20   21 ar
    40   20   53 1
    41   21   22 ar
    42   21   27 2
    43   22   23 ar
    44   22   24 2
    45   23   54 1
    46   24   26 1
    47   24   69 1
    48   25   26 1
    49   26   27 1
    50   27   28 1
    51   28   55 1
    52   28   56 1
    53   29   30 2
    54   29   31 am
    55   31   32 1
    56   31   57 1
    57   32   37 1
    58   32   33 1
    59   32   58 1
    60   33   34 1
    61   33   59 1
    62   33   60 1
    63   34   35 1
    64   34   61 1
    65   34   62 1
    66   35   36 1
    67   35   63 1
    68   35   64 1
    69   36   37 1
    70   36   65 1
    71   36   66 1
    72   37   67 1
    73   37   68 1
@<TRIPOS>MOLECULE
ZINC68203217
   68    72     0     0     0
SMALL
USER_CHARGES

@<TRIPOS>ATOM
      1 C1         -0.1628    1.3084   -0.2207 C.3       1 <0>        -0.1674
      2 C2         -0.1088   -0.2035    0.0075 C.3       1 <0>         0.1454
      3 H1          0.3296   -0.6892   -0.8643 H         1 <0>         0.0967
      4 C3         -1.5258   -0.7394    0.2355 C.3       1 <0>        -0.1282
      5 C4         -2.0843   -0.1563    1.5355 C.3       1 <0>        -0.1121
      6 C5         -1.2075   -0.5938    2.7110 C.3       1 <0>        -0.1224
      7 H2         -1.1811   -1.6824    2.7597 H         1 <0>         0.1007
      8 C6          0.2130   -0.0563    2.5111 C.3       1 <0>         0.1452
      9 N1          0.7063   -0.4937    1.1949 N.pl3     1 <0>        -0.5930
     10 C7          1.9116   -1.1672    1.0766 C.ar      1 <0>         0.4840
     11 C8          2.4755   -1.3910   -0.1789 C.ar      1 <0>        -0.3324
     12 C9          3.6884   -2.0726   -0.2479 C.ar      1 <0>         0.2823
     13 N2          4.2649   -2.4851    0.8819 N.ar      1 <0>        -0.5957
     14 C10         3.6986   -2.2537    2.0552 C.ar      1 <0>         0.6062
     15 N3          2.5485   -1.6039    2.1591 N.ar      1 <0>        -0.6270
     16 N4          4.3272   -2.6979    3.2055 N.pl3     1 <0>        -0.7050
     17 C11         5.6022   -3.4135    3.1137 C.3       1 <0>         0.1083
     18 C12         4.3291   -2.3362   -1.5585 C.ar      1 <0>        -0.0032
     19 C13         3.7024   -1.8855   -2.7352 C.ar      1 <0>        -0.1572
     20 C14         4.2476   -2.1010   -3.9568 C.ar      1 <0>        -0.0236
     21 C15         5.4708   -2.7913   -4.0674 C.ar      1 <0>        -0.2598
     22 C16         6.1370   -3.2681   -2.8453 C.ar      1 <0>         0.1316
     23 C17         5.5290   -3.0126   -1.5995 C.ar      1 <0>        -0.0600
     24 N5          7.2483   -3.8737   -3.2258 N.2       1 <0>        -0.3135
     25 N6          7.3460   -3.8202   -4.6205 N.pl3     1 <0>        -0.4606
     26 C18         6.2845   -3.1732   -5.1303 C.2       1 <0>         0.3953
     27 N7          6.0427   -2.9300   -6.4737 N.pl3     1 <0>        -0.8409
     28 C19        -1.7771   -0.0466    3.9944 C.2       1 <0>         0.5234
     29 O1         -1.1127    0.6978    4.6839 O.2       1 <0>        -0.5336
     30 N8         -3.0248   -0.3843    4.3760 N.am      1 <0>        -0.7272
     31 C20        -3.5785    0.1477    5.6236 C.3       1 <0>         0.1450
     32 C21        -3.1396   -0.7351    6.7937 C.3       1 <0>        -0.1291
     33 C22        -3.7179   -0.1794    8.0967 C.3       1 <0>        -0.1178
     34 C23        -5.2455   -0.1670    8.0122 C.3       1 <0>        -0.1226
     35 C24        -5.6844    0.7157    6.8422 C.3       1 <0>        -0.1164
     36 C25        -5.1062    0.1601    5.5392 C.3       1 <0>        -0.1260
     37 H3          0.8466    1.6884   -0.3776 H         1 <0>         0.0624
     38 H4         -0.7721    1.5218   -1.0989 H         1 <0>         0.0703
     39 H5         -0.6015    1.7921    0.6521 H         1 <0>         0.0625
     40 H6         -2.1639   -0.4467   -0.5983 H         1 <0>         0.0834
     41 H7         -1.4963   -1.8266    0.3075 H         1 <0>         0.0712
     42 H8         -2.0904    0.9319    1.4723 H         1 <0>         0.0748
     43 H9         -3.1017   -0.5167    1.6875 H         1 <0>         0.0701
     44 H10         0.2008    1.0329    2.5527 H         1 <0>         0.0726
     45 H11         0.8648   -0.4466    3.2927 H         1 <0>         0.1030
     46 H12         1.9838   -1.0446   -1.0759 H         1 <0>         0.1414
     47 H13         3.9236   -2.5353    4.0724 H         1 <0>         0.4132
     48 H14         5.4693   -4.3181    2.5203 H         1 <0>         0.0589
     49 H15         6.3450   -2.7730    2.6383 H         1 <0>         0.0591
     50 H16         5.9411   -3.6820    4.1144 H         1 <0>         0.0728
     51 H17         2.7642   -1.3555   -2.6629 H         1 <0>         0.1243
     52 H18         3.7454   -1.7446   -4.8440 H         1 <0>         0.1194
     53 H19         5.9975   -3.3471   -0.6857 H         1 <0>         0.1423
     54 H20         5.2431   -2.4519   -6.7438 H         1 <0>         0.4211
     55 H21         6.6732   -3.2379   -7.1434 H         1 <0>         0.4057
     56 H22        -3.5562   -0.9797    3.8245 H         1 <0>         0.3990
     57 H23        -3.2149    1.1635    5.7785 H         1 <0>         0.0882
     58 H24        -3.5032   -1.7509    6.6388 H         1 <0>         0.0627
     59 H25        -2.0513   -0.7439    6.8538 H         1 <0>         0.0673
     60 H26        -3.4052   -0.8083    8.9302 H         1 <0>         0.0652
     61 H27        -3.3543    0.8364    8.2515 H         1 <0>         0.0646
     62 H28        -5.6091   -1.1829    7.8574 H         1 <0>         0.0625
     63 H29        -5.6575    0.2288    8.9405 H         1 <0>         0.0644
     64 H30        -6.7727    0.7245    6.7820 H         1 <0>         0.0675
     65 H31        -5.3208    1.7315    6.9970 H         1 <0>         0.0654
     66 H32        -5.4189    0.7889    4.7056 H         1 <0>         0.0683
     67 H33        -5.4697   -0.8558    5.3843 H         1 <0>         0.0675
     68 H34         8.0731   -4.1944   -5.1423 H         1 <0>         0.4393
@<TRIPOS>BOND
     1    1    2 1
     2    1   37 1
     3    1   38 1
     4    1   39 1
     5    2    3 1
     6    2    9 1
     7    2    4 1
     8    4    5 1
     9    4   40 1
    10    4   41 1
    11    5    6 1
    12    5   42 1
    13    5   43 1
    14    6    7 1
    15    6    8 1
    16    6   28 1
    17    8    9 1
    18    8   44 1
    19    8   45 1
    20    9   10 1
    21   10   15 ar
    22   10   11 ar
    23   11   12 ar
    24   11   46 1
    25   12   13 ar
    26   12   18 1
    27   13   14 ar
    28   14   15 ar
    29   14   16 1
    30   16   17 1
    31   16   47 1
    32   17   48 1
    33   17   49 1
    34   17   50 1
    35   18   23 ar
    36   18   19 ar
    37   19   20 ar
    38   19   51 1
    39   20   21 ar
    40   20   52 1
    41   21   22 ar
    42   21   26 2
    43   22   23 ar
    44   22   24 2
    45   23   53 1
    46   24   25 1
    47   25   26 1
    48   25   68 1
    49   26   27 1
    50   27   54 1
    51   27   55 1
    52   28   29 2
    53   28   30 am
    54   30   31 1
    55   30   56 1
    56   31   36 1
    57   31   32 1
    58   31   57 1
    59   32   33 1
    60   32   58 1
    61   32   59 1
    62   33   34 1
    63   33   60 1
    64   33   61 1
    65   34   35 1
    66   34   62 1
    67   34   63 1
    68   35   36 1
    69   35   64 1
    70   35   65 1
    71   36   66 1
    72   36   67 1
@<TRIPOS>MOLECULE
ZINC13998530
   48    51     0     0     0
SMALL
USER_CHARGES
N-[[2-(4-amino-1,2,5-oxadiazol-3-yl)-1-ethyl-imidazo[5,4-d]pyridin-7-yl]methyl]piperidin-4-amine
@<TRIPOS>ATOM
      1 C1          1.5587    0.3111   -0.1080 C.3       1 <0>        -0.1729
      2 C2          0.2652    1.0542   -0.4478 C.3       1 <0>         0.0990
      3 N1         -0.4854    1.3157    0.7828 N.pl3     1 <0>        -0.4686
      4 C3         -0.4224    2.4543    1.5497 C.ar      1 <0>         0.0959
      5 C4          0.2805    3.6520    1.4788 C.ar      1 <0>        -0.1364
      6 C5          0.0830    4.5977    2.4615 C.ar      1 <0>         0.1287
      7 N2         -0.7570    4.3848    3.4610 N.ar      1 <0>        -0.4799
      8 C6         -1.4527    3.2734    3.5731 C.ar      1 <0>         0.1941
      9 C7         -1.3129    2.2569    2.6252 C.ar      1 <0>         0.0004
     10 N3         -1.8585    1.0289    2.4690 N.2       1 <0>        -0.4499
     11 C8         -1.3766    0.4683    1.3870 C.2       1 <0>         0.3728
     12 C9         -1.7401   -0.8779    0.8921 C.2       1 <0>         0.0023
     13 C10        -2.6825   -1.8587    1.4795 C.2       1 <0>         0.3357
     14 N4         -2.6148   -2.8606    0.6343 N.2       1 <0>        -0.4153
     15 O1         -1.8331   -2.5921   -0.2473 O.3       1 <0>         0.3396
     16 N5         -1.3034   -1.5081   -0.1774 N.2       1 <0>        -0.3271
     17 N6         -3.4473   -1.7455    2.6331 N.pl3     1 <0>        -0.8250
     18 C11         1.2410    3.9115    0.3469 C.3       1 <0>         0.0915
     19 N7          0.4927    4.3449   -0.8406 N.3       1 <0>        -0.6619
     20 C12         1.3822    4.4840   -2.0015 C.3       1 <0>         0.0601
     21 C13         2.0249    5.8738   -1.9900 C.3       1 <0>        -0.1386
     22 C14         2.9024    6.0349   -3.2334 C.3       1 <0>        -0.0005
     23 N8          2.0812    5.8656   -4.4389 N.4       1 <0>        -0.5357
     24 C15         1.4918    4.5218   -4.4955 C.3       1 <0>         0.0005
     25 C16         0.5721    4.3156   -3.2899 C.3       1 <0>        -0.1532
     26 H1          2.1223    0.1147   -1.0320 H         1 <0>         0.0835
     27 H2          1.3154   -0.6428    0.3829 H         1 <0>         0.0718
     28 H3          2.1683    0.9271    0.5695 H         1 <0>         0.0631
     29 H4          0.5085    2.0081   -0.9386 H         1 <0>         0.0828
     30 H5         -0.3444    0.4382   -1.1253 H         1 <0>         0.1085
     31 H6          0.6248    5.5308    2.4149 H         1 <0>         0.1643
     32 H7         -2.1261    3.1422    4.4072 H         1 <0>         0.1735
     33 H8         -4.1062   -2.5714    2.9394 H         1 <0>         0.4441
     34 H9         -3.3942   -0.8300    3.2405 H         1 <0>         0.4554
     35 H10         1.9502    4.6992    0.6411 H         1 <0>         0.0956
     36 H11         1.7932    2.9887    0.1157 H         1 <0>         0.0477
     37 H12        -0.2824    3.6011   -1.0772 H         1 <0>         0.3446
     38 H13         2.1485    3.6993   -1.9174 H         1 <0>         0.0618
     39 H14         1.2375    6.6419   -1.9927 H         1 <0>         0.0991
     40 H15         2.6423    5.9848   -1.0864 H         1 <0>         0.1091
     41 H16         3.3541    7.0379   -3.2359 H         1 <0>         0.1357
     42 H17         3.6974    5.2747   -3.2221 H         1 <0>         0.1252
     43 H18         1.2675    6.6058   -4.4351 H         1 <0>         0.4517
     44 H19         0.9095    4.4156   -5.4227 H         1 <0>         0.1362
     45 H20         2.2934    3.7687   -4.4776 H         1 <0>         0.1264
     46 H21         0.1423    3.3036   -3.3232 H         1 <0>         0.1068
     47 H22        -0.2383    5.0590   -3.3133 H         1 <0>         0.1012
     48 H23         2.7063    6.0125   -5.3320 H         1 <0>         0.4559
@<TRIPOS>BOND
     1    1    2 1
     2    1   26 1
     3    1   27 1
     4    1   28 1
     5    2    3 1
     6    2   29 1
     7    2   30 1
     8    3   11 1
     9    3    4 1
    10    4    9 ar
    11    4    5 ar
    12    5    6 ar
    13    5   18 1
    14    6    7 ar
    15    6   31 1
    16    7    8 ar
    17    8    9 ar
    18    8   32 1
    19    9   10 1
    20   10   11 2
    21   11   12 1
    22   12   16 2
    23   12   13 1
    24   13   14 2
    25   13   17 1
    26   14   15 1
    27   15   16 1
    28   17   33 1
    29   17   34 1
    30   18   19 1
    31   18   35 1
    32   18   36 1
    33   19   20 1
    34   19   37 1
    35   20   25 1
    36   20   21 1
    37   20   38 1
    38   21   22 1
    39   21   39 1
    40   21   40 1
    41   22   23 1
    42   22   41 1
    43   22   42 1
    44   23   24 1
    45   23   43 1
    46   23   48 1
    47   24   25 1
    48   24   44 1
    49   24   45 1
    50   25   46 1
    51   25   47 1
@<TRIPOS>MOLECULE
ZINC13998530
   50    53     0     0     0
SMALL
USER_CHARGES
N-[[2-(4-amino-1,2,5-oxadiazol-3-yl)-1-ethyl-imidazo[5,4-d]pyridin-7-yl]methyl]piperidin-4-amine
@<TRIPOS>ATOM
      1 C1          1.5587    0.3111   -0.1080 C.3       1 <0>        -0.1879
      2 C2          0.2652    1.0542   -0.4478 C.3       1 <0>         0.0907
      3 N1         -0.4854    1.3157    0.7828 N.pl3     1 <0>        -0.4320
      4 C3         -0.4224    2.4543    1.5497 C.ar      1 <0>         0.1403
      5 C4          0.2805    3.6520    1.4788 C.ar      1 <0>        -0.2050
      6 C5          0.0830    4.5977    2.4615 C.ar      1 <0>         0.2011
      7 N2         -0.7570    4.3848    3.4610 N.ar      1 <0>        -0.4354
      8 C6         -1.4527    3.2734    3.5731 C.ar      1 <0>         0.2433
      9 C7         -1.3129    2.2569    2.6252 C.ar      1 <0>         0.0004
     10 C8         -1.3766    0.4683    1.3870 C.cat     1 <0>         0.5282
     11 C9         -1.7401   -0.8779    0.8921 C.2       1 <0>        -0.0864
     12 C10        -2.6825   -1.8587    1.4795 C.2       1 <0>         0.3373
     13 N3         -2.6148   -2.8606    0.6343 N.2       1 <0>        -0.3540
     14 O1         -1.8331   -2.5921   -0.2473 O.3       1 <0>         0.4261
     15 N4         -1.3034   -1.5081   -0.1774 N.2       1 <0>        -0.2841
     16 N5         -3.4473   -1.7455    2.6331 N.pl3     1 <0>        -0.7914
     17 C11         1.2410    3.9115    0.3469 C.3       1 <0>         0.0409
     18 C12         1.3822    4.4840   -2.0015 C.3       1 <0>         0.0090
     19 C13         2.0249    5.8738   -1.9900 C.3       1 <0>        -0.1710
     20 C14         2.9024    6.0349   -3.2334 C.3       1 <0>         0.0014
     21 C15         1.4918    4.5218   -4.4955 C.3       1 <0>         0.0029
     22 C16         0.5721    4.3156   -3.2899 C.3       1 <0>        -0.1754
     23 H1          2.1915    0.9474    0.5107 H         1 <0>         0.0766
     24 H2          1.3205   -0.6031    0.4356 H         1 <0>         0.0880
     25 H3          2.0858    0.0597   -1.0284 H         1 <0>         0.1156
     26 H4          0.5062    1.9994   -0.9342 H         1 <0>         0.0840
     27 H5         -0.3389    0.4438   -1.1190 H         1 <0>         0.1418
     28 H6          0.6248    5.5308    2.4149 H         1 <0>         0.2015
     29 H7         -2.1261    3.1422    4.4072 H         1 <0>         0.2090
     30 H8         -3.4005   -0.9382    3.1687 H         1 <0>         0.4102
     31 H9         -4.0283   -2.4737    2.9032 H         1 <0>         0.4460
     32 H10         1.9437    4.6920    0.6384 H         1 <0>         0.1710
     33 H11         1.7882    2.9970    0.1179 H         1 <0>         0.1475
     34 H12         2.1599    3.7216   -1.9579 H         1 <0>         0.1609
     35 H13         1.2451    6.6354   -1.9938 H         1 <0>         0.1184
     36 H14         2.6377    5.9839   -1.0953 H         1 <0>         0.1392
     37 H15         3.6903    5.2817   -3.2219 H         1 <0>         0.1457
     38 H16         3.3501    7.0287   -3.2354 H         1 <0>         0.1589
     39 H17         2.2862    3.7758   -4.4782 H         1 <0>         0.1457
     40 H18         0.9150    4.4169   -5.4145 H         1 <0>         0.1578
     41 H19         0.1469    3.3125   -3.3239 H         1 <0>         0.1333
     42 H20        -0.2310    5.0522   -3.3137 H         1 <0>         0.1182
     43 N6          0.4822    4.3468   -0.8408 N.4       1 <0>        -0.5258
     44 H21         0.0394    5.2526   -0.6466 H         1 <0>         0.4455
     45 H22        -0.2418    3.6507   -1.0540 H         1 <0>         0.4274
     46 N7          2.0795    5.8742   -4.4473 N.4       1 <0>        -0.5237
     47 H23         2.6682    6.0169   -5.2763 H         1 <0>         0.4578
     48 H24         1.3252    6.5707   -4.4392 H         1 <0>         0.4401
     49 N8         -1.8590    1.0286    2.4695 N.pl3     1 <0>        -0.4723
     50 H25        -2.5457    0.6011    3.1020 H         1 <0>         0.4828
@<TRIPOS>BOND
     1    1    2 1
     2    1   23 1
     3    1   24 1
     4    1   25 1
     5    2    3 1
     6    2   26 1
     7    2   27 1
     8    3   10 1
     9    3    4 1
    10    4    9 ar
    11    4    5 ar
    12    5    6 ar
    13    5   17 1
    14    6    7 ar
    15    6   28 1
    16    7    8 ar
    17    8    9 ar
    18    8   29 1
    19    9   49 1
    20   10   11 1
    21   10   49 2
    22   11   15 2
    23   11   12 1
    24   12   13 2
    25   12   16 1
    26   13   14 1
    27   14   15 1
    28   16   30 1
    29   16   31 1
    30   17   32 1
    31   17   33 1
    32   17   43 1
    33   18   22 1
    34   18   19 1
    35   18   34 1
    36   18   43 1
    37   19   20 1
    38   19   35 1
    39   19   36 1
    40   20   37 1
    41   20   38 1
    42   20   46 1
    43   21   22 1
    44   21   39 1
    45   21   40 1
    46   21   46 1
    47   22   41 1
    48   22   42 1
    49   43   44 1
    50   43   45 1
    51   46   47 1
    52   46   48 1
    53   49   50 1
@<TRIPOS>MOLECULE
ZINC13998530
   48    51     0     0     0
SMALL
USER_CHARGES
N-[[2-(4-amino-1,2,5-oxadiazol-3-yl)-1-ethyl-imidazo[5,4-d]pyridin-7-yl]methyl]piperidin-4-amine
@<TRIPOS>ATOM
      1 C1          1.5587    0.3111   -0.1080 C.3       1 <0>        -0.1786
      2 C2          0.2652    1.0542   -0.4478 C.3       1 <0>         0.0984
      3 N1         -0.4854    1.3157    0.7828 N.pl3     1 <0>        -0.4740
      4 C3         -0.4224    2.4543    1.5497 C.ar      1 <0>         0.0984
      5 C4          0.2805    3.6520    1.4788 C.ar      1 <0>        -0.2089
      6 C5          0.0830    4.5977    2.4615 C.ar      1 <0>         0.1545
      7 N2         -0.7570    4.3848    3.4610 N.ar      1 <0>        -0.4785
      8 C6         -1.4527    3.2734    3.5731 C.ar      1 <0>         0.2265
      9 C7         -1.3129    2.2569    2.6252 C.ar      1 <0>         0.0045
     10 N3         -1.8585    1.0289    2.4690 N.2       1 <0>        -0.4438
     11 C8         -1.3766    0.4683    1.3870 C.2       1 <0>         0.3923
     12 C9         -1.7401   -0.8779    0.8921 C.2       1 <0>        -0.0123
     13 C10        -2.6825   -1.8587    1.4795 C.2       1 <0>         0.3390
     14 N4         -2.6148   -2.8606    0.6343 N.2       1 <0>        -0.4099
     15 O1         -1.8331   -2.5921   -0.2473 O.3       1 <0>         0.3511
     16 N5         -1.3034   -1.5081   -0.1774 N.2       1 <0>        -0.3239
     17 N6         -3.4473   -1.7455    2.6331 N.pl3     1 <0>        -0.8239
     18 C11         1.2410    3.9115    0.3469 C.3       1 <0>         0.0492
     19 N7          0.4927    4.3449   -0.8406 N.4       1 <0>        -0.5443
     20 C12         1.3822    4.4840   -2.0015 C.3       1 <0>         0.0286
     21 C13         2.0249    5.8738   -1.9900 C.3       1 <0>        -0.1779
     22 C14         2.9024    6.0349   -3.2334 C.3       1 <0>         0.0501
     23 N8          2.0812    5.8656   -4.4389 N.3       1 <0>        -0.6639
     24 C15         1.4918    4.5218   -4.4955 C.3       1 <0>         0.0503
     25 C16         0.5721    4.3156   -3.2899 C.3       1 <0>        -0.1817
     26 H1          2.1223    0.1147   -1.0320 H         1 <0>         0.0939
     27 H2          1.3154   -0.6428    0.3829 H         1 <0>         0.0792
     28 H3          2.1683    0.9271    0.5695 H         1 <0>         0.0650
     29 H4          0.5085    2.0081   -0.9386 H         1 <0>         0.0660
     30 H5         -0.3444    0.4382   -1.1253 H         1 <0>         0.1214
     31 H6          0.6248    5.5308    2.4149 H         1 <0>         0.1741
     32 H7         -2.1261    3.1422    4.4072 H         1 <0>         0.1835
     33 H8         -4.1062   -2.5714    2.9394 H         1 <0>         0.4473
     34 H9         -3.3942   -0.8300    3.2405 H         1 <0>         0.4545
     35 H10         1.9502    4.6992    0.6411 H         1 <0>         0.1484
     36 H11         1.7932    2.9887    0.1157 H         1 <0>         0.1304
     37 H12        -0.2824    3.6011   -1.0772 H         1 <0>         0.4360
     38 H13         2.1485    3.6993   -1.9174 H         1 <0>         0.1334
     39 H14         1.2375    6.6419   -1.9927 H         1 <0>         0.0911
     40 H15         2.6423    5.9848   -1.0864 H         1 <0>         0.0950
     41 H16         3.3541    7.0379   -3.2359 H         1 <0>         0.1018
     42 H17         3.6974    5.2747   -3.2221 H         1 <0>         0.0861
     43 H18         0.9095    4.4156   -5.4227 H         1 <0>         0.1017
     44 H19         2.2934    3.7687   -4.4776 H         1 <0>         0.0861
     45 H20         0.1423    3.3036   -3.3232 H         1 <0>         0.0920
     46 H21        -0.2383    5.0590   -3.3133 H         1 <0>         0.0912
     47 H22         1.2675    6.6058   -4.4351 H         1 <0>         0.3507
     48 H23         0.0189    5.3173   -0.6407 H         1 <0>         0.4498
@<TRIPOS>BOND
     1    1    2 1
     2    1   26 1
     3    1   27 1
     4    1   28 1
     5    2    3 1
     6    2   29 1
     7    2   30 1
     8    3   11 1
     9    3    4 1
    10    4    9 ar
    11    4    5 ar
    12    5    6 ar
    13    5   18 1
    14    6    7 ar
    15    6   31 1
    16    7    8 ar
    17    8    9 ar
    18    8   32 1
    19    9   10 1
    20   10   11 2
    21   11   12 1
    22   12   16 2
    23   12   13 1
    24   13   14 2
    25   13   17 1
    26   14   15 1
    27   15   16 1
    28   17   33 1
    29   17   34 1
    30   18   19 1
    31   18   35 1
    32   18   36 1
    33   19   20 1
    34   19   37 1
    35   19   48 1
    36   20   25 1
    37   20   21 1
    38   20   38 1
    39   21   22 1
    40   21   39 1
    41   21   40 1
    42   22   23 1
    43   22   41 1
    44   22   42 1
    45   23   24 1
    46   23   47 1
    47   24   25 1
    48   24   43 1
    49   24   44 1
    50   25   45 1
    51   25   46 1
@<TRIPOS>MOLECULE
ZINC13981024
   27    29     0     0     0
SMALL
USER_CHARGES
4-(1-ethylimidazo[4,5-c]pyridin-2-yl)-1,2,5-oxadiazol-3-amine
@<TRIPOS>ATOM
      1 C1         -1.5864   -1.1894   -1.4308 C.3       1 <0>        -0.1670
      2 C2         -1.1654   -0.8891    0.0091 C.3       1 <0>         0.0988
      3 N1          0.0021   -0.0041    0.0020 N.pl3     1 <0>        -0.4647
      4 C3         -0.0166    1.3700    0.0096 C.ar      1 <0>         0.0894
      5 C4         -1.0112    2.3416    0.0293 C.ar      1 <0>        -0.1591
      6 C5         -0.6432    3.6696    0.0287 C.ar      1 <0>         0.1041
      7 N2          0.6297    4.0298    0.0184 N.ar      1 <0>        -0.4826
      8 C6          1.6108    3.1528    0.0040 C.ar      1 <0>         0.1849
      9 C7          1.3314    1.7841   -0.0011 C.ar      1 <0>        -0.0037
     10 N3          2.0909    0.6647   -0.0143 N.2       1 <0>        -0.4528
     11 C8          1.3161   -0.3921   -0.0126 C.2       1 <0>         0.3614
     12 C9          1.7892   -1.7940   -0.0242 C.2       1 <0>         0.0171
     13 C10         3.1804   -2.3031   -0.0462 C.2       1 <0>         0.3250
     14 N4          3.0078   -3.6042   -0.0455 N.2       1 <0>        -0.4089
     15 O1          1.8256   -3.8541   -0.0355 O.3       1 <0>         0.3400
     16 N5          1.0803   -2.9027   -0.0233 N.2       1 <0>        -0.3200
     17 N6          4.3685   -1.5844   -0.0608 N.pl3     1 <0>        -0.7993
     18 H1         -0.7645   -1.6764   -1.9556 H         1 <0>         0.0631
     19 H2         -2.4550   -1.8479   -1.4255 H         1 <0>         0.0850
     20 H3         -1.8397   -0.2580   -1.9371 H         1 <0>         0.0629
     21 H4         -0.9121   -1.8205    0.5154 H         1 <0>         0.1064
     22 H5         -1.9873   -0.4021    0.5339 H         1 <0>         0.0973
     23 H6         -2.0539    2.0603    0.0423 H         1 <0>         0.1372
     24 H7         -1.4088    4.4312    0.0404 H         1 <0>         0.1669
     25 H8          2.6359    3.4926   -0.0036 H         1 <0>         0.1700
     26 H9          4.3488   -0.6146   -0.0570 H         1 <0>         0.4303
     27 H10         5.2182   -2.0521   -0.0749 H         1 <0>         0.4185
@<TRIPOS>BOND
     1    1    2 1
     2    1   18 1
     3    1   19 1
     4    1   20 1
     5    2    3 1
     6    2   21 1
     7    2   22 1
     8    3   11 1
     9    3    4 1
    10    4    9 ar
    11    4    5 ar
    12    5    6 ar
    13    5   23 1
    14    6    7 ar
    15    6   24 1
    16    7    8 ar
    17    8    9 ar
    18    8   25 1
    19    9   10 1
    20   10   11 2
    21   11   12 1
    22   12   16 2
    23   12   13 1
    24   13   14 2
    25   13   17 1
    26   14   15 1
    27   15   16 1
    28   17   26 1
    29   17   27 1
@<TRIPOS>MOLECULE
ZINC13981024
   28    30     0     0     0
SMALL
USER_CHARGES
4-(1-ethylimidazo[4,5-c]pyridin-2-yl)-1,2,5-oxadiazol-3-amine
@<TRIPOS>ATOM
      1 C1         -1.5864   -1.1894   -1.4308 C.3       1 <0>        -0.1754
      2 C2         -1.1654   -0.8891    0.0091 C.3       1 <0>         0.0846
      3 N1          0.0021   -0.0041    0.0020 N.pl3     1 <0>        -0.4051
      4 C3         -0.0166    1.3700    0.0096 C.ar      1 <0>         0.1234
      5 C4         -1.0112    2.3416    0.0293 C.ar      1 <0>        -0.1341
      6 C5         -0.6432    3.6696    0.0287 C.ar      1 <0>         0.1473
      7 N2          0.6297    4.0298    0.0184 N.ar      1 <0>        -0.4393
      8 C6          1.6108    3.1528    0.0040 C.ar      1 <0>         0.1869
      9 C7          1.3314    1.7841   -0.0011 C.ar      1 <0>        -0.0058
     10 C8          1.3161   -0.3921   -0.0126 C.cat     1 <0>         0.4895
     11 C9          1.7892   -1.7940   -0.0242 C.2       1 <0>        -0.0625
     12 C10         3.1804   -2.3031   -0.0462 C.2       1 <0>         0.3286
     13 N3          3.0078   -3.6042   -0.0455 N.2       1 <0>        -0.3685
     14 O1          1.8256   -3.8541   -0.0355 O.3       1 <0>         0.4024
     15 N4          1.0803   -2.9027   -0.0233 N.2       1 <0>        -0.2761
     16 N5          4.3685   -1.5844   -0.0608 N.pl3     1 <0>        -0.7984
     17 H1         -0.7645   -1.6764   -1.9556 H         1 <0>         0.0696
     18 H2         -2.4550   -1.8479   -1.4255 H         1 <0>         0.1077
     19 H3         -1.8397   -0.2580   -1.9371 H         1 <0>         0.0743
     20 H4         -0.9121   -1.8205    0.5154 H         1 <0>         0.1264
     21 H5         -1.9873   -0.4021    0.5339 H         1 <0>         0.1292
     22 H6         -2.0539    2.0603    0.0423 H         1 <0>         0.1690
     23 H7         -1.4088    4.4312    0.0404 H         1 <0>         0.1943
     24 H8          2.6359    3.4926   -0.0036 H         1 <0>         0.1911
     25 H9          4.3488   -0.6146   -0.0570 H         1 <0>         0.4102
     26 H10         5.2182   -2.0521   -0.0749 H         1 <0>         0.4388
     27 N6          2.0917    0.6647   -0.0143 N.pl3     1 <0>        -0.4784
     28 H11         3.1182    0.6460   -0.0242 H         1 <0>         0.4702
@<TRIPOS>BOND
     1    1    2 1
     2    1   17 1
     3    1   18 1
     4    1   19 1
     5    2    3 1
     6    2   20 1
     7    2   21 1
     8    3   10 1
     9    3    4 1
    10    4    9 ar
    11    4    5 ar
    12    5    6 ar
    13    5   22 1
    14    6    7 ar
    15    6   23 1
    16    7    8 ar
    17    8    9 ar
    18    8   24 1
    19    9   27 1
    20   10   11 1
    21   10   27 2
    22   11   15 2
    23   11   12 1
    24   12   13 2
    25   12   16 1
    26   13   14 1
    27   14   15 1
    28   16   25 1
    29   16   26 1
    30   27   28 1
@<TRIPOS>MOLECULE
ZINC14954335
   72    77     0     0     0
SMALL
USER_CHARGES

@<TRIPOS>ATOM
      1 C1          0.9411    2.8069    1.9922 C.3       1 <0>        -0.1686
      2 C2         -0.0727    2.1281    1.0689 C.3       1 <0>         0.0959
      3 N1         -1.4296    2.4004    1.5494 N.pl3     1 <0>        -0.4595
      4 C3         -2.1438    1.6440    2.4480 C.ar      1 <0>         0.1328
      5 C4         -1.9013    0.4785    3.1630 C.ar      1 <0>        -0.1853
      6 C5         -2.8893   -0.0064    4.0033 C.ar      1 <0>         0.3328
      7 N2         -4.0507    0.6220    4.1309 N.ar      1 <0>        -0.5158
      8 C6         -4.3280    1.7292    3.4750 C.ar      1 <0>         0.2345
      9 C7         -3.3890    2.2886    2.6064 C.ar      1 <0>        -0.0327
     10 N3         -3.3729    3.3845    1.8124 N.2       1 <0>        -0.4322
     11 C8         -2.2221    3.4608    1.1913 C.2       1 <0>         0.3221
     12 C9         -1.8366    4.5285    0.2427 C.2       1 <0>         0.1387
     13 C10        -2.6682    5.6738   -0.1485 C.2       1 <0>         0.3641
     14 N4         -1.9945    6.3978   -0.9992 N.2       1 <0>        -0.3504
     15 O1         -0.7349    5.7806   -1.1967 O.3       1 <0>         0.0421
     16 N5         -0.6939    4.6181   -0.3881 N.2       1 <0>        -0.2502
     17 N6         -3.9521    5.9403    0.3086 N.pl3     1 <0>        -0.8013
     18 O2         -2.6658   -1.1446    4.7082 O.3       1 <0>        -0.2405
     19 C11        -3.6120   -1.5386    5.6004 C.ar      1 <0>         0.1088
     20 C12        -4.7893   -2.1220    5.1522 C.ar      1 <0>        -0.1211
     21 C13        -5.7521   -2.5235    6.0583 C.ar      1 <0>        -0.0872
     22 C14        -5.5466   -2.3458    7.4129 C.ar      1 <0>        -0.1373
     23 C15        -4.3705   -1.7626    7.8673 C.ar      1 <0>         0.1569
     24 C16        -3.3999   -1.3634    6.9589 C.ar      1 <0>        -0.1170
     25 N7         -4.1625   -1.5828    9.2385 N.am      1 <0>        -0.6707
     26 C17        -3.4987   -0.4972    9.6827 C.2       1 <0>         0.5655
     27 O3         -3.0062    0.2812    8.8890 O.2       1 <0>        -0.5170
     28 C18        -3.3695   -0.2532   11.1324 C.ar      1 <0>        -0.1832
     29 C19        -3.9299   -1.1497   12.0463 C.ar      1 <0>        -0.0425
     30 C20        -3.8073   -0.9184   13.3982 C.ar      1 <0>        -0.1589
     31 C21        -3.1272    0.2048   13.8542 C.ar      1 <0>         0.1666
     32 C22        -2.5688    1.0991   12.9484 C.ar      1 <0>        -0.2214
     33 C23        -2.6816    0.8718   11.5950 C.ar      1 <0>        -0.0109
     34 O4         -3.0085    0.4291   15.1874 O.3       1 <0>        -0.2916
     35 C24        -2.2971    1.6023   15.5870 C.3       1 <0>         0.0627
     36 C25        -2.2675    1.6852   17.1145 C.3       1 <0>         0.0537
     37 N8         -1.4869    0.5623   17.6508 N.3       1 <0>        -0.5316
     38 C26        -1.7982    0.3341   19.0693 C.3       1 <0>         0.0184
     39 C27        -1.0098   -0.8787   19.5706 C.3       1 <0>         0.0628
     40 O5          0.3860   -0.6574   19.3515 O.3       1 <0>        -0.3848
     41 C28         0.7249   -0.4322   17.9804 C.3       1 <0>         0.0636
     42 C29        -0.0459    0.7852   17.4631 C.3       1 <0>         0.0134
     43 H1          1.9507    2.6043    1.6347 H         1 <0>         0.0863
     44 H2          0.7660    3.8827    1.9956 H         1 <0>         0.0635
     45 H3          0.8289    2.4173    3.0040 H         1 <0>         0.0651
     46 H4          0.0395    2.5178    0.0572 H         1 <0>         0.1087
     47 H5          0.1025    1.0523    1.0655 H         1 <0>         0.1010
     48 H6         -0.9592   -0.0405    3.0652 H         1 <0>         0.1471
     49 H7         -5.2872    2.2072    3.6094 H         1 <0>         0.1785
     50 H8         -4.3747    5.3415    0.9441 H         1 <0>         0.4311
     51 H9         -4.4263    6.7252   -0.0075 H         1 <0>         0.4188
     52 H10        -4.9530   -2.2619    4.0939 H         1 <0>         0.1282
     53 H11        -6.6672   -2.9768    5.7069 H         1 <0>         0.1352
     54 H12        -6.3009   -2.6602    8.1190 H         1 <0>         0.1315
     55 H13        -2.4829   -0.9135    7.3097 H         1 <0>         0.1458
     56 H14        -4.4960   -2.2393    9.8699 H         1 <0>         0.4120
     57 H15        -4.4588   -2.0225   11.6928 H         1 <0>         0.1326
     58 H16        -4.2403   -1.6106   14.1052 H         1 <0>         0.1399
     59 H17        -2.0414    1.9708   13.3067 H         1 <0>         0.1349
     60 H18        -2.2430    1.5644   10.8919 H         1 <0>         0.1393
     61 H19        -1.2770    1.5562   15.2058 H         1 <0>         0.0664
     62 H20        -2.7957    2.4842   15.1849 H         1 <0>         0.0715
     63 H21        -1.8075    2.6255   17.4184 H         1 <0>         0.0636
     64 H22        -3.2856    1.6372   17.5008 H         1 <0>         0.0899
     65 H23        -1.5199    1.2141   19.6492 H         1 <0>         0.0442
     66 H24        -2.8660    0.1460   19.1819 H         1 <0>         0.0890
     67 H25        -1.1935   -1.0172   20.6361 H         1 <0>         0.0998
     68 H26        -1.3269   -1.7689   19.0272 H         1 <0>         0.0615
     69 H27         1.7959   -0.2478   17.8958 H         1 <0>         0.0992
     70 H28         0.4583   -1.3094   17.3908 H         1 <0>         0.0611
     71 H29         0.1655    0.9263   16.4031 H         1 <0>         0.0850
     72 H30         0.2604    1.6724   18.0172 H         1 <0>         0.0454
@<TRIPOS>BOND
     1    1    2 1
     2    1   43 1
     3    1   44 1
     4    1   45 1
     5    2    3 1
     6    2   46 1
     7    2   47 1
     8    3   11 1
     9    3    4 1
    10    4    9 ar
    11    4    5 ar
    12    5    6 ar
    13    5   48 1
    14    6    7 ar
    15    6   18 1
    16    7    8 ar
    17    8    9 ar
    18    8   49 1
    19    9   10 1
    20   10   11 2
    21   11   12 1
    22   12   16 2
    23   12   13 1
    24   13   14 2
    25   13   17 1
    26   14   15 1
    27   15   16 1
    28   17   50 1
    29   17   51 1
    30   18   19 1
    31   19   24 ar
    32   19   20 ar
    33   20   21 ar
    34   20   52 1
    35   21   22 ar
    36   21   53 1
    37   22   23 ar
    38   22   54 1
    39   23   24 ar
    40   23   25 1
    41   24   55 1
    42   25   26 am
    43   25   56 1
    44   26   27 2
    45   26   28 1
    46   28   33 ar
    47   28   29 ar
    48   29   30 ar
    49   29   57 1
    50   30   31 ar
    51   30   58 1
    52   31   32 ar
    53   31   34 1
    54   32   33 ar
    55   32   59 1
    56   33   60 1
    57   34   35 1
    58   35   36 1
    59   35   61 1
    60   35   62 1
    61   36   37 1
    62   36   63 1
    63   36   64 1
    64   37   42 1
    65   37   38 1
    66   38   39 1
    67   38   65 1
    68   38   66 1
    69   39   40 1
    70   39   67 1
    71   39   68 1
    72   40   41 1
    73   41   42 1
    74   41   69 1
    75   41   70 1
    76   42   71 1
    77   42   72 1
@<TRIPOS>MOLECULE
ZINC14954335
   74    79     0     0     0
SMALL
USER_CHARGES
N-[3-[2-(4-amino-1,2,5-oxadiazol-3-yl)-1-ethyl-imidazo[5,4-d]pyridin-6-yl]oxyphenyl]-4-(2-morpholinoethoxy)benzamide
@<TRIPOS>ATOM
      1 C1          3.1565    5.2496   -1.7293 C.3       1 <0>        -0.1761
      2 C2          2.0510    5.9858   -2.4889 C.3       1 <0>         0.0849
      3 N1          1.2204    5.0144   -3.2050 N.pl3     1 <0>        -0.4085
      4 C3          0.0956    4.3895   -2.7213 C.ar      1 <0>         0.1630
      5 C4         -0.6090    4.4219   -1.5252 C.ar      1 <0>        -0.1632
      6 C5         -1.7364    3.6288   -1.3933 C.ar      1 <0>         0.3672
      7 N2         -2.1485    2.8517   -2.3864 N.ar      1 <0>        -0.4830
      8 C6         -1.5122    2.7823   -3.5368 C.ar      1 <0>         0.2337
      9 C7         -0.3659    3.5484   -3.7561 C.ar      1 <0>        -0.0414
     10 C8          1.4195    4.5595   -4.4833 C.cat     1 <0>         0.4936
     11 C9          2.5251    4.9782   -5.3727 C.2       1 <0>        -0.0630
     12 C10         2.8198    4.5379   -6.7564 C.2       1 <0>         0.3283
     13 N3          3.8978    5.2261   -7.0509 N.2       1 <0>        -0.3676
     14 O1          4.2099    5.9109   -6.1055 O.3       1 <0>         0.4034
     15 N4          3.4980    5.8312   -5.1321 N.2       1 <0>        -0.2751
     16 N5          2.1274    3.6282   -7.5448 N.pl3     1 <0>        -0.7987
     17 O2         -2.4351    3.6509   -0.2298 O.3       1 <0>        -0.2211
     18 C11        -3.5924    2.9416   -0.1670 C.ar      1 <0>         0.0887
     19 C12        -3.5541    1.5587   -0.0503 C.ar      1 <0>        -0.1148
     20 C13        -4.7300    0.8362    0.0137 C.ar      1 <0>        -0.0833
     21 C14        -5.9477    1.4872   -0.0374 C.ar      1 <0>        -0.1250
     22 C15        -5.9922    2.8707   -0.1537 C.ar      1 <0>         0.1547
     23 C16        -4.8119    3.5987   -0.2137 C.ar      1 <0>        -0.1104
     24 N6         -7.2247    3.5296   -0.2054 N.am      1 <0>        -0.6680
     25 C17        -7.3698    4.6282   -0.9726 C.2       1 <0>         0.5647
     26 O3         -6.4088    5.0965   -1.5518 O.2       1 <0>        -0.5142
     27 C18        -8.6951    5.2626   -1.1096 C.ar      1 <0>        -0.1628
     28 C19        -9.8021    4.7225   -0.4493 C.ar      1 <0>        -0.0404
     29 C20       -11.0361    5.3204   -0.5759 C.ar      1 <0>        -0.2090
     30 C21       -11.1837    6.4530   -1.3679 C.ar      1 <0>         0.1476
     31 C22       -10.0862    6.9905   -2.0302 C.ar      1 <0>        -0.1477
     32 C23        -8.8478    6.4017   -1.9046 C.ar      1 <0>        -0.0127
     33 O4        -12.4027    7.0359   -1.4946 O.3       1 <0>        -0.3246
     34 C24       -13.4874    6.4320   -0.7870 C.3       1 <0>         0.0224
     35 C25       -14.7707    7.2225   -1.0496 C.3       1 <0>         0.0035
     36 C26       -16.0565    8.1861   -2.8621 C.3       1 <0>        -0.0388
     37 C27       -16.3582    8.0701   -4.3586 C.3       1 <0>         0.0340
     38 O5        -16.8881    6.7705   -4.6336 O.3       1 <0>        -0.3545
     39 C28       -16.0126    5.7017   -4.2641 C.3       1 <0>         0.0352
     40 C29       -15.7074    5.7937   -2.7667 C.3       1 <0>        -0.0435
     41 H1          3.7740    4.6937   -2.4348 H         1 <0>         0.0701
     42 H2          3.7745    5.9723   -1.1964 H         1 <0>         0.1078
     43 H3          2.7085    4.5584   -1.0154 H         1 <0>         0.0746
     44 H4          2.4990    6.6770   -3.2027 H         1 <0>         0.1270
     45 H5          1.4335    6.5416   -1.7833 H         1 <0>         0.1290
     46 H6         -0.2835    5.0541   -0.7123 H         1 <0>         0.1755
     47 H7         -1.8814    2.1327   -4.3166 H         1 <0>         0.1964
     48 H8          1.3355    3.1891   -7.1970 H         1 <0>         0.4096
     49 H9          2.4357    3.4319   -8.4433 H         1 <0>         0.4389
     50 H10        -2.6039    1.0471   -0.0098 H         1 <0>         0.1323
     51 H11        -4.6974   -0.2395    0.1041 H         1 <0>         0.1423
     52 H12        -6.8654    0.9200    0.0128 H         1 <0>         0.1367
     53 H13        -4.8437    4.6748   -0.3000 H         1 <0>         0.1489
     54 H14        -7.9750    3.1960    0.3109 H         1 <0>         0.4141
     55 H15        -9.6890    3.8399    0.1628 H         1 <0>         0.1357
     56 H16       -11.8911    4.9062   -0.0623 H         1 <0>         0.1382
     57 H17       -10.2050    7.8708   -2.6444 H         1 <0>         0.1444
     58 H18        -7.9955    6.8199   -2.4195 H         1 <0>         0.1503
     59 H19       -13.6169    5.4050   -1.1284 H         1 <0>         0.0892
     60 H20       -13.2708    6.4352    0.2813 H         1 <0>         0.1150
     61 H21       -15.5776    6.8190   -0.4377 H         1 <0>         0.1547
     62 H22       -14.6107    8.2701   -0.7949 H         1 <0>         0.1450
     63 H23       -16.9831    8.0930   -2.2957 H         1 <0>         0.1428
     64 H24       -15.5994    9.1541   -2.6569 H         1 <0>         0.1429
     65 H25       -15.4400    8.2166   -4.9274 H         1 <0>         0.0813
     66 H26       -17.0877    8.8283   -4.6433 H         1 <0>         0.1442
     67 H27       -15.0844    5.7794   -4.8302 H         1 <0>         0.0804
     68 H28       -16.4924    4.7471   -4.4798 H         1 <0>         0.1430
     69 H29       -14.9955    5.0154   -2.4918 H         1 <0>         0.1369
     70 H30       -16.6285    5.6624   -2.1988 H         1 <0>         0.1441
     71 N7        -15.1094    7.1161   -2.4853 N.4       1 <0>        -0.3990
     72 H31       -14.2511    7.2194   -3.0392 H         1 <0>         0.4326
     73 N8          0.4835    3.6987   -4.7999 N.pl3     1 <0>        -0.4723
     74 H32         0.4062    3.2127   -5.7011 H         1 <0>         0.4699
@<TRIPOS>BOND
     1    1    2 1
     2    1   41 1
     3    1   42 1
     4    1   43 1
     5    2    3 1
     6    2   44 1
     7    2   45 1
     8    3   10 1
     9    3    4 1
    10    4    9 ar
    11    4    5 ar
    12    5    6 ar
    13    5   46 1
    14    6    7 ar
    15    6   17 1
    16    7    8 ar
    17    8    9 ar
    18    8   47 1
    19    9   73 1
    20   10   11 1
    21   10   73 2
    22   11   15 2
    23   11   12 1
    24   12   13 2
    25   12   16 1
    26   13   14 1
    27   14   15 1
    28   16   48 1
    29   16   49 1
    30   17   18 1
    31   18   23 ar
    32   18   19 ar
    33   19   20 ar
    34   19   50 1
    35   20   21 ar
    36   20   51 1
    37   21   22 ar
    38   21   52 1
    39   22   23 ar
    40   22   24 1
    41   23   53 1
    42   24   25 am
    43   24   54 1
    44   25   26 2
    45   25   27 1
    46   27   32 ar
    47   27   28 ar
    48   28   29 ar
    49   28   55 1
    50   29   30 ar
    51   29   56 1
    52   30   31 ar
    53   30   33 1
    54   31   32 ar
    55   31   57 1
    56   32   58 1
    57   33   34 1
    58   34   35 1
    59   34   59 1
    60   34   60 1
    61   35   61 1
    62   35   62 1
    63   35   71 1
    64   36   37 1
    65   36   63 1
    66   36   64 1
    67   36   71 1
    68   37   38 1
    69   37   65 1
    70   37   66 1
    71   38   39 1
    72   39   40 1
    73   39   67 1
    74   39   68 1
    75   40   69 1
    76   40   70 1
    77   40   71 1
    78   71   72 1
    79   73   74 1
@<TRIPOS>MOLECULE
ZINC28641173
   44    46     0     0     0
SMALL
USER_CHARGES
N-(1-propyl-4-piperidyl)isoquinolin-5-amine
@<TRIPOS>ATOM
      1 C1          9.5563    7.9997    2.4361 C.3       1 <0>        -0.1593
      2 C2          8.3021    7.1299    2.3307 C.3       1 <0>        -0.1534
      3 C3          7.7158    7.2489    0.9224 C.3       1 <0>        -0.0076
      4 N1          6.5116    6.4138    0.8212 N.4       1 <0>        -0.3991
      5 C4          6.0563    6.3135   -0.5713 C.3       1 <0>         0.0017
      6 C5          4.7245    5.5612   -0.6210 C.3       1 <0>        -0.1543
      7 C6          4.9106    4.1638   -0.0234 C.3       1 <0>         0.1454
      8 C7          5.4320    4.2943    1.4104 C.3       1 <0>        -0.1659
      9 C8          6.7426    5.0847    1.4013 C.3       1 <0>        -0.0097
     10 N2          3.6258    3.4599   -0.0149 N.pl3     1 <0>        -0.7506
     11 C9          3.5946    2.0668   -0.0222 C.ar      1 <0>         0.2197
     12 C10         4.7689    1.3424   -0.0374 C.ar      1 <0>        -0.2008
     13 C11         4.7471   -0.0489   -0.0448 C.ar      1 <0>        -0.0720
     14 C12         3.5707   -0.7362   -0.0368 C.ar      1 <0>        -0.1357
     15 C13         2.3540   -0.0371   -0.0208 C.ar      1 <0>        -0.0742
     16 C14         2.3640    1.3816   -0.0132 C.ar      1 <0>        -0.0640
     17 C15         1.1316    2.0562    0.0023 C.ar      1 <0>        -0.1528
     18 C16        -0.0159    1.3217    0.0093 C.ar      1 <0>         0.0751
     19 N3          0.0021   -0.0041    0.0020 N.ar      1 <0>        -0.4783
     20 C17         1.1151   -0.6992   -0.0124 C.ar      1 <0>         0.1447
     21 H1          9.9778    7.9142    3.4485 H         1 <0>         0.0779
     22 H2          9.2928    9.0488    2.2360 H         1 <0>         0.0676
     23 H3         10.3000    7.6615    1.6995 H         1 <0>         0.0670
     24 H4          8.5656    6.0808    2.5308 H         1 <0>         0.0882
     25 H5          7.5584    7.4680    3.0673 H         1 <0>         0.0865
     26 H6          7.4524    8.2980    0.7224 H         1 <0>         0.1323
     27 H7          8.4595    6.9108    0.1858 H         1 <0>         0.1269
     28 H8          5.9223    7.3231   -0.9869 H         1 <0>         0.1365
     29 H9          6.8065    5.7696   -1.1641 H         1 <0>         0.1289
     30 H10         3.9701    6.1126   -0.0407 H         1 <0>         0.0949
     31 H11         4.3915    5.4737   -1.6657 H         1 <0>         0.1192
     32 H12         5.6002    3.5654   -0.6369 H         1 <0>         0.0965
     33 H13         4.6876    4.8221    2.0246 H         1 <0>         0.0926
     34 H14         5.6087    3.2925    1.8289 H         1 <0>         0.1151
     35 H15         7.4899    4.5468    0.7995 H         1 <0>         0.1276
     36 H16         7.1113    5.1935    2.4320 H         1 <0>         0.1387
     37 H17         2.6858    4.0311   -0.0028 H         1 <0>         0.4229
     38 H18         5.7160    1.8613   -0.0440 H         1 <0>         0.1190
     39 H19         5.6795   -0.5938   -0.0568 H         1 <0>         0.1272
     40 H20         3.5746   -1.8162   -0.0424 H         1 <0>         0.1339
     41 H21         1.0946    3.1356    0.0089 H         1 <0>         0.1284
     42 H22        -0.9668    1.8337    0.0166 H         1 <0>         0.1544
     43 H23         1.0787   -1.7786   -0.0175 H         1 <0>         0.1680
     44 H24         5.7124    6.8985    1.4012 H         1 <0>         0.4410
@<TRIPOS>BOND
     1    1    2 1
     2    1   21 1
     3    1   22 1
     4    1   23 1
     5    2    3 1
     6    2   24 1
     7    2   25 1
     8    3    4 1
     9    3   26 1
    10    3   27 1
    11    4    9 1
    12    4    5 1
    13    4   44 1
    14    5    6 1
    15    5   28 1
    16    5   29 1
    17    6    7 1
    18    6   30 1
    19    6   31 1
    20    7    8 1
    21    7   10 1
    22    7   32 1
    23    8    9 1
    24    8   33 1
    25    8   34 1
    26    9   35 1
    27    9   36 1
    28   10   11 1
    29   10   37 1
    30   11   16 ar
    31   11   12 ar
    32   12   13 ar
    33   12   38 1
    34   13   14 ar
    35   13   39 1
    36   14   15 ar
    37   14   40 1
    38   15   20 ar
    39   15   16 ar
    40   16   17 ar
    41   17   18 ar
    42   17   41 1
    43   18   19 ar
    44   18   42 1
    45   19   20 ar
    46   20   43 1
@<TRIPOS>MOLECULE
ZINC28641173
   45    47     0     0     0
SMALL
USER_CHARGES
N-(1-propyl-4-piperidyl)isoquinolin-5-amine
@<TRIPOS>ATOM
      1 C1          9.5563    7.9997    2.4361 C.3       1 <0>        -0.1612
      2 C2          8.3021    7.1299    2.3307 C.3       1 <0>        -0.1524
      3 C3          7.7158    7.2489    0.9224 C.3       1 <0>        -0.0088
      4 N1          6.5116    6.4138    0.8212 N.4       1 <0>        -0.3998
      5 C4          6.0563    6.3135   -0.5713 C.3       1 <0>        -0.0001
      6 C5          4.7245    5.5612   -0.6210 C.3       1 <0>        -0.1544
      7 C6          4.9106    4.1638   -0.0234 C.3       1 <0>         0.1396
      8 C7          5.4320    4.2943    1.4104 C.3       1 <0>        -0.1655
      9 C8          6.7426    5.0847    1.4013 C.3       1 <0>        -0.0115
     10 N2          3.6258    3.4599   -0.0149 N.pl3     1 <0>        -0.7415
     11 C9          3.5946    2.0668   -0.0222 C.ar      1 <0>         0.2274
     12 C10         4.7689    1.3424   -0.0374 C.ar      1 <0>        -0.1591
     13 C11         4.7471   -0.0489   -0.0448 C.ar      1 <0>        -0.0386
     14 C12         3.5707   -0.7362   -0.0368 C.ar      1 <0>        -0.1213
     15 C13         2.3540   -0.0371   -0.0208 C.ar      1 <0>        -0.0635
     16 C14         2.3640    1.3816   -0.0132 C.ar      1 <0>        -0.0477
     17 C15         1.1316    2.0562    0.0023 C.ar      1 <0>        -0.0753
     18 C16        -0.0159    1.3217    0.0093 C.ar      1 <0>         0.0508
     19 N3          0.0021   -0.0041    0.0020 N.ar      1 <0>        -0.4530
     20 C17         1.1151   -0.6992   -0.0124 C.ar      1 <0>         0.2088
     21 H1          9.9778    7.9142    3.4485 H         1 <0>         0.0798
     22 H2          9.2928    9.0488    2.2360 H         1 <0>         0.0692
     23 H3         10.3000    7.6615    1.6995 H         1 <0>         0.0681
     24 H4          8.5656    6.0808    2.5308 H         1 <0>         0.0872
     25 H5          7.5584    7.4680    3.0673 H         1 <0>         0.0868
     26 H6          7.4524    8.2980    0.7224 H         1 <0>         0.1352
     27 H7          8.4595    6.9108    0.1858 H         1 <0>         0.1289
     28 H8          5.9223    7.3231   -0.9869 H         1 <0>         0.1411
     29 H9          6.8065    5.7696   -1.1641 H         1 <0>         0.1311
     30 H10         3.9701    6.1126   -0.0407 H         1 <0>         0.0978
     31 H11         4.3915    5.4737   -1.6657 H         1 <0>         0.1213
     32 H12         5.6002    3.5654   -0.6369 H         1 <0>         0.1018
     33 H13         4.6876    4.8221    2.0246 H         1 <0>         0.0963
     34 H14         5.6087    3.2925    1.8289 H         1 <0>         0.1142
     35 H15         7.4899    4.5468    0.7995 H         1 <0>         0.1298
     36 H16         7.1113    5.1935    2.4320 H         1 <0>         0.1431
     37 H17         2.6858    4.0311   -0.0028 H         1 <0>         0.4287
     38 H18         5.7160    1.8613   -0.0440 H         1 <0>         0.1403
     39 H19         5.6795   -0.5938   -0.0568 H         1 <0>         0.1507
     40 H20         3.5746   -1.8162   -0.0424 H         1 <0>         0.1551
     41 H21         1.0946    3.1356    0.0089 H         1 <0>         0.1685
     42 H22        -0.9668    1.8337    0.0166 H         1 <0>         0.2004
     43 H23         1.0787   -1.7786   -0.0175 H         1 <0>         0.2166
     44 H24         5.7124    6.8985    1.4012 H         1 <0>         0.4419
     45 H25        -0.9429   -0.5670    0.0080 H         1 <0>         0.4928
@<TRIPOS>BOND
     1    1    2 1
     2    1   21 1
     3    1   22 1
     4    1   23 1
     5    2    3 1
     6    2   24 1
     7    2   25 1
     8    3    4 1
     9    3   26 1
    10    3   27 1
    11    4    9 1
    12    4    5 1
    13    4   44 1
    14    5    6 1
    15    5   28 1
    16    5   29 1
    17    6    7 1
    18    6   30 1
    19    6   31 1
    20    7    8 1
    21    7   10 1
    22    7   32 1
    23    8    9 1
    24    8   33 1
    25    8   34 1
    26    9   35 1
    27    9   36 1
    28   10   11 1
    29   10   37 1
    30   11   16 ar
    31   11   12 ar
    32   12   13 ar
    33   12   38 1
    34   13   14 ar
    35   13   39 1
    36   14   15 ar
    37   14   40 1
    38   15   20 ar
    39   15   16 ar
    40   16   17 ar
    41   17   18 ar
    42   17   41 1
    43   18   19 ar
    44   18   42 1
    45   19   20 ar
    46   19   45 1
    47   20   43 1
@<TRIPOS>MOLECULE
ZINC23549779
   46    49     0     0     0
SMALL
USER_CHARGES
N-(1-benzyl-4-piperidyl)-1H-indazol-5-amine
@<TRIPOS>ATOM
      1 C1         -5.9149    2.1458    3.8994 C.ar      1 <0>        -0.0849
      2 C2         -5.9099    3.1178    2.9166 C.ar      1 <0>        -0.1132
      3 C3         -5.3819    2.8377    1.6701 C.ar      1 <0>        -0.0947
      4 C4         -4.8591    1.5855    1.4064 C.ar      1 <0>        -0.1585
      5 C5         -4.8692    0.6117    2.3875 C.ar      1 <0>        -0.0972
      6 C6         -5.3921    0.8935    3.6357 C.ar      1 <0>        -0.1142
      7 C7         -4.2838    1.2801    0.0475 C.3       1 <0>         0.0464
      8 N1         -2.8523    1.6097    0.0364 N.4       1 <0>        -0.3966
      9 C8         -2.2065    1.1092   -1.1838 C.3       1 <0>         0.0011
     10 C9         -0.7558    1.5943   -1.2305 C.3       1 <0>        -0.1529
     11 C10        -0.0127    1.0858    0.0080 C.3       1 <0>         0.1496
     12 C11        -0.7320    1.5809    1.2658 C.3       1 <0>        -0.1640
     13 C12        -2.1847    1.0962    1.2393 C.3       1 <0>        -0.0079
     14 N2          1.3612    1.5941   -0.0024 N.pl3     1 <0>        -0.7611
     15 C13         2.3685    0.9021    0.6795 C.ar      1 <0>         0.1684
     16 C14         2.0604   -0.2719    1.3682 C.ar      1 <0>        -0.1381
     17 C15         3.0283   -0.9622    2.0387 C.ar      1 <0>        -0.0963
     18 C16         4.3414   -0.4979    2.0427 C.ar      1 <0>         0.0794
     19 C17         4.6636    0.6854    1.3517 C.ar      1 <0>        -0.1356
     20 C18         3.6631    1.3810    0.6627 C.ar      1 <0>        -0.1177
     21 C19         6.0941    0.8984    1.5462 C.2       1 <0>         0.0568
     22 N3          6.5457   -0.0768    2.2821 N.2       1 <0>        -0.2248
     23 N4          5.5061   -0.9537    2.6082 N.pl3     1 <0>        -0.5191
     24 H1          5.5028   -1.8775    3.2053 H         1 <0>         0.4705
     25 H2         -6.3268    2.3648    4.8735 H         1 <0>         0.1355
     26 H3         -6.3183    4.0961    3.1226 H         1 <0>         0.1358
     27 H4         -5.3780    3.5972    0.9023 H         1 <0>         0.1311
     28 H5         -4.4648   -0.3680    2.1801 H         1 <0>         0.1295
     29 H6         -5.3957    0.1342    4.4037 H         1 <0>         0.1356
     30 H7         -4.4156    0.2108   -0.1746 H         1 <0>         0.1328
     31 H8         -4.8040    1.8796   -0.7141 H         1 <0>         0.1381
     32 H9         -2.2250    0.0094   -1.1837 H         1 <0>         0.1284
     33 H10        -2.7468    1.4849   -2.0652 H         1 <0>         0.1359
     34 H11        -0.2686    1.2068   -2.1374 H         1 <0>         0.1185
     35 H12        -0.7372    2.6940   -1.2457 H         1 <0>         0.0941
     36 H13         0.0516   -0.0123    0.0015 H         1 <0>         0.0912
     37 H14        -0.2264    1.1829    2.1580 H         1 <0>         0.1121
     38 H15        -0.7102    2.6804    1.2919 H         1 <0>         0.0910
     39 H16        -2.7090    1.4625    2.1342 H         1 <0>         0.1353
     40 H17        -2.2034   -0.0036    1.2278 H         1 <0>         0.1245
     41 H18         1.6011    2.5197   -0.5462 H         1 <0>         0.4220
     42 H19         1.0445   -0.6386    1.3704 H         1 <0>         0.1218
     43 H20         2.7756   -1.8695    2.5672 H         1 <0>         0.1270
     44 H21         3.9014    2.2873    0.1257 H         1 <0>         0.1270
     45 H22         6.6748    1.7186    1.1506 H         1 <0>         0.1974
     46 H23        -2.7560    2.7055    0.0415 H         1 <0>         0.4399
@<TRIPOS>BOND
     1    1    6 ar
     2    1    2 ar
     3    1   25 1
     4    2    3 ar
     5    2   26 1
     6    3    4 ar
     7    3   27 1
     8    4    5 ar
     9    4    7 1
    10    5    6 ar
    11    5   28 1
    12    6   29 1
    13    7    8 1
    14    7   30 1
    15    7   31 1
    16    8   13 1
    17    8    9 1
    18    8   46 1
    19    9   10 1
    20    9   32 1
    21    9   33 1
    22   10   11 1
    23   10   34 1
    24   10   35 1
    25   11   12 1
    26   11   14 1
    27   11   36 1
    28   12   13 1
    29   12   37 1
    30   12   38 1
    31   13   39 1
    32   13   40 1
    33   14   15 1
    34   14   41 1
    35   15   20 ar
    36   15   16 ar
    37   16   17 ar
    38   16   42 1
    39   17   18 ar
    40   17   43 1
    41   18   23 1
    42   18   19 ar
    43   19   20 ar
    44   19   21 1
    45   20   44 1
    46   21   22 2
    47   21   45 1
    48   22   23 1
    49   23   24 1
@<TRIPOS>MOLECULE
ZINC00206684
   28    30     0     0     0
SMALL
USER_CHARGES
4-(1-ethylbenzimidazol-2-yl)-1,2,5-oxadiazol-3-amine
@<TRIPOS>ATOM
      1 C1         -4.1971    3.7307   -1.3824 C.3       1 <0>        -0.1665
      2 C2         -3.6824    3.8144    0.0560 C.3       1 <0>         0.1005
      3 N1         -2.2413    4.0776    0.0444 N.pl3     1 <0>        -0.4688
      4 C3         -1.2361    3.1321    0.0298 C.ar      1 <0>         0.0595
      5 C4         -1.2185    1.7438    0.0173 C.ar      1 <0>        -0.1102
      6 C5         -0.0126    1.0758    0.0080 C.ar      1 <0>        -0.0927
      7 C6          1.1830    1.7812    0.0003 C.ar      1 <0>        -0.1249
      8 C7          1.1866    3.1467    0.0072 C.ar      1 <0>        -0.0590
      9 C8         -0.0247    3.8471    0.0220 C.ar      1 <0>         0.0501
     10 N2         -0.3380    5.1645    0.0320 N.2       1 <0>        -0.4687
     11 C9         -1.6401    5.3074    0.0452 C.2       1 <0>         0.3546
     12 C10        -2.3539    6.6034    0.0594 C.2       1 <0>         0.0214
     13 C11        -1.7891    7.9732    0.0674 C.2       1 <0>         0.3227
     14 N3         -2.8650    8.7249    0.0766 N.2       1 <0>        -0.4105
     15 O1         -3.8479    8.0221    0.0826 O.3       1 <0>         0.3361
     16 N4         -3.6501    6.8298    0.0738 N.2       1 <0>        -0.3221
     17 N5         -0.4565    8.3635    0.0635 N.pl3     1 <0>        -0.8002
     18 H1         -5.2694    3.5348   -1.3738 H         1 <0>         0.0827
     19 H2         -4.0042    4.6743   -1.8928 H         1 <0>         0.0621
     20 H3         -3.6845    2.9233   -1.9053 H         1 <0>         0.0626
     21 H4         -3.8753    2.8708    0.5664 H         1 <0>         0.0950
     22 H5         -4.1950    4.6218    0.5789 H         1 <0>         0.1036
     23 H6         -2.1454    1.1896    0.0190 H         1 <0>         0.1250
     24 H7          0.0021   -0.0041    0.0020 H         1 <0>         0.1338
     25 H8          2.1201    1.2444   -0.0115 H         1 <0>         0.1334
     26 H9          2.1228    3.6852    0.0015 H         1 <0>         0.1330
     27 H10         0.2451    7.6937    0.0544 H         1 <0>         0.4301
     28 H11        -0.2271    9.3060    0.0698 H         1 <0>         0.4175
@<TRIPOS>BOND
     1    1    2 1
     2    1   18 1
     3    1   19 1
     4    1   20 1
     5    2    3 1
     6    2   21 1
     7    2   22 1
     8    3   11 1
     9    3    4 1
    10    4    9 ar
    11    4    5 ar
    12    5    6 ar
    13    5   23 1
    14    6    7 ar
    15    6   24 1
    16    7    8 ar
    17    7   25 1
    18    8    9 ar
    19    8   26 1
    20    9   10 1
    21   10   11 2
    22   11   12 1
    23   12   16 2
    24   12   13 1
    25   13   14 2
    26   13   17 1
    27   14   15 1
    28   15   16 1
    29   17   27 1
    30   17   28 1
@<TRIPOS>MOLECULE
ZINC14954389
   47    50     0     0     0
SMALL
USER_CHARGES
(4R)-N-(6-fluoro-1H-indazol-5-yl)-2-methyl-6-oxo-4-[4-(trifluoromethyl)phenyl]-4,5-dihydro-1H-pyridine-3-carboxamide
@<TRIPOS>ATOM
      1 C1         -6.1576   -1.4802   -0.0456 C.3       1 <0>        -0.1208
      2 C2         -7.1400   -0.3418   -0.1450 C.2       1 <0>         0.2443
      3 C3         -6.6902    0.9248   -0.1449 C.2       1 <0>        -0.2789
      4 C4         -7.6575    2.0760   -0.2381 C.3       1 <0>         0.0015
      5 H1         -7.2196    2.9576    0.2300 H         1 <0>         0.1029
      6 C5         -8.9568    1.7117    0.4758 C.3       1 <0>        -0.1355
      7 C6         -9.3957    0.3346    0.0506 C.2       1 <0>         0.5220
      8 O1        -10.5775    0.0775   -0.0354 O.2       1 <0>        -0.4980
      9 N1         -8.4818   -0.6113   -0.2348 N.am      1 <0>        -0.6611
     10 C7         -7.9515    2.3695   -1.6867 C.ar      1 <0>        -0.0505
     11 C8         -8.5093    1.3928   -2.4904 C.ar      1 <0>        -0.1192
     12 C9         -8.7826    1.6632   -3.8182 C.ar      1 <0>        -0.0621
     13 C10        -8.4905    2.9077   -4.3444 C.ar      1 <0>        -0.1808
     14 C11        -7.9279    3.8827   -3.5421 C.ar      1 <0>        -0.0629
     15 C12        -7.6582    3.6135   -2.2133 C.ar      1 <0>        -0.1120
     16 C13        -8.7850    3.2013   -5.7929 C.3       1 <0>         0.5074
     17 F1         -7.6714    2.8691   -6.5718 F         1 <0>        -0.1751
     18 F2         -9.8865    2.4449   -6.2074 F         1 <0>        -0.1760
     19 F3         -9.0706    4.5625   -5.9441 F         1 <0>        -0.1758
     20 C14        -5.2990    1.1789   -0.0508 C.2       1 <0>         0.5792
     21 O2         -4.5087    0.2527   -0.0648 O.2       1 <0>        -0.5259
     22 N2         -4.8508    2.4456    0.0542 N.am      1 <0>        -0.6637
     23 C15        -3.4740    2.7061    0.0299 C.ar      1 <0>         0.0803
     24 C16        -2.6185    1.8196   -0.5913 C.ar      1 <0>        -0.0206
     25 C17        -1.2450    2.0868   -0.6183 C.ar      1 <0>        -0.1695
     26 C18        -0.0891    1.3839   -1.1665 C.2       1 <0>         0.0846
     27 N3          0.9717    2.0886   -0.8942 N.2       1 <0>        -0.2423
     28 N4          0.6150    3.2387   -0.1828 N.pl3     1 <0>        -0.5096
     29 H2          1.2494    3.9401    0.1421 H         1 <0>         0.4489
     30 C19        -0.7452    3.2500   -0.0023 C.ar      1 <0>         0.1392
     31 C20        -1.6246    4.1327    0.6202 C.ar      1 <0>        -0.1619
     32 C21        -2.9743    3.8621    0.6353 C.ar      1 <0>         0.1266
     33 F4         -3.8230    4.7218    1.2401 F         1 <0>        -0.1308
     34 H3         -5.5370   -1.3482    0.8407 H         1 <0>         0.1073
     35 H4         -6.6999   -2.4228    0.0276 H         1 <0>         0.0644
     36 H5         -5.5252   -1.4928   -0.9334 H         1 <0>         0.1049
     37 H6         -9.7302    2.4354    0.2184 H         1 <0>         0.1193
     38 H7         -8.7914    1.7241    1.5531 H         1 <0>         0.1177
     39 H8         -8.7758   -1.4946   -0.5077 H         1 <0>         0.4187
     40 H9         -8.7343    0.4194   -2.0801 H         1 <0>         0.1297
     41 H10        -9.2218    0.9014   -4.4451 H         1 <0>         0.1370
     42 H11        -7.6994    4.8548   -3.9533 H         1 <0>         0.1396
     43 H12        -7.2186    4.3752   -1.5864 H         1 <0>         0.1374
     44 H13        -5.4812    3.1770    0.1466 H         1 <0>         0.4100
     45 H14        -3.0072    0.9268   -1.0585 H         1 <0>         0.1647
     46 H15        -0.1103    0.4485   -1.7059 H         1 <0>         0.2013
     47 H16        -1.2478    5.0289    1.0905 H         1 <0>         0.1443
@<TRIPOS>BOND
     1    1    2 1
     2    1   34 1
     3    1   35 1
     4    1   36 1
     5    2    9 1
     6    2    3 2
     7    3    4 1
     8    3   20 1
     9    4    5 1
    10    4    6 1
    11    4   10 1
    12    6    7 1
    13    6   37 1
    14    6   38 1
    15    7    8 2
    16    7    9 am
    17    9   39 1
    18   10   15 ar
    19   10   11 ar
    20   11   12 ar
    21   11   40 1
    22   12   13 ar
    23   12   41 1
    24   13   14 ar
    25   13   16 1
    26   14   15 ar
    27   14   42 1
    28   15   43 1
    29   16   17 1
    30   16   18 1
    31   16   19 1
    32   20   21 2
    33   20   22 am
    34   22   23 1
    35   22   44 1
    36   23   32 ar
    37   23   24 ar
    38   24   25 ar
    39   24   45 1
    40   25   30 ar
    41   25   26 1
    42   26   27 2
    43   26   46 1
    44   27   28 1
    45   28   29 1
    46   28   30 1
    47   30   31 ar
    48   31   32 ar
    49   31   47 1
    50   32   33 1
@<TRIPOS>MOLECULE
ZINC14954393
   47    50     0     0     0
SMALL
USER_CHARGES
(4S)-N-(6-fluoro-1H-indazol-5-yl)-2-methyl-6-oxo-4-[4-(trifluoromethyl)phenyl]-4,5-dihydro-1H-pyridine-3-carboxamide
@<TRIPOS>ATOM
      1 C1         -2.5240   -0.2518    0.0270 C.3       1 <0>        -0.1397
      2 C2         -2.4903    1.2495   -0.0997 C.2       1 <0>         0.2455
      3 C3         -1.3076    1.8882   -0.1081 C.2       1 <0>        -0.2791
      4 C4         -1.2542    3.3891   -0.2274 C.3       1 <0>         0.0018
      5 H1         -0.3021    3.6851   -0.6679 H         1 <0>         0.1028
      6 C5         -2.4027    3.8657   -1.1245 C.3       1 <0>        -0.1349
      7 C6         -3.6832    3.2025   -0.6879 C.2       1 <0>         0.5216
      8 O1         -4.7331    3.8031   -0.7722 O.2       1 <0>        -0.4987
      9 N1         -3.6667    1.9467   -0.2044 N.am      1 <0>        -0.6617
     10 C7         -1.3892    4.0071    1.1404 C.ar      1 <0>        -0.0510
     11 C8         -2.5252    3.7770    1.8938 C.ar      1 <0>        -0.1197
     12 C9         -2.6471    4.3404    3.1502 C.ar      1 <0>        -0.0627
     13 C10        -1.6370    5.1411    3.6496 C.ar      1 <0>        -0.1809
     14 C11        -0.5033    5.3754    2.8941 C.ar      1 <0>        -0.0628
     15 C12        -0.3795    4.8086    1.6395 C.ar      1 <0>        -0.1108
     16 C13        -1.7715    5.7583    5.0179 C.3       1 <0>         0.5076
     17 F1         -2.3884    7.0090    4.9067 F         1 <0>        -0.1751
     18 F2         -2.5484    4.9258    5.8306 F         1 <0>        -0.1763
     19 F3         -0.5027    5.9131    5.5864 F         1 <0>        -0.1757
     20 C14        -0.1049    1.1464    0.0016 C.2       1 <0>         0.5796
     21 O2         -0.1458   -0.0509    0.2190 O.2       1 <0>        -0.5256
     22 N2          1.0839    1.7653   -0.1403 N.am      1 <0>        -0.6644
     23 C15         2.2735    1.0348   -0.0163 C.ar      1 <0>         0.0757
     24 C16         2.3085   -0.2902   -0.3993 C.ar      1 <0>        -0.0121
     25 C17         3.4999   -1.0144   -0.2780 C.ar      1 <0>        -0.1725
     26 C18         3.8819   -2.3901   -0.5820 C.2       1 <0>         0.0852
     27 N3          5.1362   -2.5349   -0.2627 N.2       1 <0>        -0.2426
     28 N4          5.6443   -1.3352    0.2458 N.pl3     1 <0>        -0.5094
     29 H2          6.5821   -1.1895    0.5610 H         1 <0>         0.4491
     30 C19         4.6494   -0.3902    0.2427 C.ar      1 <0>         0.1424
     31 C20         4.5930    0.9468    0.6288 C.ar      1 <0>        -0.1644
     32 C21         3.4167    1.6504    0.5000 C.ar      1 <0>         0.1316
     33 F4          3.3672    2.9469    0.8764 F         1 <0>        -0.1298
     34 H3         -2.4646   -0.5291    1.0795 H         1 <0>         0.0970
     35 H4         -3.4537   -0.6314   -0.3968 H         1 <0>         0.0668
     36 H5         -1.6781   -0.6809   -0.5101 H         1 <0>         0.1274
     37 H6         -2.1922    3.6027   -2.1612 H         1 <0>         0.1183
     38 H7         -2.5055    4.9474   -1.0375 H         1 <0>         0.1187
     39 H8         -4.4972    1.5293    0.0732 H         1 <0>         0.4187
     40 H9         -3.3159    3.1544    1.5021 H         1 <0>         0.1297
     41 H10        -3.5326    4.1570    3.7406 H         1 <0>         0.1368
     42 H11         0.2858    6.0011    3.2843 H         1 <0>         0.1398
     43 H12         0.5062    4.9916    1.0492 H         1 <0>         0.1380
     44 H13         1.1161    2.7164   -0.3283 H         1 <0>         0.4096
     45 H14         1.4223   -0.7649   -0.7939 H         1 <0>         0.1602
     46 H15         3.2390   -3.1520   -0.9973 H         1 <0>         0.2016
     47 H16         5.4713    1.4311    1.0293 H         1 <0>         0.1444
@<TRIPOS>BOND
     1    1    2 1
     2    1   34 1
     3    1   35 1
     4    1   36 1
     5    2    9 1
     6    2    3 2
     7    3    4 1
     8    3   20 1
     9    4    5 1
    10    4    6 1
    11    4   10 1
    12    6    7 1
    13    6   37 1
    14    6   38 1
    15    7    8 2
    16    7    9 am
    17    9   39 1
    18   10   15 ar
    19   10   11 ar
    20   11   12 ar
    21   11   40 1
    22   12   13 ar
    23   12   41 1
    24   13   14 ar
    25   13   16 1
    26   14   15 ar
    27   14   42 1
    28   15   43 1
    29   16   17 1
    30   16   18 1
    31   16   19 1
    32   20   21 2
    33   20   22 am
    34   22   23 1
    35   22   44 1
    36   23   32 ar
    37   23   24 ar
    38   24   25 ar
    39   24   45 1
    40   25   30 ar
    41   25   26 1
    42   26   27 2
    43   26   46 1
    44   27   28 1
    45   28   29 1
    46   28   30 1
    47   30   31 ar
    48   31   32 ar
    49   31   47 1
    50   32   33 1
@<TRIPOS>MOLECULE
ZINC16052569
   50    53     0     0     0
SMALL
USER_CHARGES

@<TRIPOS>ATOM
      1 C1         -0.0184    1.5028    0.0103 C.3       1 <0>        -0.0807
      2 C2          0.0021   -0.0041    0.0020 C.2       1 <0>         0.1088
      3 C3          0.0083   -0.8581   -1.1820 C.ar      1 <0>        -0.1763
      4 C4         -0.0019   -0.6082   -2.5573 C.ar      1 <0>        -0.0083
      5 C5          0.0079   -1.6738   -3.4431 C.ar      1 <0>        -0.1061
      6 C6          0.0279   -2.9891   -2.9631 C.ar      1 <0>        -0.0534
      7 C7          0.0380   -3.2410   -1.6234 C.ar      1 <0>        -0.1371
      8 C8          0.0285   -2.1860   -0.7124 C.ar      1 <0>         0.1440
      9 N1          0.0337   -2.1193    0.6566 N.pl3     1 <0>        -0.5045
     10 H1          0.0468   -2.8812    1.2569 H         1 <0>         0.4444
     11 N2          0.0230   -0.7772    1.0497 N.2       1 <0>        -0.2435
     12 C9         -0.0034   -1.4202   -4.9053 C.ar      1 <0>        -0.0271
     13 C10         0.0004   -2.4846   -5.8096 C.ar      1 <0>        -0.1014
     14 C11        -0.0110   -2.1940   -7.1677 C.ar      1 <0>         0.0698
     15 C12        -0.0257   -0.8671   -7.5756 C.ar      1 <0>         0.0161
     16 N3         -0.0289    0.1132   -6.6940 N.ar      1 <0>        -0.4368
     17 C13        -0.0238   -0.1167   -5.3969 C.ar      1 <0>         0.0812
     18 O1         -0.0074   -3.1961   -8.0859 O.3       1 <0>        -0.3231
     19 C14        -0.0198   -2.8144   -9.4629 C.3       1 <0>         0.0274
     20 C15        -0.0136   -4.0682  -10.3397 C.3       1 <0>         0.0437
     21 H2          0.8359   -4.6958  -10.0703 H         1 <0>         0.1553
     22 C16         0.0989   -3.6615  -11.8104 C.3       1 <0>        -0.0972
     23 C17         0.2286   -4.8962  -12.6646 C.ar      1 <0>        -0.1303
     24 C18         1.4792   -5.4136  -12.9461 C.ar      1 <0>        -0.1030
     25 C19         1.5982   -6.5462  -13.7296 C.ar      1 <0>        -0.1053
     26 C20         0.4666   -7.1617  -14.2312 C.ar      1 <0>        -0.1014
     27 C21        -0.7840   -6.6448  -13.9490 C.ar      1 <0>        -0.1075
     28 C22        -0.9032   -5.5147  -13.1619 C.ar      1 <0>        -0.1401
     29 N4         -1.2605   -4.8167  -10.1327 N.4       1 <0>        -0.6365
     30 H3          1.0042    1.8801    0.0026 H         1 <0>         0.0878
     31 H4         -0.5455    1.8639   -0.8728 H         1 <0>         0.0842
     32 H5         -0.5286    1.8543    0.9071 H         1 <0>         0.0843
     33 H6         -0.0177    0.4067   -2.9264 H         1 <0>         0.1366
     34 H7          0.0350   -3.8127   -3.6617 H         1 <0>         0.1316
     35 H8          0.0531   -4.2604   -1.2670 H         1 <0>         0.1332
     36 H9          0.0123   -3.5071   -5.4619 H         1 <0>         0.1476
     37 H10        -0.0343   -0.6345   -8.6302 H         1 <0>         0.1565
     38 H11        -0.0314    0.7142   -4.7071 H         1 <0>         0.1670
     39 H12        -0.9167   -2.2306   -9.6700 H         1 <0>         0.0927
     40 H13         0.8631   -2.2138   -9.6814 H         1 <0>         0.1143
     41 H14        -0.7936   -3.1088  -12.1038 H         1 <0>         0.1038
     42 H15         0.9777   -3.0313  -11.9469 H         1 <0>         0.1255
     43 H16         2.3632   -4.9328  -12.5542 H         1 <0>         0.1308
     44 H17         2.5752   -6.9501  -13.9502 H         1 <0>         0.1335
     45 H18         0.5596   -8.0462  -14.8440 H         1 <0>         0.1330
     46 H19        -1.6681   -7.1255  -14.3411 H         1 <0>         0.1326
     47 H20        -1.8805   -5.1130  -12.9382 H         1 <0>         0.1228
     48 H21        -1.2564   -5.6436  -10.7110 H         1 <0>         0.4365
     49 H22        -1.3347   -5.0850   -9.1628 H         1 <0>         0.4422
     50 H23        -2.0469   -4.2358  -10.3821 H         1 <0>         0.4324
@<TRIPOS>BOND
     1    1    2 1
     2    1   30 1
     3    1   31 1
     4    1   32 1
     5    2   11 2
     6    2    3 1
     7    3    8 ar
     8    3    4 ar
     9    4    5 ar
    10    4   33 1
    11    5    6 ar
    12    5   12 1
    13    6    7 ar
    14    6   34 1
    15    7    8 ar
    16    7   35 1
    17    8    9 1
    18    9   10 1
    19    9   11 1
    20   12   17 ar
    21   12   13 ar
    22   13   14 ar
    23   13   36 1
    24   14   15 ar
    25   14   18 1
    26   15   16 ar
    27   15   37 1
    28   16   17 ar
    29   17   38 1
    30   18   19 1
    31   19   20 1
    32   19   39 1
    33   19   40 1
    34   20   21 1
    35   20   22 1
    36   20   29 1
    37   22   23 1
    38   22   41 1
    39   22   42 1
    40   23   28 ar
    41   23   24 ar
    42   24   25 ar
    43   24   43 1
    44   25   26 ar
    45   25   44 1
    46   26   27 ar
    47   26   45 1
    48   27   28 ar
    49   27   46 1
    50   28   47 1
    51   29   48 1
    52   29   49 1
    53   29   50 1
@<TRIPOS>MOLECULE
ZINC00006486
   38    40     0     0     0
SMALL
USER_CHARGES

@<TRIPOS>ATOM
      1 C1          1.9298    1.3878   -0.9612 C.ar      1 <0>        -0.1576
      2 C2          1.2945    2.1069    0.0055 C.ar      1 <0>        -0.0072
      3 C3          0.5887    1.4353    1.0155 C.ar      1 <0>        -0.1351
      4 C4         -0.0859    2.1226    2.0377 C.ar      1 <0>         0.1714
      5 N1         -0.7330    1.4506    2.9607 N.ar      1 <0>        -0.4845
      6 C5         -0.7853    0.1257    2.9804 C.ar      1 <0>         0.1226
      7 C6         -0.1649   -0.6326    2.0348 C.ar      1 <0>        -0.1974
      8 C7          0.5498    0.0164    1.0112 C.ar      1 <0>         0.0591
      9 C8          1.2155   -0.6907    0.0002 C.ar      1 <0>        -0.6812
     10 C9          1.8908   -0.0050   -0.9643 C.ar      1 <0>         0.0183
     11 S1          1.1797   -2.4522   -0.0228 S.o2      1 <0>         2.6894
     12 O1          2.1558   -2.8904    0.9123 O.2       1 <0>        -0.9370
     13 O2         -0.1866   -2.8318    0.0679 O.2       1 <0>        -0.9323
     14 N2          1.7064   -2.9332   -1.5173 N.pl3     1 <0>        -1.0124
     15 C10         0.7868   -3.0345   -2.6189 C.3       1 <0>         0.0909
     16 C11         0.1192   -4.4141   -2.8245 C.3       1 <0>        -0.1667
     17 C12         1.1568   -5.5430   -2.6198 C.3       1 <0>        -0.0238
     18 N3          2.4281   -5.1459   -3.1775 N.4       1 <0>        -0.4914
     19 C13         3.2116   -4.7126   -2.0246 C.3       1 <0>        -0.0360
     20 C14         3.1534   -3.2648   -1.7465 C.3       1 <0>         0.0902
     21 H1          2.4689    1.9057   -1.7406 H         1 <0>         0.1429
     22 H2          1.3340    3.1862   -0.0051 H         1 <0>         0.1499
     23 H3         -0.0718    3.2022    2.0643 H         1 <0>         0.1757
     24 H4         -1.3354   -0.3659    3.7691 H         1 <0>         0.1673
     25 H5         -0.2201   -1.7107    2.0699 H         1 <0>         0.1385
     26 H6          2.4035   -0.5495   -1.7435 H         1 <0>         0.1345
     27 H7         -0.0004   -2.2948   -2.4732 H         1 <0>         0.1069
     28 H8          1.3221   -2.7769   -3.5328 H         1 <0>         0.0865
     29 H9         -0.6916   -4.5338   -2.1059 H         1 <0>         0.1214
     30 H10        -0.2846   -4.4731   -3.8352 H         1 <0>         0.1121
     31 H11         1.2739   -5.7387   -1.5540 H         1 <0>         0.1320
     32 H12         0.8098   -6.4486   -3.1175 H         1 <0>         0.1373
     33 H13         2.8736   -5.9290   -3.6319 H         1 <0>         0.4400
     34 H14         2.8551   -5.2487   -1.1450 H         1 <0>         0.1397
     35 H15         4.2526   -4.9884   -2.1925 H         1 <0>         0.1457
     36 H16         3.5339   -2.7035   -2.5999 H         1 <0>         0.1123
     37 H17         3.7354   -3.0302   -0.8552 H         1 <0>         0.1481
     38 H18         2.3053   -4.3833   -3.8267 H         1 <0>         0.4297
@<TRIPOS>BOND
     1    1   10 ar
     2    1    2 ar
     3    1   21 1
     4    2    3 ar
     5    2   22 1
     6    3    8 ar
     7    3    4 ar
     8    4    5 ar
     9    4   23 1
    10    5    6 ar
    11    6    7 ar
    12    6   24 1
    13    7    8 ar
    14    7   25 1
    15    8    9 ar
    16    9   10 ar
    17    9   11 1
    18   10   26 1
    19   11   12 2
    20   11   13 2
    21   11   14 1
    22   14   20 1
    23   14   15 1
    24   15   16 1
    25   15   27 1
    26   15   28 1
    27   16   17 1
    28   16   29 1
    29   16   30 1
    30   17   18 1
    31   17   31 1
    32   17   32 1
    33   18   19 1
    34   18   33 1
    35   18   38 1
    36   19   20 1
    37   19   34 1
    38   19   35 1
    39   20   36 1
    40   20   37 1
@<TRIPOS>MOLECULE
ZINC34285211
   59    62     0     0     0
SMALL
USER_CHARGES

@<TRIPOS>ATOM
      1 C1         -0.0187    1.5258    0.0104 C.3       1 <0>        -0.1656
      2 C2          0.0021   -0.0041    0.0020 C.3       1 <0>         0.0991
      3 N1          0.6878   -0.4765   -1.2033 N.pl3     1 <0>        -0.4455
      4 C3          0.1084   -0.7452   -2.4220 C.ar      1 <0>         0.0734
      5 C4         -1.1885   -0.6848   -2.9333 C.ar      1 <0>         0.0979
      6 C5         -1.4068   -1.0423   -4.2530 C.ar      1 <0>         0.0255
      7 N2         -0.4156   -1.4373   -5.0310 N.ar      1 <0>        -0.4288
      8 C6          0.8360   -1.5144   -4.6003 C.ar      1 <0>         0.2963
      9 C7          1.1491   -1.1685   -3.2692 C.ar      1 <0>         0.0642
     10 N3          2.2847   -1.1401   -2.5504 N.2       1 <0>        -0.4358
     11 C8          2.0279   -0.7287   -1.3319 C.2       1 <0>         0.3425
     12 C9          3.0324   -0.5655   -0.2583 C.2       1 <0>         0.1311
     13 C10         4.4724   -0.8253   -0.3802 C.2       1 <0>         0.3646
     14 N4          5.0335   -0.5707    0.7697 N.2       1 <0>        -0.3434
     15 O1          4.0212   -0.1472    1.6654 O.3       1 <0>         0.0494
     16 N5          2.7917   -0.1594    0.9619 N.2       1 <0>        -0.2485
     17 N6          5.1251   -1.2670   -1.5235 N.pl3     1 <0>        -0.7999
     18 C11         1.8718   -1.9500   -5.4881 C.1       1 <0>        -0.1208
     19 C12         2.7209   -2.3071   -6.2159 C.1       1 <0>        -0.0802
     20 C13         3.7856   -2.7549   -7.1284 C.3       1 <0>         0.2403
     21 C14         5.1250   -2.7540   -6.3888 C.3       1 <0>        -0.1769
     22 C15         3.4749   -4.1704   -7.6190 C.3       1 <0>        -0.1771
     23 O2          3.8585   -1.8683   -8.2468 O.3       1 <0>        -0.5533
     24 O3         -2.2219   -0.2814   -2.1476 O.3       1 <0>        -0.3053
     25 C16        -3.5183   -0.2475   -2.7478 C.3       1 <0>         0.0602
     26 C17        -4.5450    0.2275   -1.7176 C.3       1 <0>        -0.1100
     27 H1         -4.4926   -0.4065   -0.8325 H         1 <0>         0.1080
     28 C18        -4.2441    1.6772   -1.3267 C.3       1 <0>        -0.1348
     29 C19        -5.3219    2.1680   -0.3558 C.3       1 <0>        -0.1475
     30 C20        -6.6969    2.0173   -1.0100 C.3       1 <0>        -0.0100
     31 N7         -6.9357    0.6061   -1.3358 N.4       1 <0>        -0.5023
     32 C21        -5.9489    0.1476   -2.3210 C.3       1 <0>        -0.0035
     33 H2          1.0039    1.9031    0.0027 H         1 <0>         0.0658
     34 H3         -0.5459    1.8868   -0.8726 H         1 <0>         0.0628
     35 H4         -0.5289    1.8773    0.9072 H         1 <0>         0.0853
     36 H5          0.5293   -0.3651    0.8851 H         1 <0>         0.1095
     37 H6         -1.0205   -0.3814    0.0098 H         1 <0>         0.1024
     38 H7         -2.4085   -0.9976   -4.6543 H         1 <0>         0.1718
     39 H8          4.6220   -1.4309   -2.3365 H         1 <0>         0.4312
     40 H9          6.0842   -1.4116   -1.5092 H         1 <0>         0.4212
     41 H10         5.0694   -3.4303   -5.5357 H         1 <0>         0.0725
     42 H11         5.9134   -3.0856   -7.0645 H         1 <0>         0.0747
     43 H12         5.3464   -1.7456   -6.0392 H         1 <0>         0.0708
     44 H13         2.5207   -4.1710   -8.1459 H         1 <0>         0.0706
     45 H14         4.2633   -4.5020   -8.2948 H         1 <0>         0.0744
     46 H15         3.4193   -4.8466   -6.7660 H         1 <0>         0.0730
     47 H16         4.5403   -2.1031   -8.8910 H         1 <0>         0.3893
     48 H17        -3.5089    0.4388   -3.5945 H         1 <0>         0.0809
     49 H18        -3.7852   -1.2465   -3.0928 H         1 <0>         0.0809
     50 H19        -3.2679    1.7296   -0.8445 H         1 <0>         0.1002
     51 H20        -4.2451    2.3031   -2.2191 H         1 <0>         0.0849
     52 H21        -5.2864    1.5744    0.5577 H         1 <0>         0.0898
     53 H22        -5.1458    3.2167   -0.1163 H         1 <0>         0.1153
     54 H23        -7.4666    2.3660   -0.3215 H         1 <0>         0.1359
     55 H24        -6.7314    2.6114   -1.9232 H         1 <0>         0.1322
     56 H25        -6.8551    0.0502   -0.4977 H         1 <0>         0.4295
     57 H26        -5.9999    0.7811   -3.2066 H         1 <0>         0.1367
     58 H27        -6.1659   -0.8835   -2.6000 H         1 <0>         0.1389
     59 H28        -7.8638    0.5026   -1.7178 H         1 <0>         0.4360
@<TRIPOS>BOND
     1    1    2 1
     2    1   33 1
     3    1   34 1
     4    1   35 1
     5    2    3 1
     6    2   36 1
     7    2   37 1
     8    3   11 1
     9    3    4 1
    10    4    9 ar
    11    4    5 ar
    12    5    6 ar
    13    5   24 1
    14    6    7 ar
    15    6   38 1
    16    7    8 ar
    17    8    9 ar
    18    8   18 1
    19    9   10 1
    20   10   11 2
    21   11   12 1
    22   12   16 2
    23   12   13 1
    24   13   14 2
    25   13   17 1
    26   14   15 1
    27   15   16 1
    28   17   39 1
    29   17   40 1
    30   18   19 3
    31   19   20 1
    32   20   21 1
    33   20   22 1
    34   20   23 1
    35   21   41 1
    36   21   42 1
    37   21   43 1
    38   22   44 1
    39   22   45 1
    40   22   46 1
    41   23   47 1
    42   24   25 1
    43   25   26 1
    44   25   48 1
    45   25   49 1
    46   26   27 1
    47   26   32 1
    48   26   28 1
    49   28   29 1
    50   28   50 1
    51   28   51 1
    52   29   30 1
    53   29   52 1
    54   29   53 1
    55   30   31 1
    56   30   54 1
    57   30   55 1
    58   31   32 1
    59   31   56 1
    60   31   59 1
    61   32   57 1
    62   32   58 1
@<TRIPOS>MOLECULE
ZINC40414458
   55    58     0     0     0
SMALL
USER_CHARGES

@<TRIPOS>ATOM
      1 C1         -0.0451    1.4831   -0.0021 C.3       1 <0>        -0.0554
      2 N1         -0.0145    0.0144   -0.0049 N.4       1 <0>        -0.3889
      3 C2          0.6989   -0.4628    1.1873 C.3       1 <0>        -0.0484
      4 C3         -1.3889   -0.5040    0.0067 C.3       1 <0>        -0.0026
      5 C4         -2.0931   -0.1114   -1.2936 C.3       1 <0>         0.0258
      6 O1         -1.4541   -0.7589   -2.3957 O.3       1 <0>        -0.3331
      7 C5         -1.9611   -0.5147   -3.6335 C.ar      1 <0>         0.0973
      8 C6         -3.0444    0.3328   -3.7831 C.ar      1 <0>        -0.1839
      9 C7         -3.5616    0.5811   -5.0525 C.ar      1 <0>         0.0426
     10 C8         -2.9872   -0.0244   -6.1681 C.ar      1 <0>        -0.1214
     11 C9         -1.9068   -0.8693   -6.0163 C.ar      1 <0>        -0.0823
     12 C10        -1.3863   -1.1135   -4.7530 C.ar      1 <0>         0.1190
     13 N2         -0.2855   -1.9674   -4.6025 N.am      1 <0>        -0.6602
     14 C11         0.5684   -2.1533   -5.6286 C.2       1 <0>         0.5228
     15 O2          0.4425   -1.5067   -6.6471 O.2       1 <0>        -0.4763
     16 C12         1.6795   -3.1645   -5.5105 C.3       1 <0>         0.0360
     17 H1          1.2640   -4.1384   -5.2515 H         1 <0>         0.1163
     18 C13         2.6707   -2.7200   -4.4265 C.3       1 <0>         0.0365
     19 O3          3.7181   -3.6932   -4.3505 O.3       1 <0>        -0.2994
     20 C14         4.2547   -4.1075   -5.5307 C.ar      1 <0>         0.0401
     21 C15         5.4832   -4.7514   -5.5312 C.ar      1 <0>        -0.1086
     22 C16         6.0393   -5.1808   -6.7212 C.ar      1 <0>        -0.1101
     23 C17         5.3733   -4.9697   -7.9141 C.ar      1 <0>        -0.1069
     24 C18         4.1496   -4.3275   -7.9208 C.ar      1 <0>        -0.1065
     25 C19         3.5863   -3.8929   -6.7301 C.ar      1 <0>         0.0489
     26 O4          2.3839   -3.2552   -6.7536 O.3       1 <0>        -0.2775
     27 C20        -4.7244    1.4898   -5.2163 C.2       1 <0>        -0.2179
     28 C21        -5.3330    1.8160   -6.3929 C.2       1 <0>         0.0917
     29 N3         -6.3432    2.6632   -6.1085 N.pl3     1 <0>        -0.4646
     30 H2         -6.9505    3.0607   -6.7521 H         1 <0>         0.4477
     31 N4         -6.3644    2.8693   -4.7238 N.2       1 <0>        -0.2844
     32 C22        -5.4034    2.1667   -4.1847 C.2       1 <0>         0.0657
     33 H3          0.9747    1.8678   -0.0107 H         1 <0>         0.1273
     34 H4         -0.5745    1.8372   -0.8867 H         1 <0>         0.1227
     35 H5         -0.5583    1.8341    0.8932 H         1 <0>         0.1256
     36 H6          0.1857   -0.1118    2.0826 H         1 <0>         0.1239
     37 H7          0.7216   -1.5525    1.1852 H         1 <0>         0.1250
     38 H8          1.7187   -0.0781    1.1787 H         1 <0>         0.1260
     39 H9         -1.3668   -1.5903    0.0942 H         1 <0>         0.1430
     40 H10        -1.9292   -0.0822    0.8542 H         1 <0>         0.1507
     41 H11        -3.1380   -0.4184   -1.2480 H         1 <0>         0.1116
     42 H12        -2.0373    0.9692   -1.4250 H         1 <0>         0.0892
     43 H13        -3.4885    0.8009   -2.9171 H         1 <0>         0.1331
     44 H14        -3.3880    0.1674   -7.1525 H         1 <0>         0.1339
     45 H15        -1.4630   -1.3380   -6.8821 H         1 <0>         0.1578
     46 H16        -0.1380   -2.4247   -3.7599 H         1 <0>         0.4118
     47 H17         3.0900   -1.7484   -4.6880 H         1 <0>         0.0851
     48 H18         2.1598   -2.6540   -3.4659 H         1 <0>         0.1190
     49 H19         6.0058   -4.9170   -4.6007 H         1 <0>         0.1375
     50 H20         6.9961   -5.6818   -6.7193 H         1 <0>         0.1377
     51 H21         5.8101   -5.3070   -8.8425 H         1 <0>         0.1385
     52 H22         3.6313   -4.1639   -8.8541 H         1 <0>         0.1396
     53 H23        -5.0557    1.4608   -7.3744 H         1 <0>         0.1850
     54 H24        -5.1689    2.1162   -3.1317 H         1 <0>         0.1821
     55 H25         0.4605   -0.3105   -0.8337 H         1 <0>         0.4318
@<TRIPOS>BOND
     1    1    2 1
     2    1   33 1
     3    1   34 1
     4    1   35 1
     5    2    3 1
     6    2    4 1
     7    2   55 1
     8    3   36 1
     9    3   37 1
    10    3   38 1
    11    4    5 1
    12    4   39 1
    13    4   40 1
    14    5    6 1
    15    5   41 1
    16    5   42 1
    17    6    7 1
    18    7   12 ar
    19    7    8 ar
    20    8    9 ar
    21    8   43 1
    22    9   10 ar
    23    9   27 1
    24   10   11 ar
    25   10   44 1
    26   11   12 ar
    27   11   45 1
    28   12   13 1
    29   13   14 am
    30   13   46 1
    31   14   15 2
    32   14   16 1
    33   16   17 1
    34   16   26 1
    35   16   18 1
    36   18   19 1
    37   18   47 1
    38   18   48 1
    39   19   20 1
    40   20   25 ar
    41   20   21 ar
    42   21   22 ar
    43   21   49 1
    44   22   23 ar
    45   22   50 1
    46   23   24 ar
    47   23   51 1
    48   24   25 ar
    49   24   52 1
    50   25   26 1
    51   27   32 1
    52   27   28 2
    53   28   29 1
    54   28   53 1
    55   29   30 1
    56   29   31 1
    57   31   32 2
    58   32   54 1
@<TRIPOS>MOLECULE
ZINC40414461
   55    58     0     0     0
SMALL
USER_CHARGES

@<TRIPOS>ATOM
      1 C1         -0.0452    1.4834   -0.0023 C.3       1 <0>        -0.0552
      2 N1         -0.0145    0.0147   -0.0050 N.4       1 <0>        -0.3890
      3 C2          0.6989   -0.4624    1.1872 C.3       1 <0>        -0.0481
      4 C3         -1.3889   -0.5038    0.0066 C.3       1 <0>        -0.0025
      5 C4         -2.0932   -0.1113   -1.2937 C.3       1 <0>         0.0259
      6 O1         -1.4542   -0.7588   -2.3957 O.3       1 <0>        -0.3328
      7 C5         -1.9611   -0.5147   -3.6336 C.ar      1 <0>         0.0975
      8 C6         -3.0445    0.3327   -3.7832 C.ar      1 <0>        -0.1839
      9 C7         -3.5617    0.5809   -5.0525 C.ar      1 <0>         0.0427
     10 C8         -2.9873   -0.0246   -6.1682 C.ar      1 <0>        -0.1214
     11 C9         -1.9069   -0.8695   -6.0163 C.ar      1 <0>        -0.0825
     12 C10        -1.3863   -1.1136   -4.7530 C.ar      1 <0>         0.1191
     13 N2         -0.2855   -1.9674   -4.6025 N.am      1 <0>        -0.6604
     14 C11         0.5684   -2.1533   -5.6286 C.2       1 <0>         0.5225
     15 O2          0.4425   -1.5067   -6.6471 O.2       1 <0>        -0.4764
     16 C12         1.6795   -3.1645   -5.5105 C.3       1 <0>         0.0385
     17 H1          2.2767   -2.9524   -4.6237 H         1 <0>         0.1109
     18 C13         1.0859   -4.5761   -5.4090 C.3       1 <0>         0.0340
     19 O3          2.1662   -5.5108   -5.3126 O.3       1 <0>        -0.2979
     20 C14         3.1965   -5.3469   -6.1868 C.ar      1 <0>         0.0419
     21 C15         4.0809   -6.3937   -6.4005 C.ar      1 <0>        -0.1088
     22 C16         5.1338   -6.2413   -7.2826 C.ar      1 <0>        -0.1096
     23 C17         5.3084   -5.0457   -7.9544 C.ar      1 <0>        -0.1085
     24 C18         4.4299   -3.9992   -7.7471 C.ar      1 <0>        -0.1071
     25 C19         3.3704   -4.1459   -6.8640 C.ar      1 <0>         0.0470
     26 O4          2.5091   -3.1086   -6.6760 O.3       1 <0>        -0.2785
     27 C20        -4.7246    1.4895   -5.2164 C.2       1 <0>        -0.2179
     28 C21        -5.3332    1.8157   -6.3930 C.2       1 <0>         0.0917
     29 N3         -6.3434    2.6628   -6.1086 N.pl3     1 <0>        -0.4646
     30 H2         -6.9508    3.0602   -6.7522 H         1 <0>         0.4477
     31 N4         -6.3647    2.8690   -4.7239 N.2       1 <0>        -0.2844
     32 C22        -5.4036    2.1665   -4.1848 C.2       1 <0>         0.0657
     33 H3          0.9746    1.8681   -0.0109 H         1 <0>         0.1272
     34 H4         -0.5746    1.8373   -0.8869 H         1 <0>         0.1226
     35 H5         -0.5584    1.8344    0.8930 H         1 <0>         0.1255
     36 H6          0.1858   -0.1114    2.0825 H         1 <0>         0.1238
     37 H7          0.7217   -1.5522    1.1851 H         1 <0>         0.1248
     38 H8          1.7187   -0.0777    1.1785 H         1 <0>         0.1258
     39 H9         -1.3667   -1.5901    0.0942 H         1 <0>         0.1428
     40 H10        -1.9292   -0.0820    0.8541 H         1 <0>         0.1505
     41 H11        -3.1380   -0.4183   -1.2480 H         1 <0>         0.1116
     42 H12        -2.0374    0.9693   -1.4252 H         1 <0>         0.0891
     43 H13        -3.4886    0.8009   -2.9172 H         1 <0>         0.1331
     44 H14        -3.3882    0.1671   -7.1525 H         1 <0>         0.1338
     45 H15        -1.4631   -1.3382   -6.8821 H         1 <0>         0.1573
     46 H16        -0.1380   -2.4247   -3.7599 H         1 <0>         0.4122
     47 H17         0.4575   -4.6477   -4.5213 H         1 <0>         0.1249
     48 H18         0.4928   -4.7903   -6.2981 H         1 <0>         0.0877
     49 H19         3.9469   -7.3287   -5.8769 H         1 <0>         0.1382
     50 H20         5.8212   -7.0578   -7.4477 H         1 <0>         0.1376
     51 H21         6.1329   -4.9291   -8.6421 H         1 <0>         0.1379
     52 H22         4.5686   -3.0662   -8.2731 H         1 <0>         0.1386
     53 H23        -5.0559    1.4604   -7.3745 H         1 <0>         0.1849
     54 H24        -5.1691    2.1161   -3.1318 H         1 <0>         0.1821
     55 H25         0.4605   -0.3103   -0.8338 H         1 <0>         0.4323
@<TRIPOS>BOND
     1    1    2 1
     2    1   33 1
     3    1   34 1
     4    1   35 1
     5    2    3 1
     6    2    4 1
     7    2   55 1
     8    3   36 1
     9    3   37 1
    10    3   38 1
    11    4    5 1
    12    4   39 1
    13    4   40 1
    14    5    6 1
    15    5   41 1
    16    5   42 1
    17    6    7 1
    18    7   12 ar
    19    7    8 ar
    20    8    9 ar
    21    8   43 1
    22    9   10 ar
    23    9   27 1
    24   10   11 ar
    25   10   44 1
    26   11   12 ar
    27   11   45 1
    28   12   13 1
    29   13   14 am
    30   13   46 1
    31   14   15 2
    32   14   16 1
    33   16   17 1
    34   16   26 1
    35   16   18 1
    36   18   19 1
    37   18   47 1
    38   18   48 1
    39   19   20 1
    40   20   25 ar
    41   20   21 ar
    42   21   22 ar
    43   21   49 1
    44   22   23 ar
    45   22   50 1
    46   23   24 ar
    47   23   51 1
    48   24   25 ar
    49   24   52 1
    50   25   26 1
    51   27   32 1
    52   27   28 2
    53   28   29 1
    54   28   53 1
    55   29   30 1
    56   29   31 1
    57   31   32 2
    58   32   54 1
@<TRIPOS>MOLECULE
ZINC34894468
   59    62     0     0     0
SMALL
USER_CHARGES

@<TRIPOS>ATOM
      1 C1         -0.0187    1.5258    0.0104 C.3       1 <0>        -0.1654
      2 C2          0.0021   -0.0041    0.0020 C.3       1 <0>         0.0997
      3 N1          0.6878   -0.4765   -1.2033 N.pl3     1 <0>        -0.4456
      4 C3          0.1084   -0.7452   -2.4220 C.ar      1 <0>         0.0734
      5 C4         -1.1885   -0.6848   -2.9333 C.ar      1 <0>         0.0979
      6 C5         -1.4068   -1.0423   -4.2530 C.ar      1 <0>         0.0255
      7 N2         -0.4156   -1.4373   -5.0310 N.ar      1 <0>        -0.4288
      8 C6          0.8360   -1.5144   -4.6003 C.ar      1 <0>         0.2963
      9 C7          1.1491   -1.1685   -3.2692 C.ar      1 <0>         0.0642
     10 N3          2.2847   -1.1401   -2.5504 N.2       1 <0>        -0.4357
     11 C8          2.0279   -0.7287   -1.3319 C.2       1 <0>         0.3425
     12 C9          3.0324   -0.5655   -0.2583 C.2       1 <0>         0.1311
     13 C10         4.4724   -0.8253   -0.3802 C.2       1 <0>         0.3646
     14 N4          5.0335   -0.5707    0.7697 N.2       1 <0>        -0.3434
     15 O1          4.0212   -0.1472    1.6654 O.3       1 <0>         0.0494
     16 N5          2.7917   -0.1594    0.9619 N.2       1 <0>        -0.2485
     17 N6          5.1251   -1.2670   -1.5235 N.pl3     1 <0>        -0.7999
     18 C11         1.8718   -1.9500   -5.4881 C.1       1 <0>        -0.1207
     19 C12         2.7209   -2.3071   -6.2159 C.1       1 <0>        -0.0802
     20 C13         3.7856   -2.7549   -7.1284 C.3       1 <0>         0.2403
     21 C14         5.1250   -2.7540   -6.3888 C.3       1 <0>        -0.1769
     22 C15         3.4749   -4.1704   -7.6190 C.3       1 <0>        -0.1771
     23 O2          3.8585   -1.8683   -8.2468 O.3       1 <0>        -0.5533
     24 O3         -2.2219   -0.2814   -2.1476 O.3       1 <0>        -0.3053
     25 C16        -3.5183   -0.2475   -2.7478 C.3       1 <0>         0.0602
     26 C17        -4.5450    0.2275   -1.7176 C.3       1 <0>        -0.1101
     27 H1         -4.2313    1.1872   -1.3070 H         1 <0>         0.1084
     28 C18        -4.6505   -0.8019   -0.5887 C.3       1 <0>        -0.1341
     29 C19        -5.7357   -0.3560    0.3956 C.3       1 <0>        -0.1476
     30 C20        -7.0574   -0.1814   -0.3555 C.3       1 <0>        -0.0100
     31 N7         -6.8984    0.8337   -1.4036 N.4       1 <0>        -0.5022
     32 C21        -5.9106    0.3814   -2.3906 C.3       1 <0>        -0.0035
     33 H2          1.0039    1.9031    0.0027 H         1 <0>         0.0656
     34 H3         -0.5459    1.8868   -0.8726 H         1 <0>         0.0629
     35 H4         -0.5289    1.8773    0.9072 H         1 <0>         0.0853
     36 H5          0.5293   -0.3651    0.8851 H         1 <0>         0.1094
     37 H6         -1.0205   -0.3814    0.0098 H         1 <0>         0.1017
     38 H7         -2.4085   -0.9976   -4.6543 H         1 <0>         0.1718
     39 H8          4.6220   -1.4309   -2.3365 H         1 <0>         0.4312
     40 H9          6.0842   -1.4116   -1.5092 H         1 <0>         0.4212
     41 H10         5.0694   -3.4303   -5.5357 H         1 <0>         0.0725
     42 H11         5.9134   -3.0856   -7.0645 H         1 <0>         0.0747
     43 H12         5.3464   -1.7456   -6.0392 H         1 <0>         0.0708
     44 H13         2.5207   -4.1710   -8.1459 H         1 <0>         0.0706
     45 H14         4.2633   -4.5020   -8.2948 H         1 <0>         0.0744
     46 H15         3.4193   -4.8466   -6.7660 H         1 <0>         0.0730
     47 H16         4.5403   -2.1031   -8.8910 H         1 <0>         0.3893
     48 H17        -3.5089    0.4388   -3.5945 H         1 <0>         0.0810
     49 H18        -3.7852   -1.2465   -3.0928 H         1 <0>         0.0808
     50 H19        -4.9136   -1.7741   -1.0053 H         1 <0>         0.0850
     51 H20        -3.6947   -0.8730   -0.0697 H         1 <0>         0.0989
     52 H21        -5.8554   -1.1114    1.1722 H         1 <0>         0.1153
     53 H22        -5.4475    0.5918    0.8502 H         1 <0>         0.0899
     54 H23        -7.3448   -1.1298   -0.8094 H         1 <0>         0.1322
     55 H24        -7.8322    0.1358    0.3424 H         1 <0>         0.1359
     56 H25        -7.7848    0.9849   -1.8613 H         1 <0>         0.4361
     57 H26        -5.8384    1.1139   -3.1947 H         1 <0>         0.1390
     58 H27        -6.2228   -0.5785   -2.8018 H         1 <0>         0.1366
     59 H28        -6.5849    1.6982   -0.9883 H         1 <0>         0.4295
@<TRIPOS>BOND
     1    1    2 1
     2    1   33 1
     3    1   34 1
     4    1   35 1
     5    2    3 1
     6    2   36 1
     7    2   37 1
     8    3   11 1
     9    3    4 1
    10    4    9 ar
    11    4    5 ar
    12    5    6 ar
    13    5   24 1
    14    6    7 ar
    15    6   38 1
    16    7    8 ar
    17    8    9 ar
    18    8   18 1
    19    9   10 1
    20   10   11 2
    21   11   12 1
    22   12   16 2
    23   12   13 1
    24   13   14 2
    25   13   17 1
    26   14   15 1
    27   15   16 1
    28   17   39 1
    29   17   40 1
    30   18   19 3
    31   19   20 1
    32   20   21 1
    33   20   22 1
    34   20   23 1
    35   21   41 1
    36   21   42 1
    37   21   43 1
    38   22   44 1
    39   22   45 1
    40   22   46 1
    41   23   47 1
    42   24   25 1
    43   25   26 1
    44   25   48 1
    45   25   49 1
    46   26   27 1
    47   26   32 1
    48   26   28 1
    49   28   29 1
    50   28   50 1
    51   28   51 1
    52   29   30 1
    53   29   52 1
    54   29   53 1
    55   30   31 1
    56   30   54 1
    57   30   55 1
    58   31   32 1
    59   31   56 1
    60   31   59 1
    61   32   57 1
    62   32   58 1
@<TRIPOS>MOLECULE
ZINC40955526
   46    48     0     0     0
SMALL
USER_CHARGES

@<TRIPOS>ATOM
      1 C1         -0.0187    1.5258    0.0104 C.3       1 <0>        -0.1652
      2 C2          0.0021   -0.0041    0.0020 C.3       1 <0>         0.0990
      3 N1          0.7106   -0.4894    1.1889 N.pl3     1 <0>        -0.4459
      4 C3          2.0598   -0.7391    1.2911 C.ar      1 <0>         0.0738
      5 C4          3.1497   -0.6444    0.4251 C.ar      1 <0>         0.0958
      6 C5          4.4073   -0.9918    0.8888 C.ar      1 <0>         0.0265
      7 N2          4.5920   -1.4088    2.1280 N.ar      1 <0>        -0.4317
      8 C6          3.5947   -1.5188    2.9948 C.ar      1 <0>         0.2965
      9 C7          2.2800   -1.1855    2.6073 C.ar      1 <0>         0.0633
     10 N3          1.0896   -1.1881    3.2317 N.2       1 <0>        -0.4343
     11 C8          0.1563   -0.7746    2.4084 C.2       1 <0>         0.3427
     12 C9         -1.2781   -0.6405    2.7446 C.2       1 <0>         0.1308
     13 C10        -1.8881   -0.9359    4.0472 C.2       1 <0>         0.3648
     14 N4         -3.1683   -0.6994    3.9632 N.2       1 <0>        -0.3442
     15 O1         -3.4447   -0.2538    2.6474 O.3       1 <0>         0.0491
     16 N5         -2.2208   -0.2327    1.9343 N.2       1 <0>        -0.2487
     17 N6         -1.2172   -1.3899    5.1751 N.pl3     1 <0>        -0.7988
     18 C11         3.8527   -1.9771    4.3267 C.1       1 <0>        -0.1212
     19 C12         4.0642   -2.3529    5.4187 C.1       1 <0>        -0.0958
     20 C13         4.3294   -2.8241    6.7878 C.3       1 <0>         0.1857
     21 O2          3.1061   -2.8571    7.5255 O.3       1 <0>        -0.5656
     22 O3          2.9795   -0.2180   -0.8544 O.3       1 <0>        -0.3079
     23 C14         4.1466   -0.1495   -1.6761 C.3       1 <0>         0.0566
     24 C15         3.7600    0.3475   -3.0706 C.3       1 <0>        -0.1545
     25 C16         5.0096    0.4209   -3.9504 C.3       1 <0>        -0.0048
     26 N7          4.6385    0.8981   -5.2892 N.4       1 <0>        -0.6359
     27 H1          1.0039    1.9031    0.0027 H         1 <0>         0.0625
     28 H2         -0.5459    1.8868   -0.8726 H         1 <0>         0.0856
     29 H3         -0.5289    1.8773    0.9072 H         1 <0>         0.0657
     30 H4         -1.0205   -0.3814    0.0098 H         1 <0>         0.1099
     31 H5          0.5123   -0.3556   -0.8948 H         1 <0>         0.1022
     32 H6          5.2547   -0.9205    0.2230 H         1 <0>         0.1720
     33 H7         -0.2592   -1.5382    5.1427 H         1 <0>         0.4321
     34 H8         -1.7066   -1.5586    5.9954 H         1 <0>         0.4213
     35 H9          4.7585   -3.8254    6.7507 H         1 <0>         0.0823
     36 H10         5.0299   -2.1465    7.2759 H         1 <0>         0.0823
     37 H11         3.2056   -3.1589    8.4388 H         1 <0>         0.3936
     38 H12         4.8644    0.5394   -1.2309 H         1 <0>         0.0803
     39 H13         4.5943   -1.1402   -1.7547 H         1 <0>         0.0803
     40 H14         3.0421   -0.3413   -3.5158 H         1 <0>         0.1009
     41 H15         3.3123    1.3382   -2.9920 H         1 <0>         0.1011
     42 H16         5.7275    1.1098   -3.5052 H         1 <0>         0.1398
     43 H17         5.4573   -0.5698   -4.0289 H         1 <0>         0.1398
     44 H18         3.9740    0.2604   -5.7013 H         1 <0>         0.4375
     45 H19         4.2241    1.8152   -5.2165 H         1 <0>         0.4375
     46 H20         5.4626    0.9465   -5.8694 H         1 <0>         0.4429
@<TRIPOS>BOND
     1    1    2 1
     2    1   27 1
     3    1   28 1
     4    1   29 1
     5    2    3 1
     6    2   30 1
     7    2   31 1
     8    3   11 1
     9    3    4 1
    10    4    9 ar
    11    4    5 ar
    12    5    6 ar
    13    5   22 1
    14    6    7 ar
    15    6   32 1
    16    7    8 ar
    17    8    9 ar
    18    8   18 1
    19    9   10 1
    20   10   11 2
    21   11   12 1
    22   12   16 2
    23   12   13 1
    24   13   14 2
    25   13   17 1
    26   14   15 1
    27   15   16 1
    28   17   33 1
    29   17   34 1
    30   18   19 3
    31   19   20 1
    32   20   21 1
    33   20   35 1
    34   20   36 1
    35   21   37 1
    36   22   23 1
    37   23   24 1
    38   23   38 1
    39   23   39 1
    40   24   25 1
    41   24   40 1
    42   24   41 1
    43   25   26 1
    44   25   42 1
    45   25   43 1
    46   26   44 1
    47   26   45 1
    48   26   46 1
@<TRIPOS>MOLECULE
ZINC03964325
   57    59     0     0     0
SMALL
USER_CHARGES

@<TRIPOS>ATOM
      1 C1          0.1489    2.0884    0.1150 C.3       1 <0>        -0.1876
      2 C2          0.1348    0.5603    0.1888 C.3       1 <0>        -0.0191
      3 N1         -1.2520    0.0881    0.2979 N.4       1 <0>        -0.3822
      4 C3         -1.9779    0.4111   -0.9377 C.3       1 <0>        -0.0142
      5 C4         -3.4549    0.0484   -0.7712 C.3       1 <0>        -0.1895
      6 C5         -1.2593   -1.3663    0.5041 C.3       1 <0>        -0.0265
      7 C6         -0.6131   -1.6936    1.8518 C.3       1 <0>         0.0952
      8 N2         -0.6203   -3.1440    2.0575 N.am      1 <0>        -0.7289
      9 C7         -0.0988   -3.6675    3.1846 C.2       1 <0>         0.6111
     10 O1          0.3779   -2.9358    4.0309 O.2       1 <0>        -0.5184
     11 C8         -0.1061   -5.1270    3.3915 C.2       1 <0>        -0.2420
     12 C9          0.9071   -6.0320    3.0089 C.2       1 <0>        -0.0577
     13 C10         0.4868   -7.2892    3.3960 C.2       1 <0>        -0.0075
     14 N3         -0.7476   -7.1595    3.9982 N.pl3     1 <0>        -0.4910
     15 H1         -1.2731   -7.8879    4.3645 H         1 <0>         0.4270
     16 C11        -1.1044   -5.8642    4.0022 C.2       1 <0>         0.1158
     17 C12        -2.3825   -5.3072    4.5743 C.3       1 <0>        -0.0999
     18 C13         1.1957   -8.4957    3.2079 C.2       1 <0>         0.0729
     19 C14         0.5100   -9.6674    2.9570 C.2       1 <0>        -0.1889
     20 C15         1.0648  -11.0377    2.8871 C.ar      1 <0>        -0.0736
     21 C16         2.3472  -11.5557    3.0375 C.ar      1 <0>        -0.1000
     22 C17         2.5553  -12.9162    2.9116 C.ar      1 <0>         0.0861
     23 C18         1.4888  -13.7593    2.6366 C.ar      1 <0>        -0.1139
     24 C19         0.2139  -13.2531    2.4856 C.ar      1 <0>        -0.1021
     25 C20        -0.0144  -11.8871    2.6092 C.ar      1 <0>         0.1282
     26 N4         -1.1765  -11.1301    2.5069 N.am      1 <0>        -0.6466
     27 C21        -0.9294   -9.8245    2.7079 C.2       1 <0>         0.5595
     28 O2         -1.7538   -8.9280    2.6842 O.2       1 <0>        -0.5156
     29 F1          3.7984  -13.4252    3.0561 F         1 <0>        -0.1318
     30 C22         2.1990   -5.6919    2.3116 C.3       1 <0>        -0.0931
     31 H2          1.1793    2.4435    0.1331 H         1 <0>         0.1076
     32 H3         -0.3308    2.4121   -0.8087 H         1 <0>         0.0811
     33 H4         -0.3916    2.4984    0.9682 H         1 <0>         0.0809
     34 H5          0.5888    0.1488   -0.7126 H         1 <0>         0.1317
     35 H6          0.6996    0.2334    1.0619 H         1 <0>         0.1337
     36 H7         -1.8867    1.4775   -1.1444 H         1 <0>         0.1351
     37 H8         -1.5554   -0.1571   -1.7664 H         1 <0>         0.1307
     38 H9         -3.5537   -1.0316   -0.6617 H         1 <0>         0.0802
     39 H10        -3.8523    0.5414    0.1160 H         1 <0>         0.0808
     40 H11        -4.0109    0.3769   -1.6492 H         1 <0>         0.1074
     41 H12        -2.2871   -1.7292    0.4963 H         1 <0>         0.1397
     42 H13        -0.6973   -1.8494   -0.2952 H         1 <0>         0.1376
     43 H14         0.4147   -1.3306    1.8596 H         1 <0>         0.0893
     44 H15        -1.1751   -1.2105    2.6511 H         1 <0>         0.0890
     45 H16        -1.0005   -3.7277    1.3824 H         1 <0>         0.4099
     46 H17        -3.1529   -5.3000    3.8032 H         1 <0>         0.0840
     47 H18        -2.7087   -5.9289    5.4080 H         1 <0>         0.0782
     48 H19        -2.2103   -4.2898    4.9254 H         1 <0>         0.0840
     49 H20         2.2744   -8.5020    3.2604 H         1 <0>         0.1589
     50 H21         3.1765  -10.8977    3.2512 H         1 <0>         0.1436
     51 H22         1.6578  -14.8215    2.5394 H         1 <0>         0.1485
     52 H23        -0.6084  -13.9196    2.2712 H         1 <0>         0.1415
     53 H24        -2.0541  -11.4980    2.3189 H         1 <0>         0.4217
     54 H25         2.9686   -5.4822    3.0545 H         1 <0>         0.0785
     55 H26         2.5107   -6.5337    1.6932 H         1 <0>         0.0726
     56 H27         2.0522   -4.8138    1.6827 H         1 <0>         0.0634
     57 H28        -1.7009    0.5410    1.0799 H         1 <0>         0.4247
@<TRIPOS>BOND
     1    1    2 1
     2    1   31 1
     3    1   32 1
     4    1   33 1
     5    2    3 1
     6    2   34 1
     7    2   35 1
     8    3    4 1
     9    3    6 1
    10    3   57 1
    11    4    5 1
    12    4   36 1
    13    4   37 1
    14    5   38 1
    15    5   39 1
    16    5   40 1
    17    6    7 1
    18    6   41 1
    19    6   42 1
    20    7    8 1
    21    7   43 1
    22    7   44 1
    23    8    9 am
    24    8   45 1
    25    9   10 2
    26    9   11 1
    27   11   16 2
    28   11   12 1
    29   12   13 2
    30   12   30 1
    31   13   14 1
    32   13   18 1
    33   14   15 1
    34   14   16 1
    35   16   17 1
    36   17   46 1
    37   17   47 1
    38   17   48 1
    39   18   19 2
    40   18   49 1
    41   19   27 1
    42   19   20 1
    43   20   25 ar
    44   20   21 ar
    45   21   22 ar
    46   21   50 1
    47   22   23 ar
    48   22   29 1
    49   23   24 ar
    50   23   51 1
    51   24   25 ar
    52   24   52 1
    53   25   26 1
    54   26   27 am
    55   26   53 1
    56   27   28 2
    57   30   54 1
    58   30   55 1
    59   30   56 1
@<TRIPOS>MOLECULE
ZINC45254824
   59    62     0     0     0
SMALL
USER_CHARGES

@<TRIPOS>ATOM
      1 C1         -3.0524    0.8507    0.8430 C.3       1 <0>        -0.0777
      2 C2         -2.4167   -0.4997    0.6349 C.2       1 <0>        -0.1346
      3 C3         -2.9361   -1.5324   -0.0488 C.2       1 <0>         0.0511
      4 N1         -2.0676   -2.5928   -0.0197 N.pl3     1 <0>        -0.5716
      5 H1         -2.2232   -3.4510   -0.4442 H         1 <0>         0.4241
      6 C4         -0.9494   -2.2627    0.6955 C.ar      1 <0>         0.3229
      7 C5         -1.1133   -0.9353    1.1329 C.ar      1 <0>        -0.2041
      8 C6         -0.0916   -0.3460    1.8927 C.ar      1 <0>         0.4790
      9 N2          0.9909   -1.0695    2.1634 N.ar      1 <0>        -0.5500
     10 C7          1.1055   -2.3119    1.7299 C.ar      1 <0>         0.3284
     11 N3          0.1698   -2.9070    1.0221 N.ar      1 <0>        -0.5357
     12 N4         -0.2071    0.9549    2.3485 N.pl3     1 <0>        -0.6567
     13 C8          0.1720    2.0850    1.4889 C.3       1 <0>         0.1365
     14 C9          1.2054    2.9408    2.2319 C.3       1 <0>         0.0933
     15 N5          0.7007    3.2176    3.5842 N.am      1 <0>        -0.6167
     16 C10         0.3216    2.0875    4.4438 C.3       1 <0>         0.1470
     17 H2          1.2026    1.4857    4.6667 H         1 <0>         0.0806
     18 C11        -0.7171    1.2319    3.6987 C.3       1 <0>         0.1401
     19 C12        -0.2838    2.6138    5.7466 C.3       1 <0>        -0.1377
     20 C13         0.5881    4.4851    4.0282 C.2       1 <0>         0.7087
     21 O1          0.2797    4.6991    5.1846 O.2       1 <0>        -0.5590
     22 N6          0.8175    5.5156    3.1902 N.am      1 <0>        -0.6877
     23 C14         0.8477    6.8249    3.6832 C.ar      1 <0>         0.1839
     24 C15         1.3293    7.0757    4.9620 C.ar      1 <0>        -0.1125
     25 C16         1.3586    8.3680    5.4487 C.ar      1 <0>        -0.0828
     26 C17         0.9093    9.4145    4.6656 C.ar      1 <0>        -0.1345
     27 C18         0.4277    9.1699    3.3875 C.ar      1 <0>         0.1244
     28 C19         0.4020    7.8750    2.8934 C.ar      1 <0>        -0.1477
     29 O2         -0.0143   10.2001    2.6186 O.3       1 <0>        -0.3047
     30 C20         0.9046   11.0014    2.0462 C.2       1 <0>         0.6441
     31 O3          2.0868   10.7394    2.1475 O.2       1 <0>        -0.5506
     32 N7          0.5128   12.0938    1.3609 N.am      1 <0>        -0.6008
     33 C21         1.5122   12.9654    0.7383 C.3       1 <0>         0.1040
     34 C22        -0.9125   12.4097    1.2387 C.3       1 <0>         0.0795
     35 H3         -2.6894    1.5441    0.0844 H         1 <0>         0.0645
     36 H4         -4.1356    0.7587    0.7626 H         1 <0>         0.0646
     37 H5         -2.7922    1.2262    1.8327 H         1 <0>         0.0686
     38 H6         -3.8944   -1.5281   -0.5469 H         1 <0>         0.1823
     39 H7          2.0013   -2.8643    1.9723 H         1 <0>         0.2005
     40 H8          0.6061    1.7101    0.5620 H         1 <0>         0.0821
     41 H9         -0.7090    2.6868    1.2659 H         1 <0>         0.0661
     42 H10         2.1494    2.3998    2.2973 H         1 <0>         0.0818
     43 H11         1.3550    3.8793    1.6981 H         1 <0>         0.0825
     44 H12        -1.6600    1.7744    3.6295 H         1 <0>         0.0662
     45 H13        -0.8703    0.2935    4.2315 H         1 <0>         0.0815
     46 H14        -1.0947    3.3051    5.5172 H         1 <0>         0.0702
     47 H15        -0.6721    1.7791    6.3301 H         1 <0>         0.0471
     48 H16         0.4842    3.1323    6.3207 H         1 <0>         0.0808
     49 H17         0.9616    5.3496    2.2455 H         1 <0>         0.4047
     50 H18         1.6806    6.2597    5.5760 H         1 <0>         0.1417
     51 H19         1.7330    8.5611    6.4431 H         1 <0>         0.1356
     52 H20         0.9328   10.4239    5.0491 H         1 <0>         0.1283
     53 H21         0.0316    7.6833    1.8972 H         1 <0>         0.1321
     54 H22         2.0918   12.3937    0.0134 H         1 <0>         0.0660
     55 H23         1.0104   13.7904    0.2327 H         1 <0>         0.0861
     56 H24         2.1781   13.3605    1.5054 H         1 <0>         0.0663
     57 H25        -1.2162   13.0463    2.0698 H         1 <0>         0.0612
     58 H26        -1.0898   12.9311    0.2981 H         1 <0>         0.0775
     59 H27        -1.4921   11.4868    1.2573 H         1 <0>         0.0791
@<TRIPOS>BOND
     1    1    2 1
     2    1   35 1
     3    1   36 1
     4    1   37 1
     5    2    7 1
     6    2    3 2
     7    3    4 1
     8    3   38 1
     9    4    5 1
    10    4    6 1
    11    6   11 ar
    12    6    7 ar
    13    7    8 ar
    14    8    9 ar
    15    8   12 1
    16    9   10 ar
    17   10   11 ar
    18   10   39 1
    19   12   18 1
    20   12   13 1
    21   13   14 1
    22   13   40 1
    23   13   41 1
    24   14   15 1
    25   14   42 1
    26   14   43 1
    27   15   16 1
    28   15   20 am
    29   16   17 1
    30   16   18 1
    31   16   19 1
    32   18   44 1
    33   18   45 1
    34   19   46 1
    35   19   47 1
    36   19   48 1
    37   20   21 2
    38   20   22 am
    39   22   23 1
    40   22   49 1
    41   23   28 ar
    42   23   24 ar
    43   24   25 ar
    44   24   50 1
    45   25   26 ar
    46   25   51 1
    47   26   27 ar
    48   26   52 1
    49   27   28 ar
    50   27   29 1
    51   28   53 1
    52   29   30 1
    53   30   31 2
    54   30   32 am
    55   32   33 1
    56   32   34 1
    57   33   54 1
    58   33   55 1
    59   33   56 1
    60   34   57 1
    61   34   58 1
    62   34   59 1
@<TRIPOS>MOLECULE
ZINC45254830
   50    53     0     0     0
SMALL
USER_CHARGES

@<TRIPOS>ATOM
      1 C1         -3.6570    1.8706    1.1848 C.3       1 <0>        -0.0765
      2 C2         -3.2550    0.6168    0.4518 C.2       1 <0>        -0.1354
      3 C3         -4.0718   -0.2249   -0.2026 C.2       1 <0>         0.0511
      4 N1         -3.3433   -1.2526   -0.7436 N.pl3     1 <0>        -0.5719
      5 H1         -3.7135   -1.9841   -1.2620 H         1 <0>         0.4240
      6 C4         -2.0177   -1.0946   -0.4456 C.ar      1 <0>         0.3223
      7 C5         -1.9003    0.0860    0.3111 C.ar      1 <0>        -0.2037
      8 C6         -0.6266    0.4838    0.7445 C.ar      1 <0>         0.4790
      9 N2          0.4165   -0.2734    0.4168 N.ar      1 <0>        -0.5484
     10 C7          0.2617   -1.3729   -0.2985 C.ar      1 <0>         0.3282
     11 N3         -0.9138   -1.7882   -0.7187 N.ar      1 <0>        -0.5359
     12 N4         -0.4598    1.6347    1.4934 N.pl3     1 <0>        -0.6537
     13 C8         -0.3285    2.9425    0.8358 C.3       1 <0>         0.1358
     14 C9          0.9717    3.6020    1.3119 C.3       1 <0>         0.1270
     15 N5          1.0203    3.5391    2.7794 N.pl3     1 <0>        -0.6788
     16 C10         0.8890    2.2313    3.4370 C.3       1 <0>         0.1472
     17 H2          1.7376    1.6012    3.1708 H         1 <0>         0.0858
     18 C11        -0.4169    1.5724    2.9611 C.3       1 <0>         0.1401
     19 C12         0.8467    2.4216    4.9545 C.3       1 <0>        -0.1720
     20 C13         1.1857    4.6809    3.5224 C.2       1 <0>         0.6547
     21 N6          0.0901    5.3129    4.0668 N.pl3     1 <0>        -0.5870
     22 C14         0.2412    6.4939    4.7136 C.1       1 <0>         0.4213
     23 N7          0.3680    7.4840    5.2559 N.1       1 <0>        -0.3937
     24 N8          2.3878    5.1705    3.7140 N.2       1 <0>        -0.5449
     25 C15         3.4661    4.6037    3.0875 C.ar      1 <0>         0.1388
     26 C16         3.7765    3.2596    3.3046 C.ar      1 <0>        -0.1241
     27 C17         4.8636    2.6946    2.6709 C.ar      1 <0>        -0.0971
     28 C18         5.6463    3.4563    1.8213 C.ar      1 <0>        -0.1044
     29 C19         5.3446    4.7893    1.6013 C.ar      1 <0>        -0.0746
     30 C20         4.2559    5.3655    2.2249 C.ar      1 <0>        -0.0932
     31 Br1         6.4214    5.8211    0.4387 Br        1 <0>        -0.0491
     32 H3         -3.5385    2.7306    0.5256 H         1 <0>         0.0649
     33 H4         -4.6988    1.7917    1.4954 H         1 <0>         0.0638
     34 H5         -3.0244    1.9965    2.0635 H         1 <0>         0.0683
     35 H6         -5.1421   -0.1094   -0.2895 H         1 <0>         0.1817
     36 H7          1.1353   -1.9590   -0.5426 H         1 <0>         0.1995
     37 H8         -0.2953    2.8067   -0.2452 H         1 <0>         0.0786
     38 H9         -1.1771    3.5726    1.1020 H         1 <0>         0.0647
     39 H10         1.8263    3.0695    0.8944 H         1 <0>         0.0732
     40 H11         0.9932    4.6431    0.9895 H         1 <0>         0.0807
     41 H12        -1.2716    2.1073    3.3751 H         1 <0>         0.0642
     42 H13        -0.4421    0.5317    3.2840 H         1 <0>         0.0787
     43 H14         0.0278    3.0926    5.2139 H         1 <0>         0.0646
     44 H15         0.6927    1.4566    5.4375 H         1 <0>         0.0807
     45 H16         1.7895    2.8510    5.2932 H         1 <0>         0.0668
     46 H17         3.1669    2.6638    3.9677 H         1 <0>         0.1282
     47 H18         5.1047    1.6553    2.8385 H         1 <0>         0.1308
     48 H19         6.4965    3.0090    1.3280 H         1 <0>         0.1311
     49 H20         4.0185    6.4043    2.0492 H         1 <0>         0.1323
     50 H21        -0.7898    4.9126    3.9872 H         1 <0>         0.4363
@<TRIPOS>BOND
     1    1    2 1
     2    1   32 1
     3    1   33 1
     4    1   34 1
     5    2    7 1
     6    2    3 2
     7    3    4 1
     8    3   35 1
     9    4    5 1
    10    4    6 1
    11    6   11 ar
    12    6    7 ar
    13    7    8 ar
    14    8    9 ar
    15    8   12 1
    16    9   10 ar
    17   10   11 ar
    18   10   36 1
    19   12   18 1
    20   12   13 1
    21   13   14 1
    22   13   37 1
    23   13   38 1
    24   14   15 1
    25   14   39 1
    26   14   40 1
    27   15   16 1
    28   15   20 1
    29   16   17 1
    30   16   18 1
    31   16   19 1
    32   18   41 1
    33   18   42 1
    34   19   43 1
    35   19   44 1
    36   19   45 1
    37   20   21 1
    38   20   24 2
    39   21   22 1
    40   21   50 1
    41   22   23 3
    42   24   25 1
    43   25   30 ar
    44   25   26 ar
    45   26   27 ar
    46   26   46 1
    47   27   28 ar
    48   27   47 1
    49   28   29 ar
    50   28   48 1
    51   29   30 ar
    52   29   31 1
    53   30   49 1
@<TRIPOS>MOLECULE
ZINC13907839
   38    40     0     0     0
SMALL
USER_CHARGES
4-[(1R)-1-aminoethyl]-N-(1H-pyrrolo[2,3-b]pyridin-4-yl)benzamide
@<TRIPOS>ATOM
      1 C1         -6.7780   -1.1505   -0.8457 C.3       1 <0>        -0.1819
      2 C2         -6.3368   -0.5894    0.5076 C.3       1 <0>         0.0900
      3 H1         -7.0483    0.1666    0.8713 H         1 <0>         0.1447
      4 C3         -4.9667    0.0239    0.3746 C.ar      1 <0>        -0.1207
      5 C4         -4.8357    1.3952    0.2450 C.ar      1 <0>        -0.0930
      6 C5         -3.5844    1.9632    0.1233 C.ar      1 <0>        -0.0458
      7 C6         -2.4490    1.1511    0.1305 C.ar      1 <0>        -0.1011
      8 C7         -2.5887   -0.2322    0.2558 C.ar      1 <0>        -0.0742
      9 C8         -3.8455   -0.7868    0.3820 C.ar      1 <0>        -0.1266
     10 C9         -1.1053    1.7527   -0.0000 C.2       1 <0>         0.5518
     11 O1         -0.9870    2.9571   -0.1140 O.2       1 <0>        -0.5002
     12 N1         -0.0111    0.9658    0.0074 N.am      1 <0>        -0.6679
     13 C10         1.2583    1.5377   -0.0359 C.ar      1 <0>         0.2259
     14 C11         1.4923    2.7120   -0.7436 C.ar      1 <0>        -0.2062
     15 C12         2.7660    3.2517   -0.7577 C.ar      1 <0>         0.1582
     16 N2          3.7680    2.6757   -0.1260 N.ar      1 <0>        -0.5046
     17 C13         3.6089    1.5510    0.5618 C.ar      1 <0>         0.2961
     18 C14         2.3426    0.9441    0.6284 C.ar      1 <0>        -0.1786
     19 C15         2.5056   -0.2566    1.4485 C.2       1 <0>        -0.2096
     20 C16         3.7964   -0.3064    1.8137 C.2       1 <0>         0.0837
     21 N3          4.4691    0.7668    1.2918 N.pl3     1 <0>        -0.5916
     22 H2          5.5284    1.0492    1.3821 H         1 <0>         0.4542
     23 N4         -6.2936   -1.6745    1.4969 N.4       1 <0>        -0.6876
     24 H3         -7.7781   -1.5982   -0.7486 H         1 <0>         0.0871
     25 H4         -6.0628   -1.9187   -1.1749 H         1 <0>         0.0832
     26 H5         -6.8103   -0.3380   -1.5865 H         1 <0>         0.1067
     27 H6         -5.7149    2.0224    0.2396 H         1 <0>         0.1434
     28 H7         -3.4835    3.0337    0.0222 H         1 <0>         0.1518
     29 H8         -1.7146   -0.8665    0.2576 H         1 <0>         0.1383
     30 H9         -3.9548   -1.8565    0.4831 H         1 <0>         0.1288
     31 H10        -0.1205   -0.1280    0.0476 H         1 <0>         0.4330
     32 H11         0.6872    3.1997   -1.2729 H         1 <0>         0.1508
     33 H12         2.9442    4.1660   -1.3042 H         1 <0>         0.1670
     34 H13         1.7350   -0.9666    1.7103 H         1 <0>         0.1457
     35 H14         4.2385   -1.0773    2.4274 H         1 <0>         0.1791
     36 H15        -5.9764   -1.2712    2.4699 H         1 <0>         0.4599
     37 H16        -5.5784   -2.4426    1.1676 H         1 <0>         0.4493
     38 H17        -7.2937   -2.1222    1.5940 H         1 <0>         0.4608
@<TRIPOS>BOND
     1    1    2 1
     2    1   24 1
     3    1   25 1
     4    1   26 1
     5    2    3 1
     6    2    4 1
     7    2   23 1
     8    4    9 ar
     9    4    5 ar
    10    5    6 ar
    11    5   27 1
    12    6    7 ar
    13    6   28 1
    14    7    8 ar
    15    7   10 1
    16    8    9 ar
    17    8   29 1
    18    9   30 1
    19   10   11 2
    20   10   12 am
    21   12   13 1
    22   12   31 1
    23   13   18 ar
    24   13   14 ar
    25   14   15 ar
    26   14   32 1
    27   15   16 ar
    28   15   33 1
    29   16   17 ar
    30   17   21 1
    31   17   18 ar
    32   18   19 1
    33   19   20 2
    34   19   34 1
    35   20   21 1
    36   20   35 1
    37   21   22 1
    38   23   36 1
    39   23   37 1
    40   23   38 1
@<TRIPOS>MOLECULE
ZINC45291242
   55    59     0     0     0
SMALL
USER_CHARGES

@<TRIPOS>ATOM
      1 C1          0.7515    2.0871    0.2816 C.ar      1 <0>        -0.1106
      2 C2          1.9815    2.6949    0.1110 C.ar      1 <0>        -0.1107
      3 C3          3.1248    1.9248    0.0261 C.ar      1 <0>        -0.1051
      4 C4          3.0436    0.5448    0.1112 C.ar      1 <0>        -0.1041
      5 C5          1.8139   -0.0628    0.2817 C.ar      1 <0>        -0.1026
      6 C6          0.6685    0.7112    0.3667 C.ar      1 <0>        -0.0996
      7 C7          1.9897   -1.5649    0.3448 C.3       1 <0>        -0.0883
      8 C8          3.3927   -1.8323   -0.2403 C.3       1 <0>         0.1583
      9 C9          4.1300   -0.5073    0.0483 C.3       1 <0>        -0.0888
     10 N1          4.0407   -2.9499    0.4505 N.pl3     1 <0>        -0.6621
     11 C10         5.0167   -3.6851   -0.1910 C.ar      1 <0>         0.6685
     12 N2          5.3729   -3.3756   -1.4340 N.ar      1 <0>        -0.6615
     13 C11         6.3131   -4.0834   -2.0517 C.ar      1 <0>         0.6513
     14 N3          6.8976   -5.1007   -1.4267 N.ar      1 <0>        -0.6572
     15 C12         6.5416   -5.4102   -0.1840 C.ar      1 <0>         0.6674
     16 N4          5.6046   -4.6992    0.4358 N.ar      1 <0>        -0.6562
     17 N5          7.1484   -6.4665    0.4649 N.pl3     1 <0>        -0.5902
     18 C13         6.7662   -6.8310    1.8379 C.3       1 <0>         0.1014
     19 C14         6.4778   -8.3353    1.8787 C.3       1 <0>        -0.0214
     20 N6          7.6377   -9.0694    1.3573 N.4       1 <0>        -0.5072
     21 C15         7.8395   -8.7441   -0.0603 C.3       1 <0>        -0.0211
     22 C16         8.1914   -7.2636   -0.1992 C.3       1 <0>         0.1010
     23 N7          6.6829   -3.7618   -3.3440 N.pl3     1 <0>        -0.6145
     24 C17         5.9922   -2.7716   -4.0407 C.ar      1 <0>         0.3001
     25 C18         6.6456   -1.9624   -4.9695 C.ar      1 <0>        -0.1670
     26 C19         5.9262   -0.9939   -5.6379 C.ar      1 <0>         0.1640
     27 N8          4.6373   -0.8285   -5.4071 N.ar      1 <0>        -0.4638
     28 C20         3.9834   -1.5739   -4.5361 C.ar      1 <0>         0.1527
     29 C21         4.6288   -2.5682   -3.8311 C.ar      1 <0>        -0.1411
     30 H1         -0.1431    2.6880    0.3527 H         1 <0>         0.1309
     31 H2          2.0482    3.7707    0.0438 H         1 <0>         0.1296
     32 H3          4.0852    2.4003   -0.1075 H         1 <0>         0.1204
     33 H4         -0.2927    0.2372    0.5003 H         1 <0>         0.1250
     34 H5          1.9390   -1.9086    1.3779 H         1 <0>         0.0908
     35 H6          1.2281   -2.0604   -0.2573 H         1 <0>         0.0884
     36 H7          3.3362   -2.0186   -1.3128 H         1 <0>         0.1053
     37 H8          4.8297   -0.2808   -0.7562 H         1 <0>         0.0757
     38 H9          4.6549   -0.5665    1.0017 H         1 <0>         0.0856
     39 H10         3.7837   -3.1732    1.3588 H         1 <0>         0.4256
     40 H11         7.5832   -6.5960    2.5201 H         1 <0>         0.1011
     41 H12         5.8725   -6.2786    2.1282 H         1 <0>         0.1436
     42 H13         6.2866   -8.6409    2.9073 H         1 <0>         0.1524
     43 H14         5.6035   -8.5544    1.2658 H         1 <0>         0.1353
     44 H15         8.4607   -8.8111    1.8808 H         1 <0>         0.4313
     45 H16         8.6516   -9.3510   -0.4604 H         1 <0>         0.1520
     46 H17         6.9239   -8.9509   -0.6145 H         1 <0>         0.1347
     47 H18         8.2394   -6.9971   -1.2550 H         1 <0>         0.1416
     48 H19         9.1547   -7.0731    0.2738 H         1 <0>         0.1002
     49 H20         7.4231   -4.2253   -3.7662 H         1 <0>         0.4452
     50 H21         7.7003   -2.0921   -5.1626 H         1 <0>         0.1874
     51 H22         6.4241   -0.3626   -6.3590 H         1 <0>         0.2150
     52 H23         2.9285   -1.4058   -4.3764 H         1 <0>         0.2108
     53 H24         4.0867   -3.1779   -3.1234 H         1 <0>         0.1878
     54 H25         4.1568   -0.1390   -5.8914 H         1 <0>         0.4542
     55 H26         7.4779  -10.0609    1.4541 H         1 <0>         0.4383
@<TRIPOS>BOND
     1    1    6 ar
     2    1    2 ar
     3    1   30 1
     4    2    3 ar
     5    2   31 1
     6    3    4 ar
     7    3   32 1
     8    4    9 1
     9    4    5 ar
    10    5    6 ar
    11    5    7 1
    12    6   33 1
    13    7    8 1
    14    7   34 1
    15    7   35 1
    16    8    9 1
    17    8   10 1
    18    8   36 1
    19    9   37 1
    20    9   38 1
    21   10   11 1
    22   10   39 1
    23   11   16 ar
    24   11   12 ar
    25   12   13 ar
    26   13   14 ar
    27   13   23 1
    28   14   15 ar
    29   15   16 ar
    30   15   17 1
    31   17   22 1
    32   17   18 1
    33   18   19 1
    34   18   40 1
    35   18   41 1
    36   19   20 1
    37   19   42 1
    38   19   43 1
    39   20   21 1
    40   20   44 1
    41   20   55 1
    42   21   22 1
    43   21   45 1
    44   21   46 1
    45   22   47 1
    46   22   48 1
    47   23   24 1
    48   23   49 1
    49   24   29 ar
    50   24   25 ar
    51   25   26 ar
    52   25   50 1
    53   26   27 ar
    54   26   51 1
    55   27   28 ar
    56   27   54 1
    57   28   29 ar
    58   28   52 1
    59   29   53 1
@<TRIPOS>MOLECULE
ZINC35880991
   54    57     0     0     0
SMALL
USER_CHARGES

@<TRIPOS>ATOM
      1 C1          0.2245    1.5009   -0.0088 C.3       1 <0>        -0.1024
      2 C2          0.1797   -0.0055   -0.0120 C.ar      1 <0>        -0.2351
      3 C3         -0.0442   -0.7041   -1.1839 C.ar      1 <0>         0.1907
      4 N1         -0.0778   -2.0274   -1.1532 N.ar      1 <0>        -0.5599
      5 C4          0.0998   -2.6883   -0.0182 C.ar      1 <0>         0.5586
      6 N2          0.3168   -2.0593    1.1262 N.ar      1 <0>        -0.5484
      7 C5          0.3693   -0.7294    1.1692 C.ar      1 <0>         0.3007
      8 C6          0.6187   -0.0273    2.4500 C.2       1 <0>        -0.1552
      9 C7          0.1779   -0.4333    3.7261 C.2       1 <0>        -0.0508
     10 C8          0.6269    0.4961    4.6199 C.2       1 <0>        -0.0603
     11 N3          1.3283    1.4565    3.9260 N.pl3     1 <0>        -0.5287
     12 H1          1.7561    2.2339    4.3179 H         1 <0>         0.4212
     13 C9          1.3297    1.1409    2.6170 C.2       1 <0>         0.0725
     14 C10         0.4005    0.4753    6.0697 C.2       1 <0>         0.5929
     15 O1         -0.2387   -0.4297    6.5728 O.2       1 <0>        -0.5224
     16 N4          0.9007    1.4585    6.8441 N.am      1 <0>        -0.7196
     17 C11         0.6747    1.4377    8.2914 C.3       1 <0>         0.1936
     18 H2          0.6791    0.4066    8.6450 H         1 <0>         0.1151
     19 C12        -0.6784    2.0789    8.6056 C.3       1 <0>         0.0671
     20 O2         -0.6446    3.4620    8.2481 O.3       1 <0>        -0.5679
     21 C13         1.7691    2.2101    8.9818 C.ar      1 <0>        -0.0800
     22 C14         2.2339    3.3908    8.4327 C.ar      1 <0>        -0.0878
     23 C15         3.2376    4.0999    9.0653 C.ar      1 <0>        -0.1063
     24 C16         3.7776    3.6287   10.2474 C.ar      1 <0>        -0.1060
     25 C17         3.3130    2.4475   10.7973 C.ar      1 <0>        -0.0330
     26 C18         2.3039    1.7412   10.1666 C.ar      1 <0>        -0.0995
     27 Cl1         3.9906    1.8551   12.2818 Cl        1 <0>        -0.0646
     28 N5          0.0566   -4.0726   -0.0296 N.pl3     1 <0>        -0.6343
     29 C19        -0.0458   -4.7598   -1.2451 C.ar      1 <0>         0.1751
     30 C20         0.5331   -4.2337   -2.3922 C.ar      1 <0>        -0.0790
     31 C21         0.4313   -4.9133   -3.5903 C.ar      1 <0>        -0.1244
     32 C22        -0.2479   -6.1187   -3.6487 C.ar      1 <0>         0.0911
     33 C23        -0.8262   -6.6460   -2.5066 C.ar      1 <0>        -0.1233
     34 C24        -0.7221   -5.9722   -1.3042 C.ar      1 <0>        -0.0461
     35 Cl2        -1.4417   -6.6366    0.1292 Cl        1 <0>        -0.0497
     36 F1         -0.3467   -6.7811   -4.8221 F         1 <0>        -0.1329
     37 H3          1.2465    1.8343   -0.1885 H         1 <0>         0.0707
     38 H4         -0.4266    1.8854   -0.7938 H         1 <0>         0.0708
     39 H5         -0.1141    1.8724    0.9584 H         1 <0>         0.0741
     40 H6         -0.1905   -0.1760   -2.1146 H         1 <0>         0.1720
     41 H7         -0.4050   -1.3135    3.9537 H         1 <0>         0.1555
     42 H8          1.8052    1.7087    1.8310 H         1 <0>         0.1848
     43 H9          1.4103    2.1799    6.4431 H         1 <0>         0.3965
     44 H10        -1.4599    1.5755    8.0364 H         1 <0>         0.0600
     45 H11        -0.8867    1.9840    9.6713 H         1 <0>         0.0601
     46 H12        -1.4713    3.9331    8.4202 H         1 <0>         0.3826
     47 H13         1.8129    3.7590    7.5088 H         1 <0>         0.1283
     48 H14         3.6003    5.0221    8.6359 H         1 <0>         0.1343
     49 H15         4.5624    4.1824   10.7413 H         1 <0>         0.1350
     50 H16         1.9377    0.8212   10.5978 H         1 <0>         0.1358
     51 H17         0.0974   -4.5661    0.8045 H         1 <0>         0.4273
     52 H18         1.0624   -3.2933   -2.3478 H         1 <0>         0.1555
     53 H19         0.8816   -4.5041   -4.4826 H         1 <0>         0.1456
     54 H20        -1.3555   -7.5862   -2.5544 H         1 <0>         0.1501
@<TRIPOS>BOND
     1    1    2 1
     2    1   37 1
     3    1   38 1
     4    1   39 1
     5    2    7 ar
     6    2    3 ar
     7    3    4 ar
     8    3   40 1
     9    4    5 ar
    10    5    6 ar
    11    5   28 1
    12    6    7 ar
    13    7    8 1
    14    8   13 2
    15    8    9 1
    16    9   10 2
    17    9   41 1
    18   10   11 1
    19   10   14 1
    20   11   12 1
    21   11   13 1
    22   13   42 1
    23   14   15 2
    24   14   16 am
    25   16   17 1
    26   16   43 1
    27   17   18 1
    28   17   19 1
    29   17   21 1
    30   19   20 1
    31   19   44 1
    32   19   45 1
    33   20   46 1
    34   21   26 ar
    35   21   22 ar
    36   22   23 ar
    37   22   47 1
    38   23   24 ar
    39   23   48 1
    40   24   25 ar
    41   24   49 1
    42   25   26 ar
    43   25   27 1
    44   26   50 1
    45   28   29 1
    46   28   51 1
    47   29   34 ar
    48   29   30 ar
    49   30   31 ar
    50   30   52 1
    51   31   32 ar
    52   31   53 1
    53   32   33 ar
    54   32   36 1
    55   33   34 ar
    56   33   54 1
    57   34   35 1
