@<TRIPOS>MOLECULE
ZINC34842284
   60    64     0     0     0
SMALL
USER_CHARGES

@<TRIPOS>ATOM
      1 C1         -0.0178    1.4608    0.0101 C.3       1 <0>         0.0965
      2 N1          0.0021   -0.0041    0.0020 N.pl3     1 <0>        -0.3671
      3 C2          0.0078   -0.7883   -1.0945 C.2       1 <0>         0.0815
      4 C3          0.0278   -2.0866   -0.6734 C.2       1 <0>        -0.2075
      5 C4          0.0343   -2.0758    0.7354 C.2       1 <0>         0.0682
      6 N2          0.0245   -0.8308    1.1317 N.2       1 <0>        -0.2890
      7 C5          0.0397   -3.2901   -1.5414 C.ar      1 <0>        -0.0366
      8 C6          0.0543   -4.5644   -0.9807 C.ar      1 <0>        -0.0385
      9 C7          0.0802   -5.6649   -1.8426 C.ar      1 <0>        -0.1799
     10 C8          0.1229   -5.4562   -3.2387 C.ar      1 <0>         0.1790
     11 C9          0.2532   -6.5705   -4.1609 C.2       1 <0>        -0.0928
     12 C10        -0.3414   -7.7510   -4.0859 C.2       1 <0>        -0.0827
     13 C11        -1.2649   -8.2108   -3.0641 C.ar      1 <0>        -0.0205
     14 C12        -2.3865   -8.9737   -3.4314 C.ar      1 <0>        -0.0788
     15 C13        -3.2359   -9.4502   -2.4792 C.ar      1 <0>        -0.1379
     16 C14        -3.0081   -9.1944   -1.1257 C.ar      1 <0>         0.1494
     17 C15        -1.9219   -8.4304   -0.7344 C.ar      1 <0>        -0.0939
     18 C16        -1.0553   -7.9152   -1.6995 C.ar      1 <0>        -0.1193
     19 C17         0.0500   -7.0298   -1.2992 C.2       1 <0>         0.4578
     20 O1          0.9175   -7.4185   -0.5376 O.2       1 <0>        -0.4210
     21 N3         -3.8773   -9.7097   -0.1653 N.pl3     1 <0>        -1.0655
     22 S1         -4.3812  -11.2840   -0.2641 S.o2      1 <0>         2.7793
     23 O2         -5.2247  -11.5116    0.8566 O.2       1 <0>        -0.9610
     24 O3         -4.8189  -11.4872   -1.6007 O.2       1 <0>        -0.9643
     25 N4         -3.0455  -12.2399   -0.0531 N.pl3     1 <0>        -0.9947
     26 C18        -2.6613  -12.6751    1.2920 C.3       1 <0>         0.0938
     27 C19        -2.2480  -12.6502   -1.2115 C.3       1 <0>         0.1210
     28 C20        -1.0763  -11.6831   -1.3923 C.3       1 <0>         0.0178
     29 H1         -1.4536  -10.6631   -1.4645 H         1 <0>         0.0816
     30 C21        -0.3126  -12.0380   -2.6715 C.3       1 <0>         0.0320
     31 O4          0.8442  -11.2023   -2.7746 O.3       1 <0>        -0.3693
     32 C22         1.7288  -11.3082   -1.6551 C.3       1 <0>         0.0253
     33 C23         0.9651  -10.9534   -0.3760 C.3       1 <0>         0.0211
     34 O5         -0.1924  -11.7879   -0.2721 O.3       1 <0>        -0.3671
     35 N5          0.0651   -4.2087   -3.7198 N.ar      1 <0>        -0.4628
     36 C24         0.0305   -3.1599   -2.9350 C.ar      1 <0>         0.1258
     37 H2          1.0048    1.8381    0.0023 H         1 <0>         0.0802
     38 H3         -0.5450    1.8219   -0.8730 H         1 <0>         0.0921
     39 H4         -0.5280    1.8123    0.9069 H         1 <0>         0.0936
     40 H5         -0.0021   -0.4506   -2.1203 H         1 <0>         0.1820
     41 H6          0.0494   -2.9451    1.3761 H         1 <0>         0.1866
     42 H7          0.0463   -4.6991    0.0909 H         1 <0>         0.1426
     43 H8          0.9100   -6.4187   -5.0047 H         1 <0>         0.1374
     44 H9         -0.1138   -8.4521   -4.8752 H         1 <0>         0.1386
     45 H10        -2.5760   -9.1830   -4.4738 H         1 <0>         0.1447
     46 H11        -4.0961  -10.0325   -2.7747 H         1 <0>         0.1659
     47 H12        -1.7458   -8.2343    0.3129 H         1 <0>         0.1371
     48 H13        -4.1869   -9.1460    0.5609 H         1 <0>         0.4277
     49 H14        -3.1500  -13.6222    1.5208 H         1 <0>         0.0607
     50 H15        -1.5799  -12.8040    1.3372 H         1 <0>         0.0884
     51 H16        -2.9683  -11.9229    2.0187 H         1 <0>         0.0679
     52 H17        -1.8656  -13.6582   -1.0506 H         1 <0>         0.0981
     53 H18        -2.8717  -12.6365   -2.1052 H         1 <0>         0.1107
     54 H19        -0.0048  -13.0830   -2.6340 H         1 <0>         0.0632
     55 H20        -0.9562  -11.8775   -3.5364 H         1 <0>         0.1055
     56 H21         2.1052  -12.3286   -1.5835 H         1 <0>         0.0597
     57 H22         2.5636  -10.6192   -1.7840 H         1 <0>         0.1035
     58 H23         1.6087  -11.1138    0.4889 H         1 <0>         0.1029
     59 H24         0.6574   -9.9084   -0.4134 H         1 <0>         0.0696
     60 H25        -0.0017   -2.1732   -3.3730 H         1 <0>         0.1615
@<TRIPOS>BOND
     1    1    2 1
     2    1   37 1
     3    1   38 1
     4    1   39 1
     5    2    6 1
     6    2    3 1
     7    3    4 2
     8    3   40 1
     9    4    5 1
    10    4    7 1
    11    5    6 2
    12    5   41 1
    13    7   36 ar
    14    7    8 ar
    15    8    9 ar
    16    8   42 1
    17    9   19 1
    18    9   10 ar
    19   10   11 1
    20   10   35 ar
    21   11   12 2
    22   11   43 1
    23   12   13 1
    24   12   44 1
    25   13   18 ar
    26   13   14 ar
    27   14   15 ar
    28   14   45 1
    29   15   16 ar
    30   15   46 1
    31   16   17 ar
    32   16   21 1
    33   17   18 ar
    34   17   47 1
    35   18   19 1
    36   19   20 2
    37   21   22 1
    38   21   48 1
    39   22   23 2
    40   22   24 2
    41   22   25 1
    42   25   26 1
    43   25   27 1
    44   26   49 1
    45   26   50 1
    46   26   51 1
    47   27   28 1
    48   27   52 1
    49   27   53 1
    50   28   29 1
    51   28   34 1
    52   28   30 1
    53   30   31 1
    54   30   54 1
    55   30   55 1
    56   31   32 1
    57   32   33 1
    58   32   56 1
    59   32   57 1
    60   33   34 1
    61   33   58 1
    62   33   59 1
    63   35   36 ar
    64   36   60 1
@<TRIPOS>MOLECULE
ZINC34842284
   59    63     0     0     0
SMALL
USER_CHARGES

@<TRIPOS>ATOM
      1 C1         -0.0178    1.4608    0.0101 C.3       1 <0>         0.1007
      2 N1          0.0021   -0.0041    0.0020 N.pl3     1 <0>        -0.3736
      3 C2          0.0078   -0.7883   -1.0945 C.2       1 <0>         0.0703
      4 C3          0.0278   -2.0866   -0.6734 C.2       1 <0>        -0.1902
      5 C4          0.0343   -2.0758    0.7354 C.2       1 <0>         0.0673
      6 N2          0.0245   -0.8308    1.1317 N.2       1 <0>        -0.2943
      7 C5          0.0397   -3.2901   -1.5414 C.ar      1 <0>        -0.0608
      8 C6          0.0543   -4.5644   -0.9807 C.ar      1 <0>        -0.0333
      9 C7          0.0802   -5.6649   -1.8426 C.ar      1 <0>        -0.1792
     10 C8          0.1229   -5.4562   -3.2387 C.ar      1 <0>         0.2045
     11 C9          0.2532   -6.5705   -4.1609 C.2       1 <0>        -0.1592
     12 C10        -0.3414   -7.7510   -4.0859 C.2       1 <0>        -0.0231
     13 C11        -1.2649   -8.2108   -3.0641 C.ar      1 <0>        -0.1647
     14 C12        -2.3865   -8.9737   -3.4314 C.ar      1 <0>        -0.0353
     15 C13        -3.2359   -9.4502   -2.4792 C.ar      1 <0>        -0.2465
     16 C14        -3.0081   -9.1944   -1.1257 C.ar      1 <0>         0.3005
     17 C15        -1.9219   -8.4304   -0.7344 C.ar      1 <0>        -0.1500
     18 C16        -1.0553   -7.9152   -1.6995 C.ar      1 <0>        -0.0837
     19 C17         0.0500   -7.0298   -1.2992 C.2       1 <0>         0.4609
     20 O1          0.9175   -7.4185   -0.5376 O.2       1 <0>        -0.4397
     21 N3         -3.8773   -9.7097   -0.1653 N.2       1 <0>        -1.0971
     22 S1         -5.1776  -10.6235   -0.6305 S.o2      1 <0>         2.7153
     23 O2         -6.0456   -9.7582   -1.3496 O.2       1 <0>        -1.0429
     24 O3         -4.6537  -11.8178   -1.1947 O.2       1 <0>        -1.0457
     25 N4         -5.9839  -11.0648    0.7470 N.pl3     1 <0>        -0.9885
     26 C18        -7.0496  -10.2109    1.2774 C.3       1 <0>         0.1091
     27 C19        -5.6314  -12.3092    1.4352 C.3       1 <0>         0.1365
     28 C20        -4.6323  -12.0078    2.5540 C.3       1 <0>         0.0329
     29 H1         -3.7717  -11.4810    2.1417 H         1 <0>         0.0873
     30 C21        -4.1704  -13.3198    3.1948 C.3       1 <0>         0.0320
     31 O4         -3.3244  -13.0250    4.3103 O.3       1 <0>        -0.3784
     32 C22        -3.9524  -12.2119    5.3061 C.3       1 <0>         0.0246
     33 C23        -4.4143  -10.8999    4.6653 C.3       1 <0>         0.0237
     34 O5         -5.2598  -11.1934    3.5490 O.3       1 <0>        -0.3667
     35 N5          0.0651   -4.2087   -3.7198 N.ar      1 <0>        -0.4751
     36 C24         0.0305   -3.1599   -2.9350 C.ar      1 <0>         0.1218
     37 H2          1.0048    1.8381    0.0023 H         1 <0>         0.0758
     38 H3         -0.5450    1.8219   -0.8730 H         1 <0>         0.0888
     39 H4         -0.5280    1.8123    0.9069 H         1 <0>         0.0902
     40 H5         -0.0021   -0.4506   -2.1203 H         1 <0>         0.1795
     41 H6          0.0494   -2.9451    1.3761 H         1 <0>         0.1876
     42 H7          0.0463   -4.6991    0.0909 H         1 <0>         0.1396
     43 H8          0.9100   -6.4187   -5.0047 H         1 <0>         0.1239
     44 H9         -0.1138   -8.4521   -4.8752 H         1 <0>         0.1183
     45 H10        -2.5760   -9.1830   -4.4738 H         1 <0>         0.1151
     46 H11        -4.0961  -10.0325   -2.7747 H         1 <0>         0.1021
     47 H12        -1.7458   -8.2343    0.3129 H         1 <0>         0.1215
     48 H13        -8.0037  -10.5080    0.8422 H         1 <0>         0.0404
     49 H14        -7.0955  -10.3181    2.3611 H         1 <0>         0.0728
     50 H15        -6.8424   -9.1713    1.0236 H         1 <0>         0.0649
     51 H16        -6.5299  -12.7559    1.8610 H         1 <0>         0.0781
     52 H17        -5.1826  -13.0029    0.7243 H         1 <0>         0.1032
     53 H18        -5.0384  -13.8845    3.5350 H         1 <0>         0.0590
     54 H19        -3.6164  -13.9075    2.4628 H         1 <0>         0.1068
     55 H20        -4.8131  -12.7393    5.7173 H         1 <0>         0.0563
     56 H21        -3.2406  -11.9973    6.1031 H         1 <0>         0.1003
     57 H22        -4.9682  -10.3122    5.3973 H         1 <0>         0.0994
     58 H23        -3.5462  -10.3353    4.3251 H         1 <0>         0.0629
     59 H24        -0.0017   -2.1732   -3.3730 H         1 <0>         0.1540
@<TRIPOS>BOND
     1    1    2 1
     2    1   37 1
     3    1   38 1
     4    1   39 1
     5    2    6 1
     6    2    3 1
     7    3    4 2
     8    3   40 1
     9    4    5 1
    10    4    7 1
    11    5    6 2
    12    5   41 1
    13    7   36 ar
    14    7    8 ar
    15    8    9 ar
    16    8   42 1
    17    9   19 1
    18    9   10 ar
    19   10   11 1
    20   10   35 ar
    21   11   12 2
    22   11   43 1
    23   12   13 1
    24   12   44 1
    25   13   18 ar
    26   13   14 ar
    27   14   15 ar
    28   14   45 1
    29   15   16 ar
    30   15   46 1
    31   16   17 ar
    32   16   21 1
    33   17   18 ar
    34   17   47 1
    35   18   19 1
    36   19   20 2
    37   21   22 1
    38   22   23 2
    39   22   24 2
    40   22   25 1
    41   25   26 1
    42   25   27 1
    43   26   48 1
    44   26   49 1
    45   26   50 1
    46   27   28 1
    47   27   51 1
    48   27   52 1
    49   28   29 1
    50   28   34 1
    51   28   30 1
    52   30   31 1
    53   30   53 1
    54   30   54 1
    55   31   32 1
    56   32   33 1
    57   32   55 1
    58   32   56 1
    59   33   34 1
    60   33   57 1
    61   33   58 1
    62   35   36 ar
    63   36   59 1
@<TRIPOS>MOLECULE
ZINC72105034
   70    73     0     0     0
SMALL
USER_CHARGES

@<TRIPOS>ATOM
      1 C1         -3.0465   -3.1127   14.8741 C.3       1 <0>        -0.1892
      2 C2         -3.2466   -2.2549   13.6230 C.3       1 <0>        -0.0108
      3 N1         -4.1264   -2.9600   12.6814 N.4       1 <0>        -0.3829
      4 C3         -3.4647   -4.1874   12.2214 C.3       1 <0>        -0.0274
      5 C4         -4.4254   -4.9810   11.3297 C.3       1 <0>         0.1010
      6 N2         -4.8919   -4.1005   10.2474 N.pl3     1 <0>        -0.6456
      7 C5         -5.4217   -2.7770   10.6103 C.3       1 <0>         0.1015
      8 C6         -4.4140   -2.0875   11.5359 C.3       1 <0>        -0.0220
      9 C7         -4.8337   -4.5106    8.9106 C.ar      1 <0>         0.1766
     10 C8         -4.2262   -5.7148    8.5795 C.ar      1 <0>        -0.1629
     11 C9         -4.1692   -6.1195    7.2606 C.ar      1 <0>        -0.0646
     12 C10        -4.7193   -5.3226    6.2653 C.ar      1 <0>         0.1310
     13 C11        -5.3268   -4.1185    6.5964 C.ar      1 <0>        -0.1041
     14 C12        -5.3885   -3.7162    7.9158 C.ar      1 <0>        -0.1629
     15 N3         -4.6611   -5.7330    4.9274 N.pl3     1 <0>        -0.6533
     16 C13        -4.7431   -7.0808    4.6114 C.ar      1 <0>         0.4484
     17 C14        -4.5642   -7.5111    3.2990 C.ar      1 <0>        -0.3232
     18 C15        -4.6563   -8.8727    3.0342 C.ar      1 <0>         0.4562
     19 N4         -4.9104   -9.7105    4.0371 N.ar      1 <0>        -0.5358
     20 C16        -5.0737   -9.2649    5.2660 C.ar      1 <0>         0.3663
     21 N5         -4.9887   -7.9832    5.5591 N.ar      1 <0>        -0.5884
     22 N6         -4.4859   -9.3527    1.7400 N.am      1 <0>        -0.5513
     23 C17        -4.0993   -8.4367    0.6640 C.3       1 <0>         0.0633
     24 C18        -4.6764  -10.6605    1.4758 C.2       1 <0>         0.6965
     25 O1         -4.9972  -11.4206    2.3688 O.2       1 <0>        -0.4771
     26 N7         -4.5113  -11.1256    0.2217 N.am      1 <0>        -0.6806
     27 C19        -4.5933  -12.5005   -0.0317 C.ar      1 <0>         0.2488
     28 C20        -3.5635  -13.1459   -0.7035 C.ar      1 <0>        -0.1156
     29 C21        -3.6457  -14.5077   -0.9540 C.ar      1 <0>         0.1985
     30 C22        -4.7561  -15.2246   -0.5342 C.ar      1 <0>        -0.2856
     31 C23        -5.7851  -14.5810    0.1368 C.ar      1 <0>         0.1981
     32 C24        -5.7020  -13.2205    0.3937 C.ar      1 <0>        -0.0913
     33 Cl1        -6.9867  -12.4166    1.2405 Cl        1 <0>        -0.0174
     34 O2         -6.8731  -15.2849    0.5478 O.3       1 <0>        -0.2934
     35 C25        -6.8895  -16.6834    0.2548 C.3       1 <0>         0.0217
     36 O3         -2.6377  -15.1397   -1.6116 O.3       1 <0>        -0.2949
     37 C26        -2.7887  -16.5430   -1.8355 C.3       1 <0>         0.0219
     38 Cl2        -2.1738  -12.2486   -1.2302 Cl        1 <0>        -0.0383
     39 H1         -2.3937   -2.5895   15.5727 H         1 <0>         0.1068
     40 H2         -4.0114   -3.2967   15.3466 H         1 <0>         0.0809
     41 H3         -2.5919   -4.0630   14.5941 H         1 <0>         0.0805
     42 H4         -3.7012   -1.3046   13.9030 H         1 <0>         0.1310
     43 H5         -2.2817   -2.0709   13.1505 H         1 <0>         0.1281
     44 H6         -2.5717   -3.9277   11.6528 H         1 <0>         0.1321
     45 H7         -3.1838   -4.7935   13.0827 H         1 <0>         0.1410
     46 H8         -3.9058   -5.8399   10.9049 H         1 <0>         0.1268
     47 H9         -5.2773   -5.3195   11.9194 H         1 <0>         0.0863
     48 H10        -5.5608   -2.1788    9.7098 H         1 <0>         0.1256
     49 H11        -6.3742   -2.8930   11.1273 H         1 <0>         0.0858
     50 H12        -4.8326   -1.1462   11.8921 H         1 <0>         0.1394
     51 H13        -3.4923   -1.8913   10.9881 H         1 <0>         0.1318
     52 H14        -3.7980   -6.3344    9.3535 H         1 <0>         0.1245
     53 H15        -3.6964   -7.0558    7.0031 H         1 <0>         0.1406
     54 H16        -5.7546   -3.4987    5.8223 H         1 <0>         0.1287
     55 H17        -5.8648   -2.7819    8.1738 H         1 <0>         0.1249
     56 H18        -4.5634   -5.0745    4.2219 H         1 <0>         0.4207
     57 H19        -4.3595   -6.8053    2.5076 H         1 <0>         0.1461
     58 H20        -5.2787   -9.9712    6.0569 H         1 <0>         0.2006
     59 H21        -3.0123   -8.3941    0.5961 H         1 <0>         0.0784
     60 H22        -4.5087   -8.7932   -0.2812 H         1 <0>         0.0834
     61 H23        -4.4893   -7.4413    0.8765 H         1 <0>         0.0916
     62 H24        -4.3356  -10.5081   -0.5055 H         1 <0>         0.4126
     63 H25        -4.8197  -16.2847   -0.7302 H         1 <0>         0.1546
     64 H26        -7.8108  -17.1238    0.6364 H         1 <0>         0.1096
     65 H27        -6.8368  -16.8293   -0.8241 H         1 <0>         0.0610
     66 H28        -6.0336  -17.1640    0.7287 H         1 <0>         0.0609
     67 H29        -3.6841  -16.7217   -2.4308 H         1 <0>         0.0613
     68 H30        -1.9165  -16.9218   -2.3683 H         1 <0>         0.1099
     69 H31        -2.8806  -17.0558   -0.8781 H         1 <0>         0.0610
     70 H32        -4.9899   -3.1998   13.1451 H         1 <0>         0.4221
@<TRIPOS>BOND
     1    1    2 1
     2    1   39 1
     3    1   40 1
     4    1   41 1
     5    2    3 1
     6    2   42 1
     7    2   43 1
     8    3    8 1
     9    3    4 1
    10    3   70 1
    11    4    5 1
    12    4   44 1
    13    4   45 1
    14    5    6 1
    15    5   46 1
    16    5   47 1
    17    6    7 1
    18    6    9 1
    19    7    8 1
    20    7   48 1
    21    7   49 1
    22    8   50 1
    23    8   51 1
    24    9   14 ar
    25    9   10 ar
    26   10   11 ar
    27   10   52 1
    28   11   12 ar
    29   11   53 1
    30   12   13 ar
    31   12   15 1
    32   13   14 ar
    33   13   54 1
    34   14   55 1
    35   15   16 1
    36   15   56 1
    37   16   21 ar
    38   16   17 ar
    39   17   18 ar
    40   17   57 1
    41   18   19 ar
    42   18   22 1
    43   19   20 ar
    44   20   21 ar
    45   20   58 1
    46   22   23 1
    47   22   24 am
    48   23   59 1
    49   23   60 1
    50   23   61 1
    51   24   25 2
    52   24   26 am
    53   26   27 1
    54   26   62 1
    55   27   32 ar
    56   27   28 ar
    57   28   29 ar
    58   28   38 1
    59   29   30 ar
    60   29   36 1
    61   30   31 ar
    62   30   63 1
    63   31   32 ar
    64   31   34 1
    65   32   33 1
    66   34   35 1
    67   35   64 1
    68   35   65 1
    69   35   66 1
    70   36   37 1
    71   37   67 1
    72   37   68 1
    73   37   69 1
@<TRIPOS>MOLECULE
ZINC72105034
   69    72     0     0     0
SMALL
USER_CHARGES

@<TRIPOS>ATOM
      1 C1         -3.4378   -3.9375   14.6684 C.3       1 <0>        -0.1502
      2 C2         -3.5006   -3.0159   13.4488 C.3       1 <0>         0.0503
      3 N1         -4.3406   -3.6313   12.4127 N.3       1 <0>        -0.5378
      4 C3         -3.7251   -4.8621   11.8984 C.3       1 <0>         0.0363
      5 C4         -4.7086   -5.5666   10.9578 C.3       1 <0>         0.1266
      6 N2         -5.1378   -4.6085    9.9278 N.pl3     1 <0>        -0.6321
      7 C5         -5.6391   -3.2963   10.3636 C.3       1 <0>         0.1276
      8 C6         -4.6190   -2.6811   11.3275 C.3       1 <0>         0.0396
      9 C7         -5.0714   -4.9369    8.5689 C.ar      1 <0>         0.2080
     10 C8         -4.4894   -6.1336    8.1714 C.ar      1 <0>        -0.1806
     11 C9         -4.4244   -6.4578    6.8309 C.ar      1 <0>        -0.0579
     12 C10        -4.9408   -5.5873    5.8801 C.ar      1 <0>         0.0956
     13 C11        -5.5227   -4.3907    6.2776 C.ar      1 <0>        -0.0967
     14 C12        -5.5926   -4.0689    7.6185 C.ar      1 <0>        -0.1814
     15 N3         -4.8743   -5.9160    4.5202 N.pl3     1 <0>        -0.6480
     16 C13        -4.9857   -7.2392    4.1204 C.ar      1 <0>         0.4532
     17 C14        -4.7996   -7.5924    2.7862 C.ar      1 <0>        -0.3285
     18 C15        -4.9221   -8.9324    2.4366 C.ar      1 <0>         0.4515
     19 N4         -5.2108   -9.8235    3.3827 N.ar      1 <0>        -0.5423
     20 C16        -5.3796   -9.4503    4.6347 C.ar      1 <0>         0.3655
     21 N5         -5.2667   -8.1917    5.0075 N.ar      1 <0>        -0.5828
     22 N6         -4.7461   -9.3361    1.1173 N.am      1 <0>        -0.5515
     23 C17        -4.3221   -8.3659    0.1048 C.3       1 <0>         0.0649
     24 C18        -4.9656  -10.6198    0.7705 C.2       1 <0>         0.6963
     25 O1         -5.3174  -11.4249    1.6108 O.2       1 <0>        -0.4774
     26 N7         -4.7950  -11.0110   -0.5080 N.am      1 <0>        -0.6824
     27 C19        -4.9079  -12.3651   -0.8468 C.ar      1 <0>         0.2515
     28 C20        -3.8855  -12.9943   -1.5448 C.ar      1 <0>        -0.1156
     29 C21        -3.9983  -14.3355   -1.8800 C.ar      1 <0>         0.1969
     30 C22        -5.1319  -15.0480   -1.5188 C.ar      1 <0>        -0.2867
     31 C23        -6.1535  -14.4206   -0.8218 C.ar      1 <0>         0.1972
     32 C24        -6.0399  -13.0811   -0.4802 C.ar      1 <0>        -0.0912
     33 Cl1        -7.3156  -12.2980    0.3991 Cl        1 <0>        -0.0151
     34 O2         -7.2642  -15.1202   -0.4683 O.3       1 <0>        -0.2933
     35 C25        -7.3116  -16.4972   -0.8473 C.3       1 <0>         0.0224
     36 O3         -2.9975  -14.9516   -2.5633 O.3       1 <0>        -0.2955
     37 C26        -3.1804  -16.3341   -2.8753 C.3       1 <0>         0.0225
     38 Cl2        -2.4668  -12.1023   -1.9981 Cl        1 <0>        -0.0388
     39 H1         -2.8146   -3.4808   15.4373 H         1 <0>         0.0601
     40 H2         -4.4435   -4.0912   15.0599 H         1 <0>         0.0642
     41 H3         -3.0108   -4.8971   14.3771 H         1 <0>         0.0548
     42 H4         -3.9276   -2.0563   13.7401 H         1 <0>         0.0754
     43 H5         -2.4950   -2.8622   13.0574 H         1 <0>         0.0324
     44 H6         -2.8150   -4.6131   11.3528 H         1 <0>         0.0373
     45 H7         -3.4816   -5.5223   12.7308 H         1 <0>         0.0881
     46 H8         -4.2176   -6.4171   10.4850 H         1 <0>         0.0867
     47 H9         -5.5752   -5.9086   11.5236 H         1 <0>         0.0692
     48 H10        -5.7633   -2.6458    9.4978 H         1 <0>         0.0853
     49 H11        -6.5952   -3.4200   10.8723 H         1 <0>         0.0688
     50 H12        -5.0237   -1.7596   11.7460 H         1 <0>         0.0847
     51 H13        -3.6964   -2.4625   10.7899 H         1 <0>         0.0375
     52 H14        -4.0875   -6.8104    8.9108 H         1 <0>         0.1239
     53 H15        -3.9715   -7.3882    6.5217 H         1 <0>         0.1333
     54 H16        -5.9244   -3.7138    5.5381 H         1 <0>         0.1213
     55 H17        -6.0491   -3.1403    7.9278 H         1 <0>         0.1240
     56 H18        -4.7504   -5.2181    3.8580 H         1 <0>         0.4169
     57 H19        -4.5666   -6.8448    2.0425 H         1 <0>         0.1434
     58 H20        -5.6130  -10.1984    5.3779 H         1 <0>         0.1992
     59 H21        -3.2335   -8.3472    0.0528 H         1 <0>         0.0766
     60 H22        -4.7274   -8.6529   -0.8655 H         1 <0>         0.0808
     61 H23        -4.6901   -7.3757    0.3737 H         1 <0>         0.0918
     62 H24        -4.5941  -10.3546   -1.1933 H         1 <0>         0.4120
     63 H25        -5.2193  -16.0921   -1.7808 H         1 <0>         0.1535
     64 H26        -7.2478  -16.5777   -1.9325 H         1 <0>         0.0599
     65 H27        -6.4745  -17.0279   -0.3938 H         1 <0>         0.0605
     66 H28        -8.2486  -16.9363   -0.5049 H         1 <0>         0.1088
     67 H29        -3.2981  -16.9023   -1.9526 H         1 <0>         0.0606
     68 H30        -4.0718  -16.4527   -3.4913 H         1 <0>         0.0604
     69 H31        -2.3108  -16.7017   -3.4200 H         1 <0>         0.1087
@<TRIPOS>BOND
     1    1    2 1
     2    1   39 1
     3    1   40 1
     4    1   41 1
     5    2    3 1
     6    2   42 1
     7    2   43 1
     8    3    8 1
     9    3    4 1
    10    4    5 1
    11    4   44 1
    12    4   45 1
    13    5    6 1
    14    5   46 1
    15    5   47 1
    16    6    7 1
    17    6    9 1
    18    7    8 1
    19    7   48 1
    20    7   49 1
    21    8   50 1
    22    8   51 1
    23    9   14 ar
    24    9   10 ar
    25   10   11 ar
    26   10   52 1
    27   11   12 ar
    28   11   53 1
    29   12   13 ar
    30   12   15 1
    31   13   14 ar
    32   13   54 1
    33   14   55 1
    34   15   16 1
    35   15   56 1
    36   16   21 ar
    37   16   17 ar
    38   17   18 ar
    39   17   57 1
    40   18   19 ar
    41   18   22 1
    42   19   20 ar
    43   20   21 ar
    44   20   58 1
    45   22   23 1
    46   22   24 am
    47   23   59 1
    48   23   60 1
    49   23   61 1
    50   24   25 2
    51   24   26 am
    52   26   27 1
    53   26   62 1
    54   27   32 ar
    55   27   28 ar
    56   28   29 ar
    57   28   38 1
    58   29   30 ar
    59   29   36 1
    60   30   31 ar
    61   30   63 1
    62   31   32 ar
    63   31   34 1
    64   32   33 1
    65   34   35 1
    66   35   64 1
    67   35   65 1
    68   35   66 1
    69   36   37 1
    70   37   67 1
    71   37   68 1
    72   37   69 1
@<TRIPOS>MOLECULE
ZINC03073318
   36    38     0     0     0
SMALL
USER_CHARGES
[5-(2-amino-6-oxo-1H-purin-9-yl)-3,4-dihydroxy-tetrahydrofuran-2-yl]methoxyphosphonic acid
@<TRIPOS>ATOM
      1 C1          0.9744    6.9648   -3.8387 C.2       1 <0>         0.2513
      2 N1          0.5772    7.6381   -4.8786 N.2       1 <0>        -0.4307
      3 C2          0.1547    8.8642   -4.4847 C.2       1 <0>        -0.1225
      4 C3         -0.3656    9.9916   -5.1624 C.2       1 <0>         0.5936
      5 O1         -0.5143    9.9795   -6.3724 O.2       1 <0>        -0.5138
      6 N2         -0.6941   11.0823   -4.4352 N.am      1 <0>        -0.6417
      7 H1         -1.0637   11.8917   -4.8916 H         1 <0>         0.4264
      8 C4         -0.5241   11.0847   -3.0828 C.2       1 <0>         0.5848
      9 N3         -0.0414   10.0439   -2.4415 N.2       1 <0>        -0.5397
     10 C5          0.3055    8.9288   -3.0949 C.2       1 <0>         0.2828
     11 N4          0.8196    7.7196   -2.7122 N.pl3     1 <0>        -0.4408
     12 C6          1.1494    7.3121   -1.3442 C.3       1 <0>         0.3009
     13 H2          0.4479    7.7555   -0.6374 H         1 <0>         0.1183
     14 C7          2.5979    7.7205   -0.9958 C.3       1 <0>         0.0362
     15 H3          3.1947    7.8216   -1.9023 H         1 <0>         0.0856
     16 C8          3.1201    6.5512   -0.1314 C.3       1 <0>         0.0480
     17 H4          3.3866    6.9025    0.8655 H         1 <0>         0.0904
     18 C9          1.9253    5.5746   -0.0597 C.3       1 <0>         0.0880
     19 H5          1.3437    5.7498    0.8454 H         1 <0>         0.0988
     20 O2          1.1346    5.8724   -1.2310 O.3       1 <0>        -0.3300
     21 C10         2.4176    4.1267   -0.1033 C.3       1 <0>         0.1468
     22 O3          1.3018    3.2407    0.0070 O.3       1 <0>        -0.7567
     23 P1          1.4507    1.6376   -0.0030 P.3       1 <0>         2.1339
     24 O4          2.1794    1.2174   -1.2207 O.2       1 <0>        -1.1633
     25 O5          4.2410    5.9258   -0.7595 O.3       1 <0>        -0.5308
     26 O6          2.6088    8.9390   -0.2492 O.3       1 <0>        -0.5444
     27 N5         -0.8665   12.2063   -2.3702 N.pl3     1 <0>        -0.7477
     28 H6          1.3650    5.9582   -3.8628 H         1 <0>         0.2324
     29 H7          3.1042    3.9512    0.7249 H         1 <0>         0.0551
     30 H8          2.9328    3.9463   -1.0468 H         1 <0>         0.0565
     31 H9          5.0198    6.4946   -0.8309 H         1 <0>         0.3712
     32 H10         3.4937    9.2419   -0.0037 H         1 <0>         0.3810
     33 H11        -0.3256   12.9835   -2.6918 H         1 <0>         0.3672
     34 H12        -0.7513   12.2231   -1.4072 H         1 <0>         0.3936
     35 O7         -0.0110    0.9628    0.0073 O.3       1 <0>        -1.1793
     36 O8          2.2685    1.1664    1.3013 O.3       1 <0>        -1.2015
@<TRIPOS>BOND
     1    1   11 1
     2    1    2 2
     3    1   28 1
     4    2    3 1
     5    3   10 2
     6    3    4 1
     7    4    5 2
     8    4    6 am
     9    6    7 1
    10    6    8 1
    11    8    9 2
    12    8   27 1
    13    9   10 1
    14   10   11 1
    15   11   12 1
    16   12   13 1
    17   12   20 1
    18   12   14 1
    19   14   15 1
    20   14   16 1
    21   14   26 1
    22   16   17 1
    23   16   18 1
    24   16   25 1
    25   18   19 1
    26   18   20 1
    27   18   21 1
    28   21   22 1
    29   21   29 1
    30   21   30 1
    31   22   23 1
    32   23   24 2
    33   23   35 1
    34   23   36 1
    35   25   31 1
    36   26   32 1
    37   27   33 1
    38   27   34 1
@<TRIPOS>MOLECULE
ZINC03869963
   36    38     0     0     0
SMALL
USER_CHARGES
[5-(2-amino-6-oxo-3H-purin-9-yl)-3,4-dihydroxy-tetrahydrofuran-2-yl]methoxyphosphonic acid
@<TRIPOS>ATOM
      1 C1         -0.0164    1.3597    0.0095 C.2       1 <0>         0.2684
      2 N1          1.2047    1.8120    0.0003 N.2       1 <0>        -0.4412
      3 C2          2.0649    0.7674   -0.0135 C.2       1 <0>        -0.1140
      4 C3          1.3053   -0.3962   -0.0125 C.2       1 <0>         0.2620
      5 N2          0.0021   -0.0041    0.0020 N.pl3     1 <0>        -0.4212
      6 C4         -1.1676   -0.8861    0.0084 C.3       1 <0>         0.2980
      7 H1         -0.9648   -1.7798    0.5985 H         1 <0>         0.1173
      8 C5         -1.5580   -1.2722   -1.4355 C.3       1 <0>         0.0360
      9 H2         -1.1622   -2.2559   -1.6880 H         1 <0>         0.0835
     10 C6         -3.1044   -1.2973   -1.4105 C.3       1 <0>         0.0457
     11 H3         -3.4726   -2.2942   -1.6527 H         1 <0>         0.0845
     12 C7         -3.4628   -0.9270    0.0458 C.3       1 <0>         0.0863
     13 H4         -3.6143   -1.8270    0.6417 H         1 <0>         0.0964
     14 O1         -2.3198   -0.1894    0.5309 O.3       1 <0>        -0.3319
     15 C8         -4.7160   -0.0500    0.0794 C.3       1 <0>         0.1483
     16 O2         -5.0545    0.2455    1.4359 O.3       1 <0>        -0.7573
     17 P1         -6.3222    1.1490    1.8466 P.3       1 <0>         2.1346
     18 O3         -6.2396    2.4567    1.1583 O.2       1 <0>        -1.1635
     19 O4         -3.6400   -0.3328   -2.3187 O.3       1 <0>        -0.5195
     20 O5         -1.0886   -0.2896   -2.3608 O.3       1 <0>        -0.5300
     21 N3          1.9486   -1.6071   -0.0251 N.2       1 <0>        -0.5488
     22 H5          5.0568   -0.6912   -0.0496 H         1 <0>         0.4270
     23 C9          3.3058   -1.6676   -0.0383 C.2       1 <0>         0.5697
     24 N4          4.0619   -0.5909   -0.0397 N.am      1 <0>        -0.6180
     25 C10         3.5254    0.6393   -0.0281 C.2       1 <0>         0.5887
     26 O6          4.2383    1.6306   -0.0292 O.2       1 <0>        -0.5090
     27 N5          3.9099   -2.8963   -0.0506 N.pl3     1 <0>        -0.7487
     28 H6         -0.9070    1.9706    0.0213 H         1 <0>         0.2278
     29 H7         -4.5240    0.8789   -0.4578 H         1 <0>         0.0567
     30 H8         -5.5428   -0.5794   -0.3943 H         1 <0>         0.0533
     31 H9         -3.4447   -0.5165   -3.2478 H         1 <0>         0.3664
     32 H10        -1.3063   -0.4821   -3.2831 H         1 <0>         0.3755
     33 H11         4.4720   -2.9831   -0.8731 H         1 <0>         0.3668
     34 H12         3.3700   -3.7022   -0.0496 H         1 <0>         0.3922
     35 O7         -7.6790    0.3988    1.4126 O.3       1 <0>        -1.2021
     36 O8         -6.3228    1.3803    3.4399 O.3       1 <0>        -1.1799
@<TRIPOS>BOND
     1    1   28 1
     2    1    5 1
     3    1    2 2
     4    2    3 1
     5    3    4 2
     6    3   25 1
     7    4    5 1
     8    4   21 1
     9    5    6 1
    10    6    7 1
    11    6   14 1
    12    6    8 1
    13    8    9 1
    14    8   10 1
    15    8   20 1
    16   10   11 1
    17   10   12 1
    18   10   19 1
    19   12   13 1
    20   12   14 1
    21   12   15 1
    22   15   16 1
    23   15   29 1
    24   15   30 1
    25   16   17 1
    26   17   18 2
    27   17   35 1
    28   17   36 1
    29   19   31 1
    30   20   32 1
    31   21   23 2
    32   22   24 1
    33   23   24 1
    34   23   27 1
    35   24   25 am
    36   25   26 2
    37   27   34 1
    38   27   33 1
@<TRIPOS>MOLECULE
ZINC03869964
   36    38     0     0     0
SMALL
USER_CHARGES
[5-(2-amino-6-oxo-3H-purin-9-yl)-3,4-dihydroxy-tetrahydrofuran-2-yl]methoxyphosphonic acid
@<TRIPOS>ATOM
      1 C1         -3.0711    0.5590    1.4640 C.2       1 <0>         0.2309
      2 N1         -3.5946   -0.4828    2.0442 N.2       1 <0>        -0.4262
      3 C2         -2.6241   -1.1592    2.7014 C.2       1 <0>        -0.1182
      4 C3         -1.4309   -0.4771    2.4967 C.2       1 <0>         0.2634
      5 N2         -1.7311    0.5961    1.7155 N.pl3     1 <0>        -0.4507
      6 C4         -0.7879    1.6099    1.2371 C.3       1 <0>         0.2892
      7 H1         -0.0945    1.8887    2.0306 H         1 <0>         0.1461
      8 C5         -0.0146    1.0868    0.0064 C.3       1 <0>         0.0474
      9 H2         -0.0005   -0.0030   -0.0010 H         1 <0>         0.0785
     10 C6         -0.8145    1.6261   -1.2006 C.3       1 <0>         0.0454
     11 H3         -1.1959    0.8028   -1.8046 H         1 <0>         0.0841
     12 C7         -1.9797    2.4111   -0.5582 C.3       1 <0>         0.0626
     13 H4         -2.8646    1.7797   -0.4792 H         1 <0>         0.0944
     14 O1         -1.5010    2.7726    0.7556 O.3       1 <0>        -0.3077
     15 C8         -2.2926    3.6649   -1.3773 C.3       1 <0>         0.1494
     16 O2         -3.4447    4.3131   -0.8345 O.3       1 <0>        -0.7581
     17 P1         -4.0597    5.6680   -1.4494 P.3       1 <0>         2.1345
     18 O3         -4.3491    5.4702   -2.8873 O.2       1 <0>        -1.1659
     19 O4         -0.0017    2.4949   -1.9921 O.3       1 <0>        -0.5193
     20 O5          1.3176    1.6036   -0.0047 O.3       1 <0>        -0.5316
     21 N3         -0.2829   -0.9656    3.0656 N.2       1 <0>        -0.5469
     22 H5         -1.3861   -3.6006    4.5955 H         1 <0>         0.4281
     23 C9         -0.3119   -2.0975    3.8165 C.2       1 <0>         0.5744
     24 N4         -1.4196   -2.7732    4.0349 N.am      1 <0>        -0.6182
     25 C10        -2.5936   -2.3747    3.5208 C.2       1 <0>         0.5895
     26 O6         -3.6146   -3.0106    3.7314 O.2       1 <0>        -0.5047
     27 N5          0.8562   -2.5524    4.3671 N.pl3     1 <0>        -0.7488
     28 H6         -3.6146    1.2823    0.8743 H         1 <0>         0.2350
     29 H7         -1.4417    4.3451   -1.3400 H         1 <0>         0.0565
     30 H8         -2.4878    3.3836   -2.4121 H         1 <0>         0.0558
     31 H9          0.7785    2.0670   -2.3706 H         1 <0>         0.3664
     32 H10         1.8391    1.3304   -0.7718 H         1 <0>         0.3805
     33 H11         0.7674   -2.5784    5.3628 H         1 <0>         0.3690
     34 H12         1.6834   -2.0684    4.2182 H         1 <0>         0.3935
     35 O7         -5.4210    6.0397   -0.6742 O.3       1 <0>        -1.1790
     36 O8         -2.9987    6.8664   -1.2755 O.3       1 <0>        -1.1993
@<TRIPOS>BOND
     1    1   28 1
     2    1    5 1
     3    1    2 2
     4    2    3 1
     5    3    4 2
     6    3   25 1
     7    4    5 1
     8    4   21 1
     9    5    6 1
    10    6    7 1
    11    6   14 1
    12    6    8 1
    13    8    9 1
    14    8   10 1
    15    8   20 1
    16   10   11 1
    17   10   12 1
    18   10   19 1
    19   12   13 1
    20   12   14 1
    21   12   15 1
    22   15   16 1
    23   15   29 1
    24   15   30 1
    25   16   17 1
    26   17   18 2
    27   17   35 1
    28   17   36 1
    29   19   31 1
    30   20   32 1
    31   21   23 2
    32   22   24 1
    33   23   24 1
    34   23   27 1
    35   24   25 am
    36   25   26 2
    37   27   34 1
    38   27   33 1
@<TRIPOS>MOLECULE
ZINC03869965
   36    38     0     0     0
SMALL
USER_CHARGES
[5-(2-amino-6-oxo-3H-purin-9-yl)-3,4-dihydroxy-tetrahydrofuran-2-yl]methoxyphosphonic acid
@<TRIPOS>ATOM
      1 C1          5.5441   -0.8481    3.7712 C.2       1 <0>         0.2438
      2 N1          6.7319   -1.3564    3.9345 N.2       1 <0>        -0.4345
      3 C2          6.7211   -2.1717    5.0146 C.2       1 <0>        -0.1202
      4 C3          5.4350   -2.1474    5.5404 C.2       1 <0>         0.2751
      5 N2          4.7100   -1.3155    4.7438 N.pl3     1 <0>        -0.4333
      6 C4          3.2935   -0.9785    4.9054 C.3       1 <0>         0.2953
      7 H1          2.7435   -1.8501    5.2602 H         1 <0>         0.1373
      8 C5          3.1419    0.1809    5.9091 C.3       1 <0>         0.0418
      9 H2          2.4816   -0.1046    6.7280 H         1 <0>         0.0910
     10 C6          2.5102    1.3232    5.0768 C.3       1 <0>         0.0456
     11 H3          2.9617    2.2830    5.3278 H         1 <0>         0.0896
     12 C7          2.8685    0.9055    3.6278 C.3       1 <0>         0.0761
     13 H4          3.8880    1.2036    3.3834 H         1 <0>         0.0951
     14 O1          2.7507   -0.5333    3.6494 O.3       1 <0>        -0.3166
     15 C8          1.8781    1.5122    2.6317 C.3       1 <0>         0.1451
     16 O2          2.2685    1.1664    1.3013 O.3       1 <0>        -0.7560
     17 P1          1.4507    1.6376   -0.0030 P.3       1 <0>         2.1337
     18 O3          1.3138    3.1113    0.0062 O.2       1 <0>        -1.1660
     19 O4          1.0936    1.3645    5.2601 O.3       1 <0>        -0.5294
     20 O5          4.4193    0.5766    6.4129 O.3       1 <0>        -0.5407
     21 N3          5.1620   -2.8947    6.6572 N.2       1 <0>        -0.5451
     22 H5          8.0448   -4.2489    7.2536 H         1 <0>         0.4260
     23 C9          6.1352   -3.6383    7.2453 C.2       1 <0>         0.5679
     24 N4          7.3660   -3.6854    6.7828 N.am      1 <0>        -0.6185
     25 C10         7.7293   -2.9927    5.6921 C.2       1 <0>         0.5885
     26 O6          8.8749   -3.0455    5.2728 O.2       1 <0>        -0.5108
     27 N5          5.8232   -4.3666    8.3618 N.pl3     1 <0>        -0.7498
     28 H6          5.2628   -0.1618    2.9861 H         1 <0>         0.2243
     29 H7          1.8736    2.5969    2.7388 H         1 <0>         0.0537
     30 H8          0.8793    1.1234    2.8299 H         1 <0>         0.0565
     31 H9          0.8196    1.6209    6.1513 H         1 <0>         0.3724
     32 H10         4.3891    1.3407    7.0049 H         1 <0>         0.3810
     33 H11         5.9896   -5.3366    8.1844 H         1 <0>         0.3669
     34 H12         4.9214   -4.3451    8.7186 H         1 <0>         0.3915
     35 O7         -0.0110    0.9628    0.0073 O.3       1 <0>        -1.1990
     36 O8          2.2434    1.1806   -1.3277 O.3       1 <0>        -1.1783
@<TRIPOS>BOND
     1    1   28 1
     2    1    5 1
     3    1    2 2
     4    2    3 1
     5    3    4 2
     6    3   25 1
     7    4    5 1
     8    4   21 1
     9    5    6 1
    10    6    7 1
    11    6   14 1
    12    6    8 1
    13    8    9 1
    14    8   10 1
    15    8   20 1
    16   10   11 1
    17   10   12 1
    18   10   19 1
    19   12   13 1
    20   12   14 1
    21   12   15 1
    22   15   16 1
    23   15   29 1
    24   15   30 1
    25   16   17 1
    26   17   18 2
    27   17   35 1
    28   17   36 1
    29   19   31 1
    30   20   32 1
    31   21   23 2
    32   22   24 1
    33   23   24 1
    34   23   27 1
    35   24   25 am
    36   25   26 2
    37   27   34 1
    38   27   33 1
@<TRIPOS>MOLECULE
ZINC03938668
   78    83     0     0     0
SMALL
USER_CHARGES
(3Z)-5-[(2,6-dichlorophenyl)methylsulfonyl]-3-[[3,5-dimethyl-4-[(2R)-2-(pyrrolidin-1-ylmethyl)pyrrolidine-1-carbonyl]-1H-pyrrol-2-yl]methylene]indolin-2-one
@<TRIPOS>ATOM
      1 C1         -0.7804    4.1238    1.6079 C.3       1 <0>        -0.0960
      2 C2         -0.9726    4.6897    0.2244 C.2       1 <0>        -0.0607
      3 C3         -0.9678    6.0252   -0.1267 C.2       1 <0>        -0.0103
      4 N1         -1.1776    6.1091   -1.4877 N.pl3     1 <0>        -0.5058
      5 H1         -1.2151    7.0927   -1.9788 H         1 <0>         0.4526
      6 C4         -1.3063    4.8709   -1.9930 C.2       1 <0>         0.1214
      7 C5         -1.1916    3.9565   -0.9615 C.2       1 <0>        -0.2390
      8 C6         -1.2760    2.4895   -1.0798 C.2       1 <0>         0.6263
      9 O1         -2.3332    1.9231   -0.8791 O.2       1 <0>        -0.5312
     10 N2         -0.1814    1.7760   -1.4104 N.am      1 <0>        -0.6102
     11 C7          1.1289    2.3374   -1.7862 C.3       1 <0>         0.0945
     12 C8          2.1473    1.2140   -1.4689 C.3       1 <0>        -0.1313
     13 C9          1.3462   -0.0540   -1.8662 C.3       1 <0>        -0.1476
     14 C10        -0.0982    0.3091   -1.4621 C.3       1 <0>         0.1232
     15 H2         -0.3668   -0.0907   -0.4732 H         1 <0>         0.0985
     16 C11        -1.0811   -0.2315   -2.5027 C.3       1 <0>        -0.0300
     17 N3         -1.0687   -1.7001   -2.4715 N.4       1 <0>        -0.4055
     18 C12        -1.4282   -2.2069   -1.1224 C.3       1 <0>        -0.0070
     19 C13        -1.8742   -3.6648   -1.3986 C.3       1 <0>        -0.1422
     20 C14        -2.6181   -3.5488   -2.7488 C.3       1 <0>        -0.1420
     21 C15        -2.0804   -2.2584   -3.3947 C.3       1 <0>         0.0003
     22 C16        -1.5403    4.5341   -3.4431 C.3       1 <0>        -0.0982
     23 C17        -0.7809    7.1139    0.7528 C.2       1 <0>         0.0674
     24 C18        -0.0436    8.2091    0.3488 C.2       1 <0>        -0.1862
     25 C19         0.1315    9.4910    1.0671 C.ar      1 <0>        -0.1261
     26 C20        -0.3451    9.9774    2.2802 C.ar      1 <0>         0.0349
     27 C21         0.0020   11.2481    2.6918 C.ar      1 <0>        -0.6830
     28 C22         0.8216   12.0351    1.8996 C.ar      1 <0>         0.0160
     29 C23         1.2993   11.5622    0.6943 C.ar      1 <0>        -0.1533
     30 C24         0.9609   10.2842    0.2627 C.ar      1 <0>         0.1949
     31 N4          1.2972    9.5757   -0.8843 N.am      1 <0>        -0.6619
     32 C25         0.7421    8.3519   -0.8845 C.2       1 <0>         0.5661
     33 O2          0.8659    7.5098   -1.7560 O.2       1 <0>        -0.5064
     34 S1         -0.5977   11.8700    4.2274 S.o2      1 <0>         2.4923
     35 O3         -0.6057   13.2821    4.0685 O.2       1 <0>        -0.9142
     36 O4         -1.8068   11.1602    4.4587 O.2       1 <0>        -0.9168
     37 C26         0.6543   11.3856    5.4474 C.3       1 <0>        -0.5804
     38 C27         0.2398   11.8713    6.8125 C.ar      1 <0>        -0.0824
     39 C28         0.6370   13.1213    7.2522 C.ar      1 <0>        -0.0134
     40 C29         0.2525   13.5684    8.5039 C.ar      1 <0>        -0.1017
     41 C30        -0.5202   12.7625    9.3187 C.ar      1 <0>        -0.0801
     42 C31        -0.9129   11.5113    8.8819 C.ar      1 <0>        -0.1026
     43 C32        -0.5331   11.0650    7.6285 C.ar      1 <0>        -0.0131
     44 Cl1        -1.0260    9.4933    7.0804 Cl        1 <0>        -0.0402
     45 Cl2         1.6131   14.1310    6.2316 Cl        1 <0>        -0.0366
     46 H3         -0.6314    4.9463    2.3230 H         1 <0>         0.0714
     47 H4          0.1016    3.4666    1.6159 H         1 <0>         0.0679
     48 H5         -1.6712    3.5455    1.8945 H         1 <0>         0.0744
     49 H6          1.1249    2.5935   -2.8560 H         1 <0>         0.0745
     50 H7          1.3235    3.2432   -1.1931 H         1 <0>         0.0913
     51 H8          3.0552    1.3610   -2.0723 H         1 <0>         0.0968
     52 H9          2.4078    1.2462   -0.4007 H         1 <0>         0.0864
     53 H10         1.4517   -0.2307   -2.9468 H         1 <0>         0.0891
     54 H11         1.7351   -0.9217   -1.3131 H         1 <0>         0.0968
     55 H12        -2.0939    0.1316   -2.2738 H         1 <0>         0.1409
     56 H13        -0.7842    0.1165   -3.5031 H         1 <0>         0.1304
     57 H14        -0.5485   -2.1534   -0.4642 H         1 <0>         0.1309
     58 H15        -2.2377   -1.5913   -0.7032 H         1 <0>         0.1330
     59 H16        -0.9884   -4.3143   -1.4576 H         1 <0>         0.0978
     60 H17        -2.5276   -4.0091   -0.5834 H         1 <0>         0.1154
     61 H18        -2.3979   -4.4324   -3.3658 H         1 <0>         0.1062
     62 H19        -3.7013   -3.4894   -2.5667 H         1 <0>         0.1046
     63 H20        -2.8908   -1.5280   -3.5357 H         1 <0>         0.1285
     64 H21        -1.6106   -2.4766   -4.3651 H         1 <0>         0.1311
     65 H22        -1.6040    3.4422   -3.5602 H         1 <0>         0.0747
     66 H23        -0.7066    4.9198   -4.0482 H         1 <0>         0.0827
     67 H24        -2.4811    4.9945   -3.7792 H         1 <0>         0.0818
     68 H25        -1.2227    7.0895    1.7599 H         1 <0>         0.1616
     69 H26        -0.9843    9.3632    2.8971 H         1 <0>         0.1477
     70 H27         1.0890   13.0286    2.2281 H         1 <0>         0.1534
     71 H28         1.9375   12.1854    0.0856 H         1 <0>         0.1429
     72 H29         1.9432   10.0368   -1.6460 H         1 <0>         0.4510
     73 H30         0.7482   10.2897    5.4610 H         1 <0>         0.1539
     74 H31         1.6221   11.8332    5.1772 H         1 <0>         0.1551
     75 H32         0.5597   14.5456    8.8460 H         1 <0>         0.1501
     76 H33        -0.8169   13.1104   10.2971 H         1 <0>         0.1513
     77 H34        -1.5167   10.8820    9.5190 H         1 <0>         0.1494
     78 H35        -0.0502   -1.9971   -2.7620 H         1 <0>         0.4439
@<TRIPOS>BOND
     1    1    2 1
     2    1   46 1
     3    1   47 1
     4    1   48 1
     5    2    7 1
     6    2    3 2
     7    3    4 1
     8    3   23 1
     9    4    5 1
    10    4    6 1
    11    6    7 2
    12    6   22 1
    13    7    8 1
    14    8    9 2
    15    8   10 am
    16   10   14 1
    17   10   11 1
    18   11   12 1
    19   11   49 1
    20   11   50 1
    21   12   13 1
    22   12   51 1
    23   12   52 1
    24   13   14 1
    25   13   53 1
    26   13   54 1
    27   14   15 1
    28   14   16 1
    29   16   17 1
    30   16   55 1
    31   16   56 1
    32   17   21 1
    33   17   18 1
    34   17   78 1
    35   18   19 1
    36   18   57 1
    37   18   58 1
    38   19   20 1
    39   19   59 1
    40   19   60 1
    41   20   21 1
    42   20   61 1
    43   20   62 1
    44   21   63 1
    45   21   64 1
    46   22   65 1
    47   22   66 1
    48   22   67 1
    49   23   24 2
    50   23   68 1
    51   24   32 1
    52   24   25 1
    53   25   30 ar
    54   25   26 ar
    55   26   27 ar
    56   26   69 1
    57   27   28 ar
    58   27   34 1
    59   28   29 ar
    60   28   70 1
    61   29   30 ar
    62   29   71 1
    63   30   31 1
    64   31   32 am
    65   31   72 1
    66   32   33 2
    67   34   35 2
    68   34   36 2
    69   34   37 1
    70   37   38 1
    71   37   73 1
    72   37   74 1
    73   38   43 ar
    74   38   39 ar
    75   39   40 ar
    76   39   45 1
    77   40   41 ar
    78   40   75 1
    79   41   42 ar
    80   41   76 1
    81   42   43 ar
    82   42   77 1
    83   43   44 1
@<TRIPOS>MOLECULE
ZINC39716080
   55    58     0     0     0
SMALL
USER_CHARGES

@<TRIPOS>ATOM
      1 C1          1.3709    0.9111    1.0902 C.3       1 <0>        -0.1500
      2 C2          0.8626   -0.4828    0.7164 C.3       1 <0>        -0.0138
      3 O1          1.5780   -0.9605   -0.4246 O.3       1 <0>        -0.2863
      4 C3          1.2738   -2.2022   -0.8641 C.2       1 <0>         0.2884
      5 C4          1.9722   -2.7703   -1.9417 C.2       1 <0>        -0.2388
      6 C5          1.6579   -4.0136   -2.3716 C.2       1 <0>         0.1912
      7 N1          0.6716   -4.7371   -1.7802 N.am      1 <0>        -0.4588
      8 C6         -0.0307   -4.2436   -0.7433 C.2       1 <0>         0.5583
      9 O2         -0.9109   -4.9119   -0.2287 O.2       1 <0>        -0.5208
     10 C7          0.2582   -2.9493   -0.2479 C.2       1 <0>        -0.3934
     11 C8         -0.4935   -2.3973    0.8847 C.2       1 <0>         0.6183
     12 O3         -0.0910   -2.5638    2.0211 O.2       1 <0>        -0.5010
     13 N2         -1.6297   -1.7060    0.6666 N.am      1 <0>        -0.6687
     14 C9         -2.2973   -1.1003    1.7381 C.ar      1 <0>         0.1889
     15 C10        -1.5939   -0.7393    2.8798 C.ar      1 <0>        -0.1353
     16 C11        -2.2520   -0.1418    3.9369 C.ar      1 <0>        -0.0623
     17 C12        -3.6157    0.0981    3.8594 C.ar      1 <0>         0.0222
     18 C13        -4.3209   -0.2625    2.7179 C.ar      1 <0>         0.1272
     19 C14        -3.6616   -0.8554    1.6571 C.ar      1 <0>        -0.1748
     20 F1         -5.6496   -0.0295    2.6427 F         1 <0>        -0.1204
     21 O4         -4.2629    0.6861    4.9011 O.3       1 <0>        -0.2283
     22 C15        -4.8804   -0.1183    5.8035 C.ar      1 <0>         0.2111
     23 C16        -4.7587   -1.5058    5.7249 C.ar      1 <0>        -0.2962
     24 C17        -5.3988   -2.2921    6.6581 C.ar      1 <0>         0.1928
     25 N3         -6.1224   -1.7502    7.6209 N.ar      1 <0>        -0.5470
     26 C18        -6.2644   -0.4378    7.7323 C.ar      1 <0>         0.4493
     27 C19        -5.6448    0.4207    6.8319 C.ar      1 <0>        -0.1891
     28 Cl1        -5.8279    2.1401    6.9855 Cl        1 <0>        -0.0463
     29 N4         -7.0368    0.0864    8.7636 N.pl3     1 <0>        -0.8375
     30 C20         0.3796   -6.0211   -2.2590 C.ar      1 <0>         0.0846
     31 C21        -0.8417   -6.2745   -2.8691 C.ar      1 <0>        -0.0573
     32 C22        -1.1277   -7.5407   -3.3403 C.ar      1 <0>        -0.1416
     33 C23        -0.1974   -8.5575   -3.2043 C.ar      1 <0>         0.1182
     34 C24         1.0213   -8.3069   -2.5961 C.ar      1 <0>        -0.1418
     35 C25         1.3134   -7.0405   -2.1291 C.ar      1 <0>        -0.0757
     36 F2         -0.4793   -9.7958   -3.6651 F         1 <0>        -0.1305
     37 H1          2.4344    0.8595    1.3235 H         1 <0>         0.0712
     38 H2          1.2153    1.5912    0.2527 H         1 <0>         0.0688
     39 H3          0.8252    1.2755    1.9605 H         1 <0>         0.0855
     40 H4          1.0182   -1.1629    1.5538 H         1 <0>         0.1059
     41 H5         -0.2009   -0.4312    0.4830 H         1 <0>         0.0892
     42 H6          2.7603   -2.2141   -2.4276 H         1 <0>         0.1700
     43 H7          2.2016   -4.4397   -3.2018 H         1 <0>         0.1815
     44 H8         -1.9850   -1.6281   -0.2326 H         1 <0>         0.4184
     45 H9         -0.5320   -0.9261    2.9413 H         1 <0>         0.1608
     46 H10        -1.7044    0.1383    4.8246 H         1 <0>         0.1504
     47 H11        -4.2083   -1.1319    0.7676 H         1 <0>         0.1503
     48 H12        -4.1696   -1.9586    4.9412 H         1 <0>         0.1433
     49 H13        -5.3078   -3.3667    6.6012 H         1 <0>         0.1690
     50 H14        -7.4683   -0.5084    9.3968 H         1 <0>         0.4115
     51 H15        -7.1439    1.0466    8.8495 H         1 <0>         0.4122
     52 H16        -1.5677   -5.4819   -2.9747 H         1 <0>         0.1389
     53 H17        -2.0775   -7.7381   -3.8149 H         1 <0>         0.1476
     54 H18         1.7454   -9.1012   -2.4910 H         1 <0>         0.1484
     55 H19         2.2658   -6.8442   -1.6592 H         1 <0>         0.1425
@<TRIPOS>BOND
     1    1    2 1
     2    1   37 1
     3    1   38 1
     4    1   39 1
     5    2    3 1
     6    2   40 1
     7    2   41 1
     8    3    4 1
     9    4   10 2
    10    4    5 1
    11    5    6 2
    12    5   42 1
    13    6    7 1
    14    6   43 1
    15    7    8 am
    16    7   30 1
    17    8    9 2
    18    8   10 1
    19   10   11 1
    20   11   12 2
    21   11   13 am
    22   13   14 1
    23   13   44 1
    24   14   19 ar
    25   14   15 ar
    26   15   16 ar
    27   15   45 1
    28   16   17 ar
    29   16   46 1
    30   17   18 ar
    31   17   21 1
    32   18   19 ar
    33   18   20 1
    34   19   47 1
    35   21   22 1
    36   22   27 ar
    37   22   23 ar
    38   23   24 ar
    39   23   48 1
    40   24   25 ar
    41   24   49 1
    42   25   26 ar
    43   26   27 ar
    44   26   29 1
    45   27   28 1
    46   29   50 1
    47   29   51 1
    48   30   35 ar
    49   30   31 ar
    50   31   32 ar
    51   31   52 1
    52   32   33 ar
    53   32   53 1
    54   33   34 ar
    55   33   36 1
    56   34   35 ar
    57   34   54 1
    58   35   55 1
@<TRIPOS>MOLECULE
ZINC55760827
   83    87     0     0     0
SMALL
USER_CHARGES

@<TRIPOS>ATOM
      1 C1          0.1308    1.2757   -1.5114 C.3       1 <0>        -0.1457
      2 C2          0.0489   -0.2316   -1.2617 C.3       1 <0>        -0.5666
      3 C3          1.2691   -0.6821   -0.4560 C.3       1 <0>        -0.1409
      4 S1         -1.4624   -0.6093   -0.3323 S.o2      1 <0>         2.4858
      5 O1         -1.4234    0.0188    0.9418 O.2       1 <0>        -0.9268
      6 O2         -2.6005   -0.4734   -1.1723 O.2       1 <0>        -0.9405
      7 C4         -1.3622   -2.3341    0.0135 C.ar      1 <0>        -0.6839
      8 C5         -1.2554   -2.7725    1.3190 C.ar      1 <0>        -0.0030
      9 C6         -1.1772   -4.1258    1.5912 C.ar      1 <0>        -0.1503
     10 C7         -1.2056   -5.0450    0.5581 C.ar      1 <0>        -0.0467
     11 C8         -1.3123   -4.6135   -0.7492 C.ar      1 <0>        -0.1331
     12 C9         -1.3964   -3.2546   -1.0259 C.ar      1 <0>         0.2443
     13 N1         -1.5099   -2.8147   -2.3478 N.pl3     1 <0>        -0.6616
     14 C10        -0.8607   -3.4990   -3.3646 C.ar      1 <0>         0.4830
     15 C11        -0.8842   -3.0123   -4.6745 C.ar      1 <0>        -0.2526
     16 C12        -0.2236   -3.7275   -5.6550 C.ar      1 <0>         0.2363
     17 N2          0.4082   -4.8455   -5.3272 N.ar      1 <0>        -0.5723
     18 C13         0.4137   -5.2832   -4.0770 C.ar      1 <0>         0.5997
     19 N3         -0.2026   -4.6244   -3.1067 N.ar      1 <0>        -0.5908
     20 N4          1.0856   -6.4561   -3.7754 N.pl3     1 <0>        -0.6151
     21 C14         1.8542   -7.0973   -4.7591 C.ar      1 <0>         0.0827
     22 C15         2.3739   -6.3680   -5.8182 C.ar      1 <0>        -0.0385
     23 C16         3.1307   -6.9985   -6.7873 C.ar      1 <0>        -0.2089
     24 C17         3.3726   -8.3634   -6.7029 C.ar      1 <0>         0.2363
     25 C18         2.8541   -9.0969   -5.6442 C.ar      1 <0>        -0.2647
     26 C19         2.1002   -8.4653   -4.6693 C.ar      1 <0>         0.1479
     27 O3          1.5961   -9.1808   -3.6285 O.3       1 <0>        -0.3171
     28 C20         1.8884  -10.5793   -3.6006 C.3       1 <0>         0.0308
     29 N5          4.1389   -8.9999   -7.6857 N.pl3     1 <0>        -0.6295
     30 C21         4.7972   -8.2205   -8.7431 C.3       1 <0>         0.1228
     31 C22         4.3883   -8.7923  -10.1042 C.3       1 <0>        -0.1329
     32 C23         4.7023  -10.2897  -10.1391 C.3       1 <0>         0.0908
     33 C24         3.8977  -11.0068   -9.0526 C.3       1 <0>        -0.1308
     34 C25         4.3056  -10.4596   -7.6763 C.3       1 <0>         0.1234
     35 N6          4.3421  -10.8347  -11.4549 N.3       1 <0>        -0.5357
     36 C26         5.0321  -10.1106  -12.5318 C.3       1 <0>         0.0201
     37 C27         4.5853  -10.6681  -13.8850 C.3       1 <0>        -0.0022
     38 N7          4.9025  -12.1007  -13.9534 N.4       1 <0>        -0.3883
     39 C28         4.1869  -12.8138  -12.8872 C.3       1 <0>        -0.0021
     40 C29         4.6303  -12.2741  -11.5256 C.3       1 <0>         0.0207
     41 C30         4.4898  -12.6315  -15.2595 C.3       1 <0>        -0.0459
     42 Cl1        -1.7246   -1.5432   -5.0610 Cl        1 <0>        -0.0377
     43 H1          1.0389    1.5027   -2.0698 H         1 <0>         0.0885
     44 H2         -0.7385    1.5967   -2.0853 H         1 <0>         0.0736
     45 H3          0.1503    1.8016   -0.5568 H         1 <0>         0.0788
     46 H4          0.0294   -0.7574   -2.2162 H         1 <0>         0.1318
     47 H5          2.1772   -0.4551   -1.0145 H         1 <0>         0.0814
     48 H6          1.2886   -0.1562    0.4985 H         1 <0>         0.0798
     49 H7          1.2107   -1.7559   -0.2782 H         1 <0>         0.0704
     50 H8         -1.2325   -2.0574    2.1279 H         1 <0>         0.1501
     51 H9         -1.0933   -4.4659    2.6128 H         1 <0>         0.1365
     52 H10        -1.1440   -6.1014    0.7741 H         1 <0>         0.1352
     53 H11        -1.3341   -5.3318   -1.5555 H         1 <0>         0.1523
     54 H12        -2.0426   -2.0307   -2.5540 H         1 <0>         0.4348
     55 H13        -0.2223   -3.3794   -6.6774 H         1 <0>         0.1828
     56 H14         1.0250   -6.8344   -2.8843 H         1 <0>         0.4275
     57 H15         2.1866   -5.3065   -5.8858 H         1 <0>         0.1583
     58 H16         3.5343   -6.4292   -7.6115 H         1 <0>         0.1269
     59 H17         3.0423  -10.1584   -5.5787 H         1 <0>         0.1320
     60 H18         1.4922  -11.0513   -4.4997 H         1 <0>         0.0544
     61 H19         2.9680  -10.7241   -3.5600 H         1 <0>         0.0558
     62 H20         1.4281  -11.0293   -2.7210 H         1 <0>         0.1025
     63 H21         4.4859   -7.1780   -8.6762 H         1 <0>         0.0942
     64 H22         5.8789   -8.2891   -8.6279 H         1 <0>         0.0623
     65 H23         3.3196   -8.6410  -10.2562 H         1 <0>         0.0830
     66 H24         4.9438   -8.2856  -10.8934 H         1 <0>         0.0745
     67 H25         5.7671  -10.4417   -9.9625 H         1 <0>         0.0537
     68 H26         2.8336  -10.8347   -9.2145 H         1 <0>         0.0823
     69 H27         4.1040  -12.0763   -9.0933 H         1 <0>         0.0730
     70 H28         5.3481  -10.7071   -7.4760 H         1 <0>         0.0623
     71 H29         3.6699  -10.8950   -6.9053 H         1 <0>         0.0877
     72 H30         4.7834   -9.0509  -12.4750 H         1 <0>         0.1272
     73 H31         6.1092  -10.2381  -12.4236 H         1 <0>         0.0603
     74 H32         3.5103  -10.5282  -13.9986 H         1 <0>         0.1375
     75 H33         5.1067  -10.1420  -14.6847 H         1 <0>         0.1357
     76 H34         3.1139  -12.6629  -13.0058 H         1 <0>         0.1374
     77 H35         4.4128  -13.8785  -12.9471 H         1 <0>         0.1354
     78 H36         5.7008  -12.4372  -11.4009 H         1 <0>         0.0602
     79 H37         4.0885  -12.7929  -10.7348 H         1 <0>         0.1256
     80 H38         5.0217  -12.1033  -16.0508 H         1 <0>         0.1244
     81 H39         4.7251  -13.6946  -15.3105 H         1 <0>         0.1242
     82 H40         3.4165  -12.4904  -15.3864 H         1 <0>         0.1232
     83 H41         5.8962  -12.2309  -13.8366 H         1 <0>         0.4222
@<TRIPOS>BOND
     1    1    2 1
     2    1   43 1
     3    1   44 1
     4    1   45 1
     5    2    3 1
     6    2    4 1
     7    2   46 1
     8    3   47 1
     9    3   48 1
    10    3   49 1
    11    4    5 2
    12    4    6 2
    13    4    7 1
    14    7   12 ar
    15    7    8 ar
    16    8    9 ar
    17    8   50 1
    18    9   10 ar
    19    9   51 1
    20   10   11 ar
    21   10   52 1
    22   11   12 ar
    23   11   53 1
    24   12   13 1
    25   13   14 1
    26   13   54 1
    27   14   19 ar
    28   14   15 ar
    29   15   16 ar
    30   15   42 1
    31   16   17 ar
    32   16   55 1
    33   17   18 ar
    34   18   19 ar
    35   18   20 1
    36   20   21 1
    37   20   56 1
    38   21   26 ar
    39   21   22 ar
    40   22   23 ar
    41   22   57 1
    42   23   24 ar
    43   23   58 1
    44   24   25 ar
    45   24   29 1
    46   25   26 ar
    47   25   59 1
    48   26   27 1
    49   27   28 1
    50   28   60 1
    51   28   61 1
    52   28   62 1
    53   29   34 1
    54   29   30 1
    55   30   31 1
    56   30   63 1
    57   30   64 1
    58   31   32 1
    59   31   65 1
    60   31   66 1
    61   32   33 1
    62   32   35 1
    63   32   67 1
    64   33   34 1
    65   33   68 1
    66   33   69 1
    67   34   70 1
    68   34   71 1
    69   35   40 1
    70   35   36 1
    71   36   37 1
    72   36   72 1
    73   36   73 1
    74   37   38 1
    75   37   74 1
    76   37   75 1
    77   38   39 1
    78   38   41 1
    79   38   83 1
    80   39   40 1
    81   39   76 1
    82   39   77 1
    83   40   78 1
    84   40   79 1
    85   41   80 1
    86   41   81 1
    87   41   82 1
@<TRIPOS>MOLECULE
ZINC35902489
   54    57     0     0     0
SMALL
USER_CHARGES

@<TRIPOS>ATOM
      1 C1         -0.2366    1.5009   -0.1002 C.3       1 <0>        -0.1868
      2 C2          0.0023   -0.0068    0.0032 C.3       1 <0>         0.1262
      3 H1         -0.9541   -0.5203    0.1009 H         1 <0>         0.1027
      4 C3          0.8549   -0.2986    1.2111 C.ar      1 <0>        -0.0648
      5 C4          2.2095   -0.0176    1.1860 C.ar      1 <0>        -0.0174
      6 C5          2.9928   -0.2851    2.2943 C.ar      1 <0>        -0.0698
      7 C6          2.4230   -0.8330    3.4283 C.ar      1 <0>        -0.1110
      8 C7          1.0682   -1.1142    3.4552 C.ar      1 <0>         0.1278
      9 C8          0.2825   -0.8418    2.3465 C.ar      1 <0>        -0.0562
     10 Cl1        -1.4183   -1.1878    2.3810 Cl        1 <0>        -0.0259
     11 F1          0.5110   -1.6502    4.5631 F         1 <0>        -0.1090
     12 Cl2         2.9265    0.6706   -0.2374 Cl        1 <0>        -0.0327
     13 O1          0.6709   -0.4649   -1.1737 O.3       1 <0>        -0.2750
     14 C9         -0.1076   -0.7749   -2.2450 C.ar      1 <0>         0.0922
     15 C10        -1.4721   -0.5389   -2.2126 C.ar      1 <0>        -0.0840
     16 C11        -2.2312   -0.8738   -3.3386 C.ar      1 <0>         0.0162
     17 C12        -1.5947   -1.4281   -4.4440 C.ar      1 <0>         0.0781
     18 N1         -0.2926   -1.6388   -4.4381 N.ar      1 <0>        -0.4651
     19 C13         0.4590   -1.3297   -3.3941 C.ar      1 <0>         0.4321
     20 N2          1.8309   -1.5659   -3.4397 N.pl3     1 <0>        -0.8070
     21 C14        -3.6979   -0.6410   -3.3535 C.2       1 <0>        -0.2043
     22 C15        -4.4627   -0.0847   -2.3100 C.2       1 <0>         0.0864
     23 N3         -5.7097   -0.0414   -2.6987 N.2       1 <0>        -0.2628
     24 N4         -5.7898   -0.5640   -3.9951 N.pl3     1 <0>        -0.3634
     25 C16        -4.5480   -0.9216   -4.3826 C.2       1 <0>         0.0838
     26 C17        -7.0103   -0.6949   -4.7948 C.3       1 <0>         0.1502
     27 C18        -6.9271   -1.9605   -5.6529 C.3       1 <0>        -0.1621
     28 C19        -8.1684   -2.0490   -6.5433 C.3       1 <0>        -0.0015
     29 N5         -8.2355   -0.8693   -7.4141 N.4       1 <0>        -0.5088
     30 C20        -8.3877    0.3426   -6.6000 C.3       1 <0>        -0.0035
     31 C21        -7.1548    0.5231   -5.7117 C.3       1 <0>        -0.1623
     32 H2          0.7199    2.0145   -0.1979 H         1 <0>         0.0878
     33 H3         -0.8533    1.7120   -0.9739 H         1 <0>         0.0744
     34 H4         -0.7466    1.8504    0.7975 H         1 <0>         0.0940
     35 H5          4.0502   -0.0661    2.2735 H         1 <0>         0.1611
     36 H6          3.0352   -1.0420    4.2932 H         1 <0>         0.1666
     37 H7         -1.9384   -0.1073   -1.3393 H         1 <0>         0.1754
     38 H8         -2.1735   -1.6895   -5.3175 H         1 <0>         0.2000
     39 H9          2.3867   -1.3451   -2.6760 H         1 <0>         0.4445
     40 H10         2.2306   -1.9511   -4.2352 H         1 <0>         0.4249
     41 H11        -4.0846    0.2477   -1.3545 H         1 <0>         0.1959
     42 H12        -4.2766   -1.3540   -5.3343 H         1 <0>         0.1825
     43 H13        -7.8744   -0.7577   -4.1333 H         1 <0>         0.1289
     44 H14        -6.0340   -1.9194   -6.2765 H         1 <0>         0.0978
     45 H15        -6.8801   -2.8365   -5.0059 H         1 <0>         0.1266
     46 H16        -8.1124   -2.9491   -7.1555 H         1 <0>         0.1473
     47 H17        -9.0608   -2.0903   -5.9188 H         1 <0>         0.1409
     48 H18        -7.3873   -0.8043   -7.9567 H         1 <0>         0.4290
     49 H19        -8.4936    1.2082   -7.2540 H         1 <0>         0.1462
     50 H20        -9.2754    0.2503   -5.9742 H         1 <0>         0.1402
     51 H21        -7.2705    1.4224   -5.1068 H         1 <0>         0.1256
     52 H22        -6.2665    0.6158   -6.3365 H         1 <0>         0.0962
     53 H23        -9.0248   -0.9564   -8.0365 H         1 <0>         0.4414
     54 H24         0.1260   -2.0273   -5.2222 H         1 <0>         0.4508
@<TRIPOS>BOND
     1    1    2 1
     2    1   32 1
     3    1   33 1
     4    1   34 1
     5    2    3 1
     6    2    4 1
     7    2   13 1
     8    4    9 ar
     9    4    5 ar
    10    5    6 ar
    11    5   12 1
    12    6    7 ar
    13    6   35 1
    14    7    8 ar
    15    7   36 1
    16    8    9 ar
    17    8   11 1
    18    9   10 1
    19   13   14 1
    20   14   19 ar
    21   14   15 ar
    22   15   16 ar
    23   15   37 1
    24   16   17 ar
    25   16   21 1
    26   17   18 ar
    27   17   38 1
    28   18   19 ar
    29   18   54 1
    30   19   20 1
    31   20   39 1
    32   20   40 1
    33   21   25 2
    34   21   22 1
    35   22   23 2
    36   22   41 1
    37   23   24 1
    38   24   25 1
    39   24   26 1
    40   25   42 1
    41   26   31 1
    42   26   27 1
    43   26   43 1
    44   27   28 1
    45   27   44 1
    46   27   45 1
    47   28   29 1
    48   28   46 1
    49   28   47 1
    50   29   30 1
    51   29   48 1
    52   29   53 1
    53   30   31 1
    54   30   49 1
    55   30   50 1
    56   31   51 1
    57   31   52 1
@<TRIPOS>MOLECULE
ZINC35902489
   53    56     0     0     0
SMALL
USER_CHARGES

@<TRIPOS>ATOM
      1 C1         -0.2366    1.5009   -0.1002 C.3       1 <0>        -0.1800
      2 C2          0.0023   -0.0068    0.0032 C.3       1 <0>         0.1238
      3 H1         -0.9541   -0.5203    0.1009 H         1 <0>         0.0939
      4 C3          0.8549   -0.2986    1.2111 C.ar      1 <0>        -0.0507
      5 C4          2.2095   -0.0176    1.1860 C.ar      1 <0>        -0.0168
      6 C5          2.9928   -0.2851    2.2943 C.ar      1 <0>        -0.0751
      7 C6          2.4230   -0.8330    3.4283 C.ar      1 <0>        -0.1208
      8 C7          1.0682   -1.1142    3.4552 C.ar      1 <0>         0.1197
      9 C8          0.2825   -0.8418    2.3465 C.ar      1 <0>        -0.0574
     10 Cl1        -1.4183   -1.1878    2.3810 Cl        1 <0>        -0.0303
     11 F1          0.5110   -1.6502    4.5631 F         1 <0>        -0.1157
     12 Cl2         2.9265    0.6706   -0.2374 Cl        1 <0>        -0.0266
     13 O1          0.6709   -0.4649   -1.1737 O.3       1 <0>        -0.2903
     14 C9         -0.1076   -0.7749   -2.2450 C.ar      1 <0>         0.0299
     15 C10        -1.4721   -0.5389   -2.2126 C.ar      1 <0>        -0.1219
     16 C11        -2.2312   -0.8738   -3.3386 C.ar      1 <0>        -0.0860
     17 C12        -1.5947   -1.4281   -4.4440 C.ar      1 <0>         0.1181
     18 N1         -0.2926   -1.6388   -4.4381 N.ar      1 <0>        -0.5097
     19 C13         0.4590   -1.3297   -3.3941 C.ar      1 <0>         0.3993
     20 N2          1.8309   -1.5659   -3.4397 N.pl3     1 <0>        -0.8414
     21 C14        -3.6979   -0.6410   -3.3535 C.2       1 <0>        -0.1558
     22 C15        -4.4627   -0.0847   -2.3100 C.2       1 <0>         0.0711
     23 N3         -5.7097   -0.0414   -2.6987 N.2       1 <0>        -0.2815
     24 N4         -5.7898   -0.5640   -3.9951 N.pl3     1 <0>        -0.3795
     25 C16        -4.5480   -0.9216   -4.3826 C.2       1 <0>         0.0495
     26 C17        -7.0103   -0.6949   -4.7948 C.3       1 <0>         0.1592
     27 C18        -6.9271   -1.9605   -5.6529 C.3       1 <0>        -0.1636
     28 C19        -8.1684   -2.0490   -6.5433 C.3       1 <0>         0.0000
     29 N5         -8.2355   -0.8693   -7.4141 N.4       1 <0>        -0.5082
     30 C20        -8.3877    0.3426   -6.6000 C.3       1 <0>        -0.0019
     31 C21        -7.1548    0.5231   -5.7117 C.3       1 <0>        -0.1640
     32 H2          0.7199    2.0145   -0.1979 H         1 <0>         0.0791
     33 H3         -0.8533    1.7120   -0.9739 H         1 <0>         0.0735
     34 H4         -0.7466    1.8504    0.7975 H         1 <0>         0.0781
     35 H5          4.0502   -0.0661    2.2735 H         1 <0>         0.1565
     36 H6          3.0352   -1.0420    4.2932 H         1 <0>         0.1608
     37 H7         -1.9384   -0.1073   -1.3393 H         1 <0>         0.1391
     38 H8         -2.1735   -1.6895   -5.3175 H         1 <0>         0.1503
     39 H9          2.3867   -1.3451   -2.6760 H         1 <0>         0.4140
     40 H10         2.2306   -1.9511   -4.2352 H         1 <0>         0.4065
     41 H11        -4.0846    0.2477   -1.3545 H         1 <0>         0.1874
     42 H12        -4.2766   -1.3540   -5.3343 H         1 <0>         0.1760
     43 H13        -7.8744   -0.7577   -4.1333 H         1 <0>         0.1197
     44 H14        -6.0340   -1.9194   -6.2765 H         1 <0>         0.0999
     45 H15        -6.8801   -2.8365   -5.0059 H         1 <0>         0.1250
     46 H16        -8.1124   -2.9491   -7.1555 H         1 <0>         0.1440
     47 H17        -9.0608   -2.0903   -5.9188 H         1 <0>         0.1374
     48 H18        -7.3873   -0.8043   -7.9567 H         1 <0>         0.4300
     49 H19        -8.4936    1.2082   -7.2540 H         1 <0>         0.1421
     50 H20        -9.2754    0.2503   -5.9742 H         1 <0>         0.1368
     51 H21        -7.2705    1.4224   -5.1068 H         1 <0>         0.1226
     52 H22        -6.2665    0.6158   -6.3365 H         1 <0>         0.0966
     53 H23        -9.0248   -0.9564   -8.0365 H         1 <0>         0.4369
@<TRIPOS>BOND
     1    1    2 1
     2    1   32 1
     3    1   33 1
     4    1   34 1
     5    2    3 1
     6    2    4 1
     7    2   13 1
     8    4    9 ar
     9    4    5 ar
    10    5    6 ar
    11    5   12 1
    12    6    7 ar
    13    6   35 1
    14    7    8 ar
    15    7   36 1
    16    8    9 ar
    17    8   11 1
    18    9   10 1
    19   13   14 1
    20   14   19 ar
    21   14   15 ar
    22   15   16 ar
    23   15   37 1
    24   16   17 ar
    25   16   21 1
    26   17   18 ar
    27   17   38 1
    28   18   19 ar
    29   19   20 1
    30   20   39 1
    31   20   40 1
    32   21   25 2
    33   21   22 1
    34   22   23 2
    35   22   41 1
    36   23   24 1
    37   24   25 1
    38   24   26 1
    39   25   42 1
    40   26   31 1
    41   26   27 1
    42   26   43 1
    43   27   28 1
    44   27   44 1
    45   27   45 1
    46   28   29 1
    47   28   46 1
    48   28   47 1
    49   29   30 1
    50   29   48 1
    51   29   53 1
    52   30   31 1
    53   30   49 1
    54   30   50 1
    55   31   51 1
    56   31   52 1
