@<TRIPOS>MOLECULE
ZINC28382402
   60    60     0     0     0
SMALL
USER_CHARGES

@<TRIPOS>ATOM
      1 C1         -5.6478    3.1665    3.0924 C.3       1 <0>        -0.1532
      2 C2         -4.5952    2.4265    2.2645 C.3       1 <0>        -0.1248
      3 C3         -5.1173    1.0348    1.9020 C.3       1 <0>        -0.1152
      4 C4         -4.0646    0.2949    1.0742 C.3       1 <0>        -0.0799
      5 C5         -4.5788   -1.0759    0.7171 C.2       1 <0>        -0.1235
      6 C6         -5.1819   -1.2776   -0.4561 C.2       1 <0>        -0.1246
      7 C7         -5.6812   -2.6084   -0.8028 C.2       1 <0>        -0.0980
      8 C8         -6.2923   -2.8128   -1.9917 C.2       1 <0>        -0.1398
      9 C9         -6.4592   -1.6697   -2.9596 C.3       1 <0>        -0.1049
     10 C10        -6.7917   -4.1439   -2.3385 C.2       1 <0>         0.4996
     11 O1         -6.7483   -5.0439   -1.5177 O.2       1 <0>        -0.4807
     12 C11        -7.3452   -4.3953   -3.6756 C.2       1 <0>        -0.5291
     13 C12        -8.7044   -4.7032   -3.8440 C.2       1 <0>         0.3570
     14 C13        -9.1840   -4.9355   -5.1468 C.2       1 <0>        -0.2633
     15 C14        -8.3427   -4.8598   -6.1984 C.2       1 <0>         0.1203
     16 O2         -7.0454   -4.5666   -6.0405 O.3       1 <0>        -0.2893
     17 C15        -6.5208   -4.3270   -4.8261 C.2       1 <0>         0.5201
     18 O3         -5.3383   -4.0568   -4.7145 O.2       1 <0>        -0.5380
     19 C16        -8.8756   -5.1118   -7.5853 C.3       1 <0>        -0.0689
     20 C17        -9.2409   -3.7787   -8.2414 C.3       1 <0>        -0.1133
     21 C18        -9.7819   -4.0346   -9.6495 C.3       1 <0>        -0.0716
     22 C19       -10.1416   -2.7215  -10.2957 C.2       1 <0>        -0.2059
     23 C20        -9.6225   -2.3974  -11.4641 C.2       1 <0>         0.0845
     24 N1         -9.9550   -1.1841  -12.0612 N.am      1 <0>        -0.6470
     25 C21        -9.4245   -0.8528  -13.2551 C.2       1 <0>         0.6453
     26 O4         -8.6562   -1.6129  -13.8104 O.2       1 <0>        -0.5569
     27 O5         -9.7460    0.3204  -13.8324 O.3       1 <0>        -0.3638
     28 C22        -9.1467    0.6065  -15.0978 C.3       1 <0>         0.0530
     29 O6         -9.5334   -4.7755   -2.7796 O.3       1 <0>        -0.6512
     30 C23        -4.4120   -2.2190    1.6849 C.3       1 <0>        -0.1218
     31 H1         -5.2759    4.1580    3.3506 H         1 <0>         0.0513
     32 H2         -6.5652    3.2625    2.5116 H         1 <0>         0.0540
     33 H3         -5.8524    2.6061    4.0046 H         1 <0>         0.0529
     34 H4         -4.3906    2.9869    1.3522 H         1 <0>         0.0605
     35 H5         -3.6778    2.3305    2.8453 H         1 <0>         0.0595
     36 H6         -5.3218    0.4745    2.8143 H         1 <0>         0.0624
     37 H7         -6.0346    1.1308    1.3212 H         1 <0>         0.0639
     38 H8         -3.8601    0.8553    0.1619 H         1 <0>         0.0673
     39 H9         -3.1472    0.1989    1.6550 H         1 <0>         0.0672
     40 H10        -5.3015   -0.4584   -1.1497 H         1 <0>         0.1166
     41 H11        -5.5616   -3.4276   -0.1092 H         1 <0>         0.1245
     42 H12        -5.5528   -1.5631   -3.5556 H         1 <0>         0.0709
     43 H13        -7.3049   -1.8709   -3.6171 H         1 <0>         0.0663
     44 H14        -6.6405   -0.7484   -2.4060 H         1 <0>         0.0573
     45 H15       -10.2254   -5.1746   -5.3043 H         1 <0>         0.1351
     46 H16        -8.1135   -5.6135   -8.1817 H         1 <0>         0.0848
     47 H17        -9.7628   -5.7421   -7.5247 H         1 <0>         0.0943
     48 H18       -10.0029   -3.2770   -7.6450 H         1 <0>         0.0711
     49 H19        -8.3536   -3.1484   -8.3020 H         1 <0>         0.0712
     50 H20        -9.0198   -4.5363  -10.2459 H         1 <0>         0.0698
     51 H21       -10.6691   -4.6649   -9.5889 H         1 <0>         0.0761
     52 H22       -10.8246   -2.0460   -9.8021 H         1 <0>         0.1143
     53 H23        -8.9396   -3.0729  -11.9577 H         1 <0>         0.1525
     54 H24       -10.5683   -0.5773  -11.6179 H         1 <0>         0.4139
     55 H25        -9.4317   -0.1616  -15.8167 H         1 <0>         0.0626
     56 H26        -9.4893    1.5793  -15.4504 H         1 <0>         0.1057
     57 H27        -8.0620    0.6199  -14.9913 H         1 <0>         0.0634
     58 H28        -5.2783   -2.2656    2.3448 H         1 <0>         0.0667
     59 H29        -4.3261   -3.1540    1.1314 H         1 <0>         0.0704
     60 H30        -3.5110   -2.0640    2.2784 H         1 <0>         0.0586
@<TRIPOS>BOND
     1    1    2 1
     2    1   31 1
     3    1   32 1
     4    1   33 1
     5    2    3 1
     6    2   34 1
     7    2   35 1
     8    3    4 1
     9    3   36 1
    10    3   37 1
    11    4    5 1
    12    4   38 1
    13    4   39 1
    14    5    6 2
    15    5   30 1
    16    6    7 1
    17    6   40 1
    18    7    8 2
    19    7   41 1
    20    8    9 1
    21    8   10 1
    22    9   42 1
    23    9   43 1
    24    9   44 1
    25   10   11 2
    26   10   12 1
    27   12   17 1
    28   12   13 2
    29   13   14 1
    30   13   29 1
    31   14   15 2
    32   14   45 1
    33   15   16 1
    34   15   19 1
    35   16   17 1
    36   17   18 2
    37   19   20 1
    38   19   46 1
    39   19   47 1
    40   20   21 1
    41   20   48 1
    42   20   49 1
    43   21   22 1
    44   21   50 1
    45   21   51 1
    46   22   23 2
    47   22   52 1
    48   23   24 1
    49   23   53 1
    50   24   25 am
    51   24   54 1
    52   25   26 2
    53   25   27 1
    54   27   28 1
    55   28   55 1
    56   28   56 1
    57   28   57 1
    58   30   58 1
    59   30   59 1
    60   30   60 1
