@<TRIPOS>MOLECULE
ZINC01539579
   53    55     0     0     0
SMALL
USER_CHARGES

@<TRIPOS>ATOM
      1 C1         -0.0184    1.5028    0.0103 C.3       1 <0>        -0.1142
      2 C2          0.0021   -0.0041    0.0020 C.ar      1 <0>        -0.0728
      3 C3          0.0059   -0.6899   -1.1923 C.ar      1 <0>        -0.1203
      4 C4          0.0272   -2.0796   -1.2131 C.ar      1 <0>        -0.0621
      5 C5          0.0478   -2.7839   -0.0284 C.ar      1 <0>        -0.0668
      6 C6          0.0400   -2.1020    1.1788 C.ar      1 <0>        -0.0985
      7 C7          0.0231   -0.7112    1.2029 C.ar      1 <0>        -0.0418
      8 C8          0.0217    0.0137    2.4968 C.2       1 <0>        -0.0323
      9 C9          1.1360    0.6210    2.9254 C.2       1 <0>        -0.1735
     10 C10        -1.2120    0.0660    3.3151 C.ar      1 <0>        -0.0657
     11 C11        -1.7321   -1.1055    3.8683 C.ar      1 <0>        -0.1208
     12 C12        -2.8741   -1.0587    4.6256 C.ar      1 <0>        -0.0854
     13 C13        -3.5179    0.1638    4.8442 C.ar      1 <0>        -0.1283
     14 C14        -2.9954    1.3369    4.2896 C.ar      1 <0>        -0.0860
     15 C15        -1.8502    1.2876    3.5371 C.ar      1 <0>        -0.1227
     16 C16        -4.7457    0.2157    5.6574 C.2       1 <0>         0.5179
     17 O1         -5.2024   -0.8105    6.1417 O.co2     1 <0>        -0.6875
     18 O2         -5.3082    1.2850    5.8482 O.co2     1 <0>        -0.6876
     19 C17         0.0879   -4.2891    0.0190 C.3       1 <0>        -0.0214
     20 C18        -0.3365   -4.8809   -1.3234 C.3       1 <0>        -0.1116
     21 C19         0.4845   -4.2083   -2.4299 C.3       1 <0>        -0.1102
     22 C20         0.0227   -2.7583   -2.5584 C.3       1 <0>        -0.0222
     23 C21        -1.3949   -2.7293   -3.1333 C.3       1 <0>        -0.1396
     24 C22         0.9650   -2.0106   -3.5039 C.3       1 <0>        -0.1406
     25 C23         1.5115   -4.7458    0.3441 C.3       1 <0>        -0.1382
     26 C24        -0.8617   -4.7848    1.1115 C.3       1 <0>        -0.1446
     27 H1          1.0042    1.8801    0.0026 H         1 <0>         0.0670
     28 H2         -0.5455    1.8639   -0.8728 H         1 <0>         0.0624
     29 H3         -0.5286    1.8543    0.9071 H         1 <0>         0.0713
     30 H4         -0.0082   -0.1420   -2.1229 H         1 <0>         0.1199
     31 H5          0.0510   -2.6543    2.1068 H         1 <0>         0.1223
     32 H6          1.1350    1.1488    3.8676 H         1 <0>         0.1054
     33 H7          2.0354    0.5828    2.3288 H         1 <0>         0.0997
     34 H8         -1.2348   -2.0492    3.6994 H         1 <0>         0.1108
     35 H9         -3.2766   -1.9653    5.0528 H         1 <0>         0.1261
     36 H10        -3.4913    2.2814    4.4575 H         1 <0>         0.1267
     37 H11        -1.4443    2.1937    3.1122 H         1 <0>         0.1131
     38 H12        -0.1479   -5.9544   -1.3274 H         1 <0>         0.0657
     39 H13        -1.3975   -4.6935   -1.4882 H         1 <0>         0.0692
     40 H14         1.5426   -4.2350   -2.1697 H         1 <0>         0.0677
     41 H15         0.3248   -4.7295   -3.3738 H         1 <0>         0.0648
     42 H16        -1.7207   -1.6951   -3.2449 H         1 <0>         0.0557
     43 H17        -1.4023   -3.2196   -4.1068 H         1 <0>         0.0561
     44 H18        -2.0717   -3.2526   -2.4579 H         1 <0>         0.0592
     45 H19         1.9746   -2.0203   -3.0932 H         1 <0>         0.0553
     46 H20         0.9644   -2.4988   -4.4784 H         1 <0>         0.0559
     47 H21         0.6272   -0.9801   -3.6135 H         1 <0>         0.0581
     48 H22         1.8108   -4.3417    1.3112 H         1 <0>         0.0559
     49 H23         1.5446   -5.8348    0.3794 H         1 <0>         0.0567
     50 H24         2.1933   -4.3864   -0.4266 H         1 <0>         0.0564
     51 H25        -1.8760   -4.4531    0.8892 H         1 <0>         0.0587
     52 H26        -0.8356   -5.8738    1.1490 H         1 <0>         0.0570
     53 H27        -0.5501   -4.3805    2.0746 H         1 <0>         0.0598
@<TRIPOS>BOND
     1    1    2 1
     2    1   27 1
     3    1   28 1
     4    1   29 1
     5    2    7 ar
     6    2    3 ar
     7    3    4 ar
     8    3   30 1
     9    4   22 1
    10    4    5 ar
    11    5    6 ar
    12    5   19 1
    13    6    7 ar
    14    6   31 1
    15    7    8 1
    16    8    9 2
    17    8   10 1
    18    9   32 1
    19    9   33 1
    20   10   15 ar
    21   10   11 ar
    22   11   12 ar
    23   11   34 1
    24   12   13 ar
    25   12   35 1
    26   13   14 ar
    27   13   16 1
    28   14   15 ar
    29   14   36 1
    30   15   37 1
    31   16   17 2
    32   16   18 1
    33   19   20 1
    34   19   25 1
    35   19   26 1
    36   20   21 1
    37   20   38 1
    38   20   39 1
    39   21   22 1
    40   21   40 1
    41   21   41 1
    42   22   23 1
    43   22   24 1
    44   23   42 1
    45   23   43 1
    46   23   44 1
    47   24   45 1
    48   24   46 1
    49   24   47 1
    50   25   48 1
    51   25   49 1
    52   25   50 1
    53   26   51 1
    54   26   52 1
    55   26   53 1
@<TRIPOS>MOLECULE
ZINC12358651
   49    49     0     0     0
SMALL
USER_CHARGES

@<TRIPOS>ATOM
      1 C1         -2.0286   -1.1701   -2.0302 C.3       1 <0>        -0.1228
      2 C2         -0.9130   -0.9655   -1.0380 C.2       1 <0>        -0.1195
      3 C3         -1.0509   -0.0121   -0.1319 C.2       1 <0>        -0.0846
      4 C4         -0.0157    0.3046    0.9079 C.3       1 <0>        -0.0189
      5 C5          0.9697   -0.8582    1.0413 C.3       1 <0>        -0.1095
      6 C6          1.4613   -1.2436   -0.3593 C.3       1 <0>        -0.1215
      7 C7          0.2895   -1.8593   -1.1300 C.3       1 <0>        -0.0797
      8 C8         -0.7043    0.5427    2.2533 C.3       1 <0>        -0.1380
      9 C9          0.7436    1.5685    0.4993 C.3       1 <0>        -0.1378
     10 C10        -2.2434    0.7543   -0.1436 C.2       1 <0>        -0.1259
     11 C11        -3.4484    0.1381   -0.0202 C.2       1 <0>        -0.0971
     12 C12        -4.6247    0.9039    0.0582 C.2       1 <0>        -0.1171
     13 C13        -5.8350    0.2850    0.1820 C.2       1 <0>        -0.0909
     14 C14        -7.0080    1.0486    0.2602 C.2       1 <0>        -0.1590
     15 C15        -8.2286    0.4243    0.3851 C.2       1 <0>        -0.0727
     16 C16        -9.4006    1.1873    0.4632 C.2       1 <0>        -0.0846
     17 C17       -10.6211    0.5631    0.5882 C.2       1 <0>        -0.1309
     18 C18       -11.8049    1.3147    0.5138 C.2       1 <0>         0.4385
     19 O1        -11.7538    2.6103    0.2004 O.co2     1 <0>        -0.6898
     20 O2        -12.9805    0.7331    0.7567 O.co2     1 <0>        -0.7140
     21 C19        -9.3254    2.6915    0.4105 C.3       1 <0>        -0.1010
     22 C20        -4.5496    2.4081    0.0054 C.3       1 <0>        -0.1197
     23 H1         -1.7305   -1.9205   -2.7624 H         1 <0>         0.0534
     24 H2         -2.9229   -1.5082   -1.5068 H         1 <0>         0.0707
     25 H3         -2.2392   -0.2295   -2.5391 H         1 <0>         0.0657
     26 H4          1.8167   -0.5519    1.6552 H         1 <0>         0.0638
     27 H5          0.4699   -1.7107    1.5013 H         1 <0>         0.0637
     28 H6          1.8197   -0.3550   -0.8789 H         1 <0>         0.0667
     29 H7          2.2672   -1.9728   -0.2767 H         1 <0>         0.0625
     30 H8          0.0477   -2.8349   -0.7083 H         1 <0>         0.0717
     31 H9          0.5710   -1.9797   -2.1761 H         1 <0>         0.0688
     32 H10        -1.1790   -0.3801    2.5868 H         1 <0>         0.0541
     33 H11         0.0353    0.8575    2.9894 H         1 <0>         0.0532
     34 H12        -1.4600    1.3203    2.1420 H         1 <0>         0.0599
     35 H13         0.0450    2.4010    0.4154 H         1 <0>         0.0553
     36 H14         1.4959    1.8002    1.2533 H         1 <0>         0.0549
     37 H15         1.2309    1.4048   -0.4619 H         1 <0>         0.0560
     38 H16        -2.1943    1.8279   -0.2505 H         1 <0>         0.1163
     39 H17        -3.5023   -0.9399    0.0176 H         1 <0>         0.1126
     40 H18        -5.8889   -0.7930    0.2198 H         1 <0>         0.1099
     41 H19        -6.9541    2.1266    0.2224 H         1 <0>         0.1254
     42 H20        -8.2825   -0.6536    0.4229 H         1 <0>         0.1124
     43 H21       -10.6682   -0.5046    0.7433 H         1 <0>         0.1098
     44 H22        -9.4930    3.0280   -0.6126 H         1 <0>         0.0660
     45 H23       -10.0886    3.1165    1.0624 H         1 <0>         0.0952
     46 H24        -8.3402    3.0179    0.7436 H         1 <0>         0.0335
     47 H25        -4.6201    2.7393   -1.0307 H         1 <0>         0.0655
     48 H26        -5.3726    2.8334    0.5797 H         1 <0>         0.0686
     49 H27        -3.6015    2.7395    0.4291 H         1 <0>         0.0613
@<TRIPOS>BOND
     1    1    2 1
     2    1   23 1
     3    1   24 1
     4    1   25 1
     5    2    7 1
     6    2    3 2
     7    3    4 1
     8    3   10 1
     9    4    5 1
    10    4    8 1
    11    4    9 1
    12    5    6 1
    13    5   26 1
    14    5   27 1
    15    6    7 1
    16    6   28 1
    17    6   29 1
    18    7   30 1
    19    7   31 1
    20    8   32 1
    21    8   33 1
    22    8   34 1
    23    9   35 1
    24    9   36 1
    25    9   37 1
    26   10   11 2
    27   10   38 1
    28   11   12 1
    29   11   39 1
    30   12   13 2
    31   12   22 1
    32   13   14 1
    33   13   40 1
    34   14   15 2
    35   14   41 1
    36   15   16 1
    37   15   42 1
    38   16   17 2
    39   16   21 1
    40   17   18 1
    41   17   43 1
    42   18   19 2
    43   18   20 1
    44   21   44 1
    45   21   45 1
    46   21   46 1
    47   22   47 1
    48   22   48 1
    49   22   49 1
@<TRIPOS>MOLECULE
ZINC21992287
   49    49     0     0     0
SMALL
USER_CHARGES
(2E,4E,6E,8Z)-3,7-dimethyl-9-(2,6,6-trimethyl-1-cyclohexenyl)nona-2,4,6,8-tetraenoic acid
@<TRIPOS>ATOM
      1 C1          0.9863    0.8016    4.4633 C.3       1 <0>        -0.1472
      2 C2         -0.0989    1.4780    3.6659 C.2       1 <0>        -0.0943
      3 C3          0.2607    2.3152    2.7077 C.2       1 <0>        -0.0927
      4 C4         -0.7145    3.0615    1.8444 C.3       1 <0>        -0.0161
      5 C5         -2.0979    2.4140    1.9319 C.3       1 <0>        -0.1092
      6 C6         -2.4551    2.2253    3.4113 C.3       1 <0>        -0.1239
      7 C7         -1.5270    1.1587    4.0002 C.3       1 <0>        -0.0795
      8 C8         -0.8032    4.5136    2.3181 C.3       1 <0>        -0.1536
      9 C9         -0.2320    3.0331    0.3928 C.3       1 <0>        -0.1399
     10 C10         1.6457    2.5192    2.4826 C.2       1 <0>        -0.1192
     11 C11         2.4427    2.9478    3.4958 C.2       1 <0>        -0.1064
     12 C12         1.8754    3.3167    4.7288 C.2       1 <0>        -0.1129
     13 C13         0.8410    4.2051    4.7651 C.2       1 <0>        -0.1166
     14 C14         0.2751    4.5731    5.9950 C.2       1 <0>        -0.1492
     15 C15        -0.7605    5.4624    6.0313 C.2       1 <0>        -0.0880
     16 C16        -1.2400    5.9308    7.2636 C.2       1 <0>        -0.0788
     17 C17        -2.3412    6.7343    7.3061 C.2       1 <0>        -0.1565
     18 C18        -2.7751    7.2712    8.5352 C.2       1 <0>         0.4740
     19 O1         -2.1109    7.1024    9.5415 O.co2     1 <0>        -0.6140
     20 O2         -3.9275    7.9726    8.5964 O.co2     1 <0>        -0.7601
     21 C19        -0.5382    5.5463    8.5406 C.3       1 <0>        -0.1977
     22 C20         2.4105    2.7305    6.0099 C.3       1 <0>        -0.1356
     23 H1          1.9698    1.1363    4.1017 H         1 <0>         0.0848
     24 H2          0.9034   -0.2888    4.3441 H         1 <0>         0.0503
     25 H3          0.8778    1.0636    5.5261 H         1 <0>         0.0747
     26 H4         -2.8393    3.0662    1.4472 H         1 <0>         0.0632
     27 H5         -2.0792    1.4389    1.4232 H         1 <0>         0.0612
     28 H6         -2.3207    3.1776    3.9453 H         1 <0>         0.0715
     29 H7         -3.5029    1.9015    3.4971 H         1 <0>         0.0631
     30 H8         -1.7914    0.1773    3.5796 H         1 <0>         0.0682
     31 H9         -1.6513    1.1348    5.0929 H         1 <0>         0.0717
     32 H10        -1.5175    5.0623    1.6866 H         1 <0>         0.0571
     33 H11         0.1882    4.9845    2.2446 H         1 <0>         0.0603
     34 H12        -1.1441    4.5380    3.3637 H         1 <0>         0.0723
     35 H13        -0.9455    3.5796   -0.2415 H         1 <0>         0.0541
     36 H14        -0.1611    1.9902    0.0504 H         1 <0>         0.0533
     37 H15         0.7574    3.5091    0.3259 H         1 <0>         0.0568
     38 H16         2.0748    2.3304    1.4875 H         1 <0>         0.1146
     39 H17         3.5317    3.0063    3.3519 H         1 <0>         0.1146
     40 H18         0.4505    4.6330    3.8300 H         1 <0>         0.1371
     41 H19         0.6657    4.1452    6.9301 H         1 <0>         0.1210
     42 H20        -1.2188    5.8115    5.0942 H         1 <0>         0.1079
     43 H21        -2.8909    6.9635    6.3812 H         1 <0>         0.1052
     44 H22        -1.0556    6.0054    9.3959 H         1 <0>         0.1704
     45 H23         0.5025    5.9011    8.5082 H         1 <0>         0.0434
     46 H24        -0.5492    4.4518    8.6498 H         1 <0>         0.0373
     47 H25         1.8451    3.1349    6.8624 H         1 <0>         0.0704
     48 H26         3.4734    2.9928    6.1173 H         1 <0>         0.0578
     49 H27         2.3036    1.6360    5.9850 H         1 <0>         0.0752
@<TRIPOS>BOND
     1    1    2 1
     2    1   23 1
     3    1   24 1
     4    1   25 1
     5    2    7 1
     6    2    3 2
     7    3    4 1
     8    3   10 1
     9    4    5 1
    10    4    8 1
    11    4    9 1
    12    5    6 1
    13    5   26 1
    14    5   27 1
    15    6    7 1
    16    6   28 1
    17    6   29 1
    18    7   30 1
    19    7   31 1
    20    8   32 1
    21    8   33 1
    22    8   34 1
    23    9   35 1
    24    9   36 1
    25    9   37 1
    26   10   11 2
    27   10   38 1
    28   11   12 1
    29   11   39 1
    30   12   13 2
    31   12   22 1
    32   13   14 1
    33   13   40 1
    34   14   15 2
    35   14   41 1
    36   15   16 1
    37   15   42 1
    38   16   17 2
    39   16   21 1
    40   17   18 1
    41   17   43 1
    42   18   19 2
    43   18   20 1
    44   21   44 1
    45   21   45 1
    46   21   46 1
    47   22   47 1
    48   22   48 1
    49   22   49 1
@<TRIPOS>MOLECULE
ZINC12661824
   49    49     0     0     0
SMALL
USER_CHARGES

@<TRIPOS>ATOM
      1 C1         -2.1403   -2.1286   -2.0604 C.3       1 <0>        -0.1245
      2 C2         -0.9727   -2.0739   -1.1091 C.2       1 <0>        -0.1129
      3 C3         -0.9348   -1.0922   -0.2237 C.2       1 <0>        -0.0907
      4 C4          0.1717   -0.9136    0.7747 C.3       1 <0>        -0.0176
      5 C5          0.9760   -2.2085    0.9067 C.3       1 <0>        -0.1106
      6 C6          1.3553   -2.6920   -0.4984 C.3       1 <0>        -0.1204
      7 C7          0.0785   -3.1400   -1.2161 C.3       1 <0>        -0.0819
      8 C8         -0.4263   -0.5472    2.1345 C.3       1 <0>        -0.1381
      9 C9          1.0969    0.2131    0.3104 C.3       1 <0>        -0.1367
     10 C10        -1.9989   -0.1556   -0.2175 C.2       1 <0>        -0.1221
     11 C11        -3.2775   -0.5809   -0.0407 C.2       1 <0>        -0.1037
     12 C12        -4.3225    0.3546    0.0550 C.2       1 <0>        -0.1163
     13 C13        -5.6067   -0.0726    0.2326 C.2       1 <0>        -0.0923
     14 C14        -5.8834   -1.4441    0.3196 C.2       1 <0>        -0.1580
     15 C15        -7.1787   -1.8749    0.4988 C.2       1 <0>        -0.0749
     16 C16        -7.4552   -3.2452    0.5857 C.2       1 <0>        -0.0835
     17 C17        -8.7503   -3.6760    0.7648 C.2       1 <0>        -0.1321
     18 C18        -9.0115   -5.0348    1.0038 C.2       1 <0>         0.4387
     19 O1         -8.0008   -5.8874    1.1796 O.co2     1 <0>        -0.6899
     20 O2        -10.2703   -5.4730    1.0550 O.co2     1 <0>        -0.7144
     21 C19        -6.3349   -4.2479    0.4831 C.3       1 <0>        -0.1004
     22 C20        -4.0250    1.8289   -0.0385 C.3       1 <0>        -0.1133
     23 H1         -1.9836   -2.9301   -2.7822 H         1 <0>         0.0553
     24 H2         -3.0564   -2.3176   -1.5007 H         1 <0>         0.0727
     25 H3         -2.2254   -1.1776   -2.5862 H         1 <0>         0.0643
     26 H4          1.8802   -2.0205    1.4857 H         1 <0>         0.0632
     27 H5          0.3706   -2.9665    1.4037 H         1 <0>         0.0655
     28 H6          1.8243   -1.8782   -1.0514 H         1 <0>         0.0655
     29 H7          2.0454   -3.5322   -0.4225 H         1 <0>         0.0627
     30 H8         -0.2918   -4.0593   -0.7623 H         1 <0>         0.0747
     31 H9          0.3022   -3.3228   -2.2671 H         1 <0>         0.0693
     32 H10        -1.0218   -1.3811    2.5062 H         1 <0>         0.0559
     33 H11         0.3773   -0.3322    2.8388 H         1 <0>         0.0525
     34 H12        -1.0605    0.3328    2.0273 H         1 <0>         0.0582
     35 H13         0.5282    1.1392    0.2273 H         1 <0>         0.0537
     36 H14         1.9012    0.3443    1.0343 H         1 <0>         0.0541
     37 H15         1.5204   -0.0417   -0.6611 H         1 <0>         0.0558
     38 H16        -1.7935    0.8960   -0.3533 H         1 <0>         0.1138
     39 H17        -3.4907   -1.6375    0.0264 H         1 <0>         0.1201
     40 H18        -6.4095    0.6460    0.3061 H         1 <0>         0.1118
     41 H19        -5.0806   -2.1627    0.2461 H         1 <0>         0.1227
     42 H20        -7.9815   -1.1563    0.5723 H         1 <0>         0.1127
     43 H21        -9.5654   -2.9688    0.7215 H         1 <0>         0.1096
     44 H22        -6.0017   -4.5241    1.4835 H         1 <0>         0.0657
     45 H23        -6.6891   -5.1362   -0.0400 H         1 <0>         0.0953
     46 H24        -5.5036   -3.8088   -0.0684 H         1 <0>         0.0323
     47 H25        -4.0813    2.1456   -1.0800 H         1 <0>         0.0639
     48 H26        -4.7546    2.3849    0.5502 H         1 <0>         0.0612
     49 H27        -3.0238    2.0227    0.3466 H         1 <0>         0.0630
@<TRIPOS>BOND
     1    1    2 1
     2    1   23 1
     3    1   24 1
     4    1   25 1
     5    2    7 1
     6    2    3 2
     7    3    4 1
     8    3   10 1
     9    4    5 1
    10    4    8 1
    11    4    9 1
    12    5    6 1
    13    5   26 1
    14    5   27 1
    15    6    7 1
    16    6   28 1
    17    6   29 1
    18    7   30 1
    19    7   31 1
    20    8   32 1
    21    8   33 1
    22    8   34 1
    23    9   35 1
    24    9   36 1
    25    9   37 1
    26   10   11 2
    27   10   38 1
    28   11   12 1
    29   11   39 1
    30   12   13 2
    31   12   22 1
    32   13   14 1
    33   13   40 1
    34   14   15 2
    35   14   41 1
    36   15   16 1
    37   15   42 1
    38   16   17 2
    39   16   21 1
    40   17   18 1
    41   17   43 1
    42   18   19 2
    43   18   20 1
    44   21   44 1
    45   21   45 1
    46   21   46 1
    47   22   47 1
    48   22   48 1
    49   22   49 1
