@<TRIPOS>MOLECULE
ZINC03873121
   55    58     0     0     0
SMALL
USER_CHARGES
6-[1-(3,5,5,8,8-pentamethyltetralin-2-yl)cyclopropyl]pyridine-3-carboxylic acid
@<TRIPOS>ATOM
      1 C1          3.8982    6.1941    0.4554 C.3       1 <0>        -0.1214
      2 C2          3.7381    7.5328   -0.2177 C.ar      1 <0>        -0.0654
      3 C3          4.8501    8.2353   -0.6348 C.ar      1 <0>        -0.1205
      4 C4          4.7131    9.4720   -1.2513 C.ar      1 <0>        -0.0608
      5 C5          3.4563    9.9959   -1.4575 C.ar      1 <0>        -0.0693
      6 C6          2.3384    9.2863   -1.0389 C.ar      1 <0>        -0.1038
      7 C7          2.4767    8.0589   -0.4241 C.ar      1 <0>        -0.0410
      8 C8          1.2569    7.2972    0.0264 C.3       1 <0>        -0.0414
      9 C9         -0.0240    7.4659   -0.7932 C.3       1 <0>        -0.1535
     10 C10         0.7659    6.1569   -0.8676 C.3       1 <0>        -0.1441
     11 C11         1.1119    7.1250    1.5165 C.ar      1 <0>         0.1567
     12 C12         1.9311    7.8453    2.3676 C.ar      1 <0>        -0.1754
     13 C13         1.7951    7.6852    3.7350 C.ar      1 <0>        -0.0452
     14 C14         0.8241    6.7918    4.2053 C.ar      1 <0>        -0.1647
     15 C15         0.0412    6.0991    3.2804 C.ar      1 <0>         0.1382
     16 N1          0.2056    6.2901    1.9879 N.ar      1 <0>        -0.4969
     17 C16         0.6362    6.5816    5.6554 C.2       1 <0>         0.4940
     18 O1          1.3267    7.1861    6.4512 O.co2     1 <0>        -0.6289
     19 C17         3.2323   11.3224   -2.1351 C.3       1 <0>        -0.0206
     20 C18         4.5161   12.1497   -2.1341 C.3       1 <0>        -0.1114
     21 C19         5.6522   11.2815   -2.6875 C.3       1 <0>        -0.1102
     22 C20         5.9695   10.1932   -1.6640 C.3       1 <0>        -0.0221
     23 C21         6.6126   10.8319   -0.4314 C.3       1 <0>        -0.1397
     24 C22         6.9475    9.1908   -2.2801 C.3       1 <0>        -0.1412
     25 C23         2.7879   11.0824   -3.5794 C.3       1 <0>        -0.1380
     26 C24         2.1369   12.0898   -1.3921 C.3       1 <0>        -0.1433
     27 H1          3.9807    5.4143   -0.3017 H         1 <0>         0.0671
     28 H2          4.7989    6.2013    1.0691 H         1 <0>         0.0629
     29 H3          3.0307    5.9982    1.0856 H         1 <0>         0.0757
     30 H4          5.8352    7.8218   -0.4768 H         1 <0>         0.1205
     31 H5          1.3526    9.6985   -1.1962 H         1 <0>         0.1226
     32 H6         -0.9715    7.4523   -0.2547 H         1 <0>         0.1014
     33 H7          0.0157    8.1275   -1.6585 H         1 <0>         0.0943
     34 H8          1.3250    5.9578   -1.7819 H         1 <0>         0.0919
     35 H9          0.3380    5.2820   -0.3781 H         1 <0>         0.1083
     36 H10         2.6693    8.5252    1.9687 H         1 <0>         0.1254
     37 H11         2.4215    8.2346    4.4221 H         1 <0>         0.1355
     38 H12        -0.7084    5.4036    3.6279 H         1 <0>         0.1655
     39 H13         4.7528   12.4587   -1.1160 H         1 <0>         0.0689
     40 H14         4.3866   13.0299   -2.7640 H         1 <0>         0.0649
     41 H15         6.5361   11.8968   -2.8551 H         1 <0>         0.0647
     42 H16         5.3408   10.8231   -3.6261 H         1 <0>         0.0676
     43 H17         6.8583   10.0559    0.2936 H         1 <0>         0.0566
     44 H18         7.5224   11.3549   -0.7261 H         1 <0>         0.0560
     45 H19         5.9154   11.5400    0.0165 H         1 <0>         0.0587
     46 H20         6.4895    8.7261   -3.1533 H         1 <0>         0.0553
     47 H21         7.8582    9.7091   -2.5800 H         1 <0>         0.0558
     48 H22         7.1914    8.4230   -1.5459 H         1 <0>         0.0588
     49 H23         1.8610   10.5088   -3.5837 H         1 <0>         0.0555
     50 H24         2.6247   12.0403   -4.0732 H         1 <0>         0.0559
     51 H25         3.5613   10.5271   -4.1100 H         1 <0>         0.0569
     52 H26         2.4452   12.2545   -0.3596 H         1 <0>         0.0574
     53 H27         1.9719   13.0506   -1.8796 H         1 <0>         0.0560
     54 H28         1.2134   11.5111   -1.4076 H         1 <0>         0.0592
     55 O2         -0.3010    5.7196    6.0951 O.co2     1 <0>        -0.7498
@<TRIPOS>BOND
     1    1    2 1
     2    1   27 1
     3    1   28 1
     4    1   29 1
     5    2    7 ar
     6    2    3 ar
     7    3    4 ar
     8    3   30 1
     9    4   22 1
    10    4    5 ar
    11    5    6 ar
    12    5   19 1
    13    6    7 ar
    14    6   31 1
    15    7    8 1
    16    8   10 1
    17    8    9 1
    18    8   11 1
    19    9   10 1
    20    9   32 1
    21    9   33 1
    22   10   34 1
    23   10   35 1
    24   11   16 ar
    25   11   12 ar
    26   12   13 ar
    27   12   36 1
    28   13   14 ar
    29   13   37 1
    30   14   15 ar
    31   14   17 1
    32   15   16 ar
    33   15   38 1
    34   17   18 2
    35   17   55 1
    36   19   20 1
    37   19   25 1
    38   19   26 1
    39   20   21 1
    40   20   39 1
    41   20   40 1
    42   21   22 1
    43   21   41 1
    44   21   42 1
    45   22   23 1
    46   22   24 1
    47   23   43 1
    48   23   44 1
    49   23   45 1
    50   24   46 1
    51   24   47 1
    52   24   48 1
    53   25   49 1
    54   25   50 1
    55   25   51 1
    56   26   52 1
    57   26   53 1
    58   26   54 1
@<TRIPOS>MOLECULE
ZINC13522253
   63    63     0     0     0
SMALL
USER_CHARGES
(2E,4E,6Z)-7-[3,5-ditert-butyl-2-(2,2-difluoroethoxy)phenyl]-3-methyl-octa-2,4,6-trienoic acid
@<TRIPOS>ATOM
      1 C1         -3.8934    1.7062    6.6584 C.3       1 <0>        -0.0966
      2 C2         -4.9030    0.7856    6.0225 C.2       1 <0>        -0.0992
      3 C3         -6.1703    0.7179    6.5180 C.2       1 <0>        -0.1402
      4 C4         -6.5833    1.6168    7.5235 C.2       1 <0>         0.4642
      5 O1         -5.8476    2.5229    7.8696 O.co2     1 <0>        -0.6252
      6 C5         -4.5374   -0.0027    4.9188 C.2       1 <0>        -0.0716
      7 C6         -3.2699    0.0650    4.4232 C.2       1 <0>        -0.1624
      8 C7         -2.9035   -0.7251    3.3170 C.2       1 <0>        -0.1034
      9 C8         -1.6423   -0.6577    2.8239 C.2       1 <0>        -0.0978
     10 C9         -1.2501   -1.5034    1.6398 C.3       1 <0>        -0.1033
     11 C10        -0.6590    0.2389    3.4433 C.ar      1 <0>        -0.0531
     12 C11        -0.0615   -0.1046    4.6620 C.ar      1 <0>        -0.0999
     13 C12         0.8565    0.7447    5.2394 C.ar      1 <0>        -0.0672
     14 C13         1.1958    1.9356    4.6174 C.ar      1 <0>        -0.1077
     15 C14         0.6178    2.2856    3.4120 C.ar      1 <0>        -0.0745
     16 C15        -0.3076    1.4452    2.8148 C.ar      1 <0>         0.0985
     17 O2         -0.8761    1.7883    1.6311 O.3       1 <0>        -0.3078
     18 C16        -2.2212    2.2691    1.6726 C.3       1 <0>        -0.0010
     19 C17        -2.6365    2.7434    0.2786 C.3       1 <0>         0.2719
     20 F1         -1.7856    3.7735   -0.1363 F         1 <0>        -0.1982
     21 F2         -2.5503    1.6762   -0.6220 F         1 <0>        -0.1979
     22 C18         0.9953    3.5835    2.7457 C.3       1 <0>        -0.0193
     23 C19         2.1273    4.2494    3.5305 C.3       1 <0>        -0.1441
     24 C20         1.4613    3.3057    1.3151 C.3       1 <0>        -0.1391
     25 C21        -0.2195    4.5131    2.7149 C.3       1 <0>        -0.1509
     26 C22         1.4952    0.3768    6.5538 C.3       1 <0>        -0.0274
     27 C23         1.1687    1.4473    7.5970 C.3       1 <0>        -0.1407
     28 C24         0.9535   -0.9749    7.0234 C.3       1 <0>        -0.1463
     29 C25         3.0120    0.2842    6.3755 C.3       1 <0>        -0.1368
     30 H1         -4.0046    2.7086    6.2448 H         1 <0>         0.0613
     31 H2         -4.0578    1.7372    7.7355 H         1 <0>         0.0882
     32 H3         -2.8876    1.3386    6.4548 H         1 <0>         0.0354
     33 H4         -6.8587   -0.0239    6.1410 H         1 <0>         0.1049
     34 H5         -5.2609   -0.6624    4.4631 H         1 <0>         0.1107
     35 H6         -2.5464    0.7247    4.8789 H         1 <0>         0.1205
     36 H7         -3.6270   -1.3848    2.8613 H         1 <0>         0.1155
     37 H8         -0.9515   -2.4938    1.9837 H         1 <0>         0.0646
     38 H9         -2.0985   -1.5948    0.9616 H         1 <0>         0.0643
     39 H10        -0.4166   -1.0335    1.1178 H         1 <0>         0.0643
     40 H11        -0.3229   -1.0317    5.1504 H         1 <0>         0.1308
     41 H12         1.9166    2.5949    5.0781 H         1 <0>         0.1292
     42 H13        -2.2883    3.1005    2.3743 H         1 <0>         0.0903
     43 H14        -2.8841    1.4665    1.9958 H         1 <0>         0.0921
     44 H15        -3.6624    3.1101    0.3102 H         1 <0>         0.1258
     45 H16         2.9927    3.5872    3.5525 H         1 <0>         0.0564
     46 H17         2.4003    5.1882    3.0485 H         1 <0>         0.0572
     47 H18         1.7953    4.4474    4.5497 H         1 <0>         0.0578
     48 H19         0.6247    2.9276    0.7275 H         1 <0>         0.0777
     49 H20         1.8318    4.2281    0.8681 H         1 <0>         0.0508
     50 H21         2.2593    2.5633    1.3306 H         1 <0>         0.0485
     51 H22        -0.5515    4.7110    3.7340 H         1 <0>         0.0543
     52 H23         0.0535    5.4519    2.2329 H         1 <0>         0.0583
     53 H24        -1.0260    4.0387    2.1557 H         1 <0>         0.0662
     54 H25         0.0882    1.5133    7.7240 H         1 <0>         0.0614
     55 H26         1.6308    1.1812    8.5476 H         1 <0>         0.0579
     56 H27         1.5547    2.4103    7.2624 H         1 <0>         0.0557
     57 H28         1.1861   -1.7376    6.2803 H         1 <0>         0.0572
     58 H29         1.4155   -1.2410    7.9741 H         1 <0>         0.0578
     59 H30        -0.1270   -0.9089    7.1504 H         1 <0>         0.0624
     60 H31         3.3979    1.2471    6.0410 H         1 <0>         0.0556
     61 H32         3.4740    0.0181    7.3262 H         1 <0>         0.0574
     62 H33         3.2446   -0.4785    5.6324 H         1 <0>         0.0551
     63 O3         -7.7947    1.4722    8.1023 O.co2     1 <0>        -0.7691
@<TRIPOS>BOND
     1    1    2 1
     2    1   30 1
     3    1   31 1
     4    1   32 1
     5    2    3 2
     6    2    6 1
     7    3    4 1
     8    3   33 1
     9    4    5 2
    10    4   63 1
    11    6    7 2
    12    6   34 1
    13    7    8 1
    14    7   35 1
    15    8    9 2
    16    8   36 1
    17    9   10 1
    18    9   11 1
    19   10   37 1
    20   10   38 1
    21   10   39 1
    22   11   16 ar
    23   11   12 ar
    24   12   13 ar
    25   12   40 1
    26   13   14 ar
    27   13   26 1
    28   14   15 ar
    29   14   41 1
    30   15   16 ar
    31   15   22 1
    32   16   17 1
    33   17   18 1
    34   18   19 1
    35   18   42 1
    36   18   43 1
    37   19   20 1
    38   19   21 1
    39   19   44 1
    40   22   23 1
    41   22   24 1
    42   22   25 1
    43   23   45 1
    44   23   46 1
    45   23   47 1
    46   24   48 1
    47   24   49 1
    48   24   50 1
    49   25   51 1
    50   25   52 1
    51   25   53 1
    52   26   27 1
    53   26   28 1
    54   26   29 1
    55   27   54 1
    56   27   55 1
    57   27   56 1
    58   28   57 1
    59   28   58 1
    60   28   59 1
    61   29   60 1
    62   29   61 1
    63   29   62 1
