@<TRIPOS>MOLECULE
ZINC28956875
   42    44     0     0     0
SMALL
USER_CHARGES
5-bromo-N-[4-chloro-2-methyl-6-(methylcarbamoyl)phenyl]-2-(3-chloro-2-pyridyl)pyrazole-3-carboxamide
@<TRIPOS>ATOM
      1 C1         -1.8100    1.0686   -0.1387 C.3       1 <0>        -0.1423
      2 C2         -0.9803   -0.1845   -0.0271 C.ar      1 <0>        -0.0614
      3 C3         -0.8998   -0.8530    1.1781 C.ar      1 <0>        -0.0745
      4 C4         -0.1396   -2.0067    1.2908 C.ar      1 <0>        -0.0422
      5 C5          0.5447   -2.4990    0.1989 C.ar      1 <0>        -0.0753
      6 C6          0.4722   -1.8330   -1.0265 C.ar      1 <0>        -0.1324
      7 C7         -0.3025   -0.6684   -1.1379 C.ar      1 <0>         0.2100
      8 N1         -0.3874    0.0013   -2.3555 N.am      1 <0>        -0.6606
      9 C8         -0.0235    1.2963   -2.4390 C.2       1 <0>         0.5731
     10 O1          0.2827    1.9081   -1.4333 O.2       1 <0>        -0.4478
     11 C9          0.0033    1.9696   -3.7460 C.2       1 <0>         0.0704
     12 C10        -0.4469    1.4537   -4.9446 C.2       1 <0>        -0.1789
     13 C11        -0.2376    2.4204   -5.9269 C.2       1 <0>         0.0702
     14 N2          0.3181    3.4706   -5.3745 N.2       1 <0>        -0.2029
     15 N3          0.4854    3.2256   -4.0059 N.pl3     1 <0>        -0.2812
     16 C12         1.0437    4.1035   -3.0735 C.ar      1 <0>         0.3538
     17 C13         1.3441    5.4084   -3.4496 C.ar      1 <0>        -0.0858
     18 C14         1.8930    6.2694   -2.5135 C.ar      1 <0>        -0.0536
     19 C15         2.1321    5.7897   -1.2334 C.ar      1 <0>        -0.1637
     20 C16         1.8134    4.4798   -0.9316 C.ar      1 <0>         0.1309
     21 N4          1.2870    3.6844   -1.8423 N.ar      1 <0>        -0.4189
     22 Cl1         1.0301    5.9523   -5.0681 Cl        1 <0>        -0.0156
     23 Br1        -0.6755    2.2419   -7.7578 Br        1 <0>         0.0561
     24 C17         1.2018   -2.3537   -2.1981 C.2       1 <0>         0.5621
     25 O2          1.2200   -1.7182   -3.2346 O.2       1 <0>        -0.5303
     26 N5          1.8481   -3.5337   -2.1196 N.am      1 <0>        -0.7394
     27 C18         2.5726   -4.0508   -3.2832 C.3       1 <0>         0.0885
     28 Cl2        -0.0488   -2.8362    2.8131 Cl        1 <0>        -0.0585
     29 H1         -2.2672    1.2937    0.8362 H         1 <0>         0.0667
     30 H2         -2.6006    0.9192   -0.8888 H         1 <0>         0.0681
     31 H3         -1.1678    1.9075   -0.4450 H         1 <0>         0.1147
     32 H4         -1.4325   -0.4750    2.0381 H         1 <0>         0.1426
     33 H5          1.1359   -3.3980    0.2916 H         1 <0>         0.1396
     34 H6         -0.7515   -0.5265   -3.2493 H         1 <0>         0.4415
     35 H7         -0.8846    0.4778   -5.0941 H         1 <0>         0.1736
     36 H8          2.1332    7.2894   -2.7750 H         1 <0>         0.1551
     37 H9          2.5632    6.4336   -0.4811 H         1 <0>         0.1522
     38 H10         1.9981    4.1021    0.0632 H         1 <0>         0.1732
     39 H11         1.8317   -4.1086   -1.1819 H         1 <0>         0.4221
     40 H12         3.0321   -5.0174   -3.0292 H         1 <0>         0.0781
     41 H13         3.3573   -3.3367   -3.5735 H         1 <0>         0.0604
     42 H14         1.8723   -4.1865   -4.1205 H         1 <0>         0.0621
@<TRIPOS>BOND
     1    1    2 1
     2    1   29 1
     3    1   30 1
     4    1   31 1
     5    2    7 ar
     6    2    3 ar
     7    3    4 ar
     8    3   32 1
     9    4    5 ar
    10    4   28 1
    11    5    6 ar
    12    5   33 1
    13    6    7 ar
    14    6   24 1
    15    7    8 1
    16    8    9 am
    17    8   34 1
    18    9   10 2
    19    9   11 1
    20   11   15 1
    21   11   12 2
    22   12   13 1
    23   12   35 1
    24   13   14 2
    25   13   23 1
    26   14   15 1
    27   15   16 1
    28   16   21 ar
    29   16   17 ar
    30   17   18 ar
    31   17   22 1
    32   18   19 ar
    33   18   36 1
    34   19   20 ar
    35   19   37 1
    36   20   21 ar
    37   20   38 1
    38   24   25 2
    39   24   26 am
    40   26   27 1
    41   26   39 1
    42   27   40 1
    43   27   41 1
    44   27   42 1
