@<TRIPOS>MOLECULE
ZINC00000934
   37    38     0     0     0
SMALL
USER_CHARGES

@<TRIPOS>ATOM
      1 C1         -0.2329    1.5152   -0.0683 C.3       1 <0>        -0.1535
      2 C2         -0.1687   -0.0134   -0.0598 C.3       1 <0>        -0.1137
      3 C3          0.5356   -0.5014   -1.3274 C.3       1 <0>        -0.0641
      4 C4          0.5989   -2.0070   -1.3190 C.ar      1 <0>         0.4048
      5 N1          1.6366   -2.6015   -0.7652 N.ar      1 <0>        -0.5462
      6 C5          1.7311   -3.9233   -0.7362 C.ar      1 <0>         0.2245
      7 C6          0.7233   -4.6834   -1.2967 C.ar      1 <0>        -0.3519
      8 C7         -0.3619   -4.0221   -1.8751 C.ar      1 <0>         0.4697
      9 N2         -0.3872   -2.6924   -1.8607 N.ar      1 <0>        -0.5662
     10 N3         -1.3979   -4.7396   -2.4507 N.pl3     1 <0>        -0.8293
     11 C8          0.7933   -6.1887   -1.2846 C.3       1 <0>         0.1139
     12 N4          1.2784   -6.6654   -2.5821 N.ar      1 <0>        -0.3379
     13 C9          1.6899   -5.7872   -3.4759 C.ar      1 <0>         0.1206
     14 C10         2.1545   -6.1996   -4.7102 C.ar      1 <0>        -0.1224
     15 C11         2.1844   -7.5549   -5.0027 C.ar      1 <0>         0.0026
     16 C12         1.7438   -8.4478   -4.0382 C.ar      1 <0>        -0.1219
     17 C13         1.2972   -7.9615   -2.8238 C.ar      1 <0>         0.1552
     18 C14         0.8212   -8.9233   -1.7658 C.3       1 <0>        -0.1484
     19 H1          0.7781    1.9212   -0.1014 H         1 <0>         0.0604
     20 H2         -0.7880    1.8506   -0.9443 H         1 <0>         0.0592
     21 H3         -0.7347    1.8628    0.8348 H         1 <0>         0.0624
     22 H4          0.3864   -0.3489    0.8163 H         1 <0>         0.0681
     23 H5         -1.1797   -0.4194   -0.0267 H         1 <0>         0.0657
     24 H6         -0.0195   -0.1659   -2.2034 H         1 <0>         0.0984
     25 H7          1.5466   -0.0954   -1.3605 H         1 <0>         0.1018
     26 H8          2.5861   -4.4001   -0.2801 H         1 <0>         0.1757
     27 H9         -1.3731   -5.7093   -2.4539 H         1 <0>         0.4060
     28 H10        -2.1480   -4.2723   -2.8504 H         1 <0>         0.4215
     29 H11         1.4758   -6.5144   -0.4996 H         1 <0>         0.1422
     30 H12        -0.1994   -6.5971   -1.0955 H         1 <0>         0.1295
     31 H13         1.6632   -4.7335   -3.2405 H         1 <0>         0.1934
     32 H14         2.4898   -5.4757   -5.4381 H         1 <0>         0.1831
     33 H15         2.5420   -7.9062   -5.9592 H         1 <0>         0.1779
     34 H16         1.7529   -9.5103   -4.2317 H         1 <0>         0.1854
     35 H17        -0.2290   -9.1604   -1.9364 H         1 <0>         0.1171
     36 H18         1.4124   -9.8378   -1.8136 H         1 <0>         0.1194
     37 H19         0.9357   -8.4676   -0.7824 H         1 <0>         0.0969
@<TRIPOS>BOND
     1    1    2 1
     2    1   19 1
     3    1   20 1
     4    1   21 1
     5    2    3 1
     6    2   22 1
     7    2   23 1
     8    3    4 1
     9    3   24 1
    10    3   25 1
    11    4    9 ar
    12    4    5 ar
    13    5    6 ar
    14    6    7 ar
    15    6   26 1
    16    7    8 ar
    17    7   11 1
    18    8    9 ar
    19    8   10 1
    20   10   27 1
    21   10   28 1
    22   11   12 1
    23   11   29 1
    24   11   30 1
    25   12   17 ar
    26   12   13 ar
    27   13   14 ar
    28   13   31 1
    29   14   15 ar
    30   14   32 1
    31   15   16 ar
    32   15   33 1
    33   16   17 ar
    34   16   34 1
    35   17   18 1
    36   18   35 1
    37   18   36 1
    38   18   37 1
@<TRIPOS>MOLECULE
ZINC00000934
   38    39     0     0     0
SMALL
USER_CHARGES

@<TRIPOS>ATOM
      1 C1          0.0946    1.5054   -0.2510 C.3       1 <0>        -0.1617
      2 C2          0.0947   -0.0243   -0.2175 C.3       1 <0>        -0.1150
      3 C3         -1.3471   -0.5333   -0.1630 C.3       1 <0>        -0.0995
      4 C4         -1.3470   -2.0399   -0.1300 C.ar      1 <0>         0.4642
      5 N1         -1.9834   -2.6594    0.8437 N.ar      1 <0>        -0.5335
      6 C5         -2.0079   -3.9830    0.9098 C.ar      1 <0>         0.2463
      7 C6         -1.3549   -4.7183   -0.0600 C.ar      1 <0>        -0.2907
      8 C7         -0.6908   -4.0309   -1.0777 C.ar      1 <0>         0.5124
      9 N2         -0.7152   -2.7012   -1.0783 N.ar      1 <0>        -0.5067
     10 N3         -0.0207   -4.7230   -2.0734 N.pl3     1 <0>        -0.7673
     11 C8         -1.3587   -6.2248   -0.0203 C.3       1 <0>         0.1062
     12 N4         -0.1036   -6.7010    0.5665 N.ar      1 <0>        -0.3502
     13 C9          0.7427   -5.8243    1.0710 C.ar      1 <0>         0.0932
     14 C10         1.9359   -6.2363    1.6331 C.ar      1 <0>        -0.1100
     15 C11         2.2376   -7.5895    1.6621 C.ar      1 <0>         0.0142
     16 C12         1.3235   -8.4810    1.1222 C.ar      1 <0>        -0.1096
     17 C13         0.1478   -7.9953    0.5812 C.ar      1 <0>         0.1664
     18 C14        -0.8556   -8.9556   -0.0035 C.3       1 <0>        -0.1538
     19 H1          1.1218    1.8680   -0.2899 H         1 <0>         0.0742
     20 H2         -0.4458    1.8494   -1.1329 H         1 <0>         0.0677
     21 H3         -0.3922    1.8884    0.6458 H         1 <0>         0.0645
     22 H4          0.5816   -0.4073   -1.1144 H         1 <0>         0.0869
     23 H5          0.6351   -0.3683    0.6643 H         1 <0>         0.0697
     24 H6         -1.8339   -0.1503    0.7339 H         1 <0>         0.1189
     25 H7         -1.8875   -0.1892   -1.0448 H         1 <0>         0.1429
     26 H8         -2.5319   -4.4805    1.7126 H         1 <0>         0.2278
     27 H9         -0.0104   -5.6929   -2.0672 H         1 <0>         0.4267
     28 H10         0.4381   -4.2376   -2.7769 H         1 <0>         0.4429
     29 H11        -2.1968   -6.5703    0.5849 H         1 <0>         0.1609
     30 H12        -1.4571   -6.6147   -1.0334 H         1 <0>         0.1486
     31 H13         0.5005   -4.7722    1.0442 H         1 <0>         0.1833
     32 H14         2.6250   -5.5135    2.0443 H         1 <0>         0.1884
     33 H15         3.1628   -7.9405    2.0947 H         1 <0>         0.1857
     34 H16         1.5256   -9.5419    1.1276 H         1 <0>         0.1939
     35 H17        -0.5924   -9.1702   -1.0392 H         1 <0>         0.1239
     36 H18        -0.8506   -9.8814    0.5719 H         1 <0>         0.1277
     37 H19        -1.8496   -8.5099    0.0339 H         1 <0>         0.0977
     38 H20        -2.4406   -2.1388    1.5225 H         1 <0>         0.4630
@<TRIPOS>BOND
     1    1    2 1
     2    1   19 1
     3    1   20 1
     4    1   21 1
     5    2    3 1
     6    2   22 1
     7    2   23 1
     8    3    4 1
     9    3   24 1
    10    3   25 1
    11    4    9 ar
    12    4    5 ar
    13    5    6 ar
    14    5   38 1
    15    6    7 ar
    16    6   26 1
    17    7    8 ar
    18    7   11 1
    19    8    9 ar
    20    8   10 1
    21   10   27 1
    22   10   28 1
    23   11   12 1
    24   11   29 1
    25   11   30 1
    26   12   17 ar
    27   12   13 ar
    28   13   14 ar
    29   13   31 1
    30   14   15 ar
    31   14   32 1
    32   15   16 ar
    33   15   33 1
    34   16   17 ar
    35   16   34 1
    36   17   18 1
    37   18   35 1
    38   18   36 1
    39   18   37 1
