@<TRIPOS>MOLECULE
ZINC01648303
   25    24     0     0     0
SMALL
USER_CHARGES

@<TRIPOS>ATOM
      1 C1          0.1478    1.6531    0.1315 C.3       1 <0>        -0.1505
      2 C2          0.2286    0.1300    0.0109 C.3       1 <0>        -0.1220
      3 C3          0.8277   -0.4521    1.2928 C.3       1 <0>        -0.1165
      4 C4          0.9084   -1.9752    1.1722 C.3       1 <0>        -0.0937
      5 C5          1.6262   -2.5464    2.3967 C.3       1 <0>        -0.1603
      6 H1          2.5993   -2.0672    2.5038 H         1 <0>         0.0563
      7 C6          1.8169   -4.0540    2.2189 C.3       1 <0>        -0.1000
      8 C7          2.6581   -4.6014    3.3737 C.3       1 <0>        -0.1443
      9 C8          0.7999   -2.2866    3.6299 C.2       1 <0>         0.5035
     10 O1         -0.3520   -2.6820    3.6864 O.co2     1 <0>        -0.7016
     11 O2          1.2834   -1.6810    4.5712 O.co2     1 <0>        -0.7063
     12 H2          1.1481    2.0592    0.2821 H         1 <0>         0.0508
     13 H3         -0.2790    2.0677   -0.7817 H         1 <0>         0.0468
     14 H4         -0.4831    1.9174    0.9801 H         1 <0>         0.0537
     15 H5         -0.7717   -0.2761   -0.1396 H         1 <0>         0.0580
     16 H6          0.8595   -0.1344   -0.8377 H         1 <0>         0.0541
     17 H7          1.8279   -0.0460    1.4433 H         1 <0>         0.0538
     18 H8          0.1967   -0.1877    2.1414 H         1 <0>         0.0652
     19 H9         -0.0984   -2.3890    1.1153 H         1 <0>         0.0624
     20 H10         1.4613   -2.2395    0.2708 H         1 <0>         0.0421
     21 H11         0.8438   -4.5452    2.2135 H         1 <0>         0.0610
     22 H12         2.3265   -4.2469    1.2748 H         1 <0>         0.0429
     23 H13         3.5901   -4.0402    3.4422 H         1 <0>         0.0472
     24 H14         2.1038   -4.5004    4.3068 H         1 <0>         0.0568
     25 H15         2.8799   -5.6535    3.1948 H         1 <0>         0.0406
@<TRIPOS>BOND
     1    1    2 1
     2    1   12 1
     3    1   13 1
     4    1   14 1
     5    2    3 1
     6    2   15 1
     7    2   16 1
     8    3    4 1
     9    3   17 1
    10    3   18 1
    11    4    5 1
    12    4   19 1
    13    4   20 1
    14    5    6 1
    15    5    7 1
    16    5    9 1
    17    7    8 1
    18    7   21 1
    19    7   22 1
    20    8   23 1
    21    8   24 1
    22    8   25 1
    23    9   10 2
    24    9   11 1
@<TRIPOS>MOLECULE
ZINC01849774
   25    24     0     0     0
SMALL
USER_CHARGES

@<TRIPOS>ATOM
      1 C1         -0.0187    1.5258    0.0104 C.3       1 <0>        -0.1504
      2 C2          0.0021   -0.0041    0.0020 C.3       1 <0>        -0.1221
      3 C3          0.7421   -0.5109    1.2415 C.3       1 <0>        -0.1169
      4 C4          0.7628   -2.0407    1.2331 C.3       1 <0>        -0.0938
      5 C5          1.5028   -2.5476    2.4727 C.3       1 <0>        -0.1604
      6 H1          1.0459   -2.1240    3.3671 H         1 <0>         0.0561
      7 C6          1.4162   -4.0741    2.5297 C.3       1 <0>        -0.0999
      8 C7          2.0471   -4.5724    3.8315 C.3       1 <0>        -0.1448
      9 C8          2.9487   -2.1289    2.4007 C.2       1 <0>         0.5037
     10 O1          3.4223   -1.4206    3.2728 O.co2     1 <0>        -0.7062
     11 O2          3.6448   -2.4984    1.4705 O.co2     1 <0>        -0.7015
     12 H2          1.0039    1.9031    0.0027 H         1 <0>         0.0539
     13 H3         -0.5459    1.8868   -0.8726 H         1 <0>         0.0468
     14 H4         -0.5289    1.8773    0.9072 H         1 <0>         0.0505
     15 H5         -1.0205   -0.3814    0.0098 H         1 <0>         0.0539
     16 H6          0.5123   -0.3556   -0.8948 H         1 <0>         0.0584
     17 H7          1.7647   -0.1336    1.2338 H         1 <0>         0.0665
     18 H8          0.2319   -0.1594    2.1383 H         1 <0>         0.0532
     19 H9         -0.2598   -2.4180    1.2409 H         1 <0>         0.0424
     20 H10         1.2730   -2.3923    0.3363 H         1 <0>         0.0618
     21 H11         0.3707   -4.3803    2.4922 H         1 <0>         0.0424
     22 H12         1.9504   -4.5003    1.6806 H         1 <0>         0.0617
     23 H13         3.0925   -4.2661    3.8690 H         1 <0>         0.0581
     24 H14         1.5129   -4.1461    4.6806 H         1 <0>         0.0457
     25 H15         1.9854   -5.6599    3.8721 H         1 <0>         0.0410
@<TRIPOS>BOND
     1    1    2 1
     2    1   12 1
     3    1   13 1
     4    1   14 1
     5    2    3 1
     6    2   15 1
     7    2   16 1
     8    3    4 1
     9    3   17 1
    10    3   18 1
    11    4    5 1
    12    4   19 1
    13    4   20 1
    14    5    6 1
    15    5    7 1
    16    5    9 1
    17    7    8 1
    18    7   21 1
    19    7   22 1
    20    8   23 1
    21    8   24 1
    22    8   25 1
    23    9   10 2
    24    9   11 1
@<TRIPOS>MOLECULE
ZINC01529230
   19    18     0     0     0
SMALL
USER_CHARGES
hexanoic acid
@<TRIPOS>ATOM
      1 C1          4.2759    7.0594   -0.0009 C.3       1 <0>        -0.1505
      2 C2          4.2166    5.5306   -0.0085 C.3       1 <0>        -0.1255
      3 C3          2.7554    5.0768    0.0030 C.3       1 <0>        -0.1206
      4 C4          2.6961    3.5480   -0.0046 C.3       1 <0>        -0.0997
      5 C5          1.2350    3.0943    0.0069 C.3       1 <0>        -0.1585
      6 C6          1.1765    1.5884   -0.0006 C.2       1 <0>         0.4569
      7 O1          2.1986    0.9442   -0.0139 O.co2     1 <0>        -0.6426
      8 H1          3.7681    7.4471   -0.8840 H         1 <0>         0.0510
      9 H2          3.7851    7.4376    0.8959 H         1 <0>         0.0510
     10 H3          5.3169    7.3827   -0.0091 H         1 <0>         0.0484
     11 H4          4.7244    5.1428    0.8746 H         1 <0>         0.0595
     12 H5          4.7074    5.1524   -0.9053 H         1 <0>         0.0595
     13 H6          2.2476    5.4646   -0.8801 H         1 <0>         0.0556
     14 H7          2.2646    5.4550    0.8998 H         1 <0>         0.0556
     15 H8          3.2039    3.1603    0.8785 H         1 <0>         0.0586
     16 H9          3.1869    3.1698   -0.9014 H         1 <0>         0.0586
     17 H10         0.7272    3.4820   -0.8762 H         1 <0>         0.0614
     18 H11         0.7441    3.4725    0.9036 H         1 <0>         0.0614
     19 O2         -0.0110    0.9628    0.0073 O.co2     1 <0>        -0.7800
@<TRIPOS>BOND
     1    1    2 1
     2    1    8 1
     3    1    9 1
     4    1   10 1
     5    2    3 1
     6    2   11 1
     7    2   12 1
     8    3    4 1
     9    3   13 1
    10    3   14 1
    11    4    5 1
    12    4   15 1
    13    4   16 1
    14    5    6 1
    15    5   17 1
    16    5   18 1
    17    6    7 2
    18    6   19 1
@<TRIPOS>MOLECULE
ZINC01577199
   22    21     0     0     0
SMALL
USER_CHARGES

@<TRIPOS>ATOM
      1 C1         -0.0187    1.5258    0.0104 C.3       1 <0>        -0.1518
      2 C2          0.0021   -0.0041    0.0020 C.3       1 <0>        -0.1251
      3 C3         -1.4333   -0.5336    0.0129 C.3       1 <0>        -0.1201
      4 C4         -1.4126   -2.0635    0.0045 C.3       1 <0>        -0.1212
      5 C5         -2.8479   -2.5931    0.0153 C.3       1 <0>        -0.0938
      6 C6         -2.8272   -4.1229    0.0069 C.3       1 <0>        -0.1840
      7 C7         -4.2410   -4.6445    0.0176 C.2       1 <0>         0.4871
      8 O1         -5.1783   -3.8649    0.0307 O.co2     1 <0>        -0.7000
      9 O2         -4.4475   -5.8461    0.0131 O.co2     1 <0>        -0.7100
     10 H1          1.0039    1.9031    0.0027 H         1 <0>         0.0488
     11 H2         -0.5459    1.8868   -0.8726 H         1 <0>         0.0523
     12 H3         -0.5289    1.8773    0.9072 H         1 <0>         0.0523
     13 H4          0.5123   -0.3556   -0.8948 H         1 <0>         0.0582
     14 H5          0.5293   -0.3651    0.8851 H         1 <0>         0.0582
     15 H6         -1.9435   -0.1821    0.9097 H         1 <0>         0.0595
     16 H7         -1.9605   -0.1726   -0.8702 H         1 <0>         0.0595
     17 H8         -0.9024   -2.4150   -0.8923 H         1 <0>         0.0538
     18 H9         -0.8854   -2.4246    0.8875 H         1 <0>         0.0538
     19 H10        -3.3581   -2.2415    0.9121 H         1 <0>         0.0572
     20 H11        -3.3751   -2.2320   -0.8677 H         1 <0>         0.0572
     21 H12        -2.3170   -4.4744   -0.8899 H         1 <0>         0.0541
     22 H13        -2.3000   -4.4840    0.8900 H         1 <0>         0.0541
@<TRIPOS>BOND
     1    1    2 1
     2    1   10 1
     3    1   11 1
     4    1   12 1
     5    2    3 1
     6    2   13 1
     7    2   14 1
     8    3    4 1
     9    3   15 1
    10    3   16 1
    11    4    5 1
    12    4   17 1
    13    4   18 1
    14    5    6 1
    15    5   19 1
    16    5   20 1
    17    6    7 1
    18    6   21 1
    19    6   22 1
    20    7    8 2
    21    7    9 1
@<TRIPOS>MOLECULE
ZINC29056295
   35    38     0     0     0
SMALL
USER_CHARGES

@<TRIPOS>ATOM
      1 C1         -0.0167    1.3774    0.0096 C.ar      1 <0>        -0.1266
      2 C2          1.1670    2.0952    0.0022 C.ar      1 <0>        -0.1215
      3 C3          2.3842    1.4397   -0.0135 C.ar      1 <0>        -0.0877
      4 C4          2.4255    0.0474   -0.0218 C.ar      1 <0>        -0.0994
      5 C5          1.2197   -0.6846   -0.0138 C.ar      1 <0>        -0.0731
      6 C6          0.0021   -0.0041    0.0020 C.ar      1 <0>        -0.1076
      7 C7          1.2460   -2.1590   -0.0229 C.2       1 <0>         0.2657
      8 C8          1.5798   -2.8881    1.1445 C.ar      1 <0>        -0.2105
      9 C9          1.8935   -2.2170    2.3393 C.ar      1 <0>         0.0575
     10 C10         2.2120   -2.9291    3.4541 C.ar      1 <0>        -0.1981
     11 C11         2.2295   -4.3309    3.4184 C.ar      1 <0>         0.3725
     12 C12         1.9218   -5.0107    2.2447 C.ar      1 <0>        -0.2566
     13 C13         1.5953   -4.3002    1.1006 C.ar      1 <0>         0.2558
     14 O1          1.2951   -4.9553   -0.0400 O.3       1 <0>        -0.1896
     15 C14         0.9719   -4.2973   -1.1726 C.2       1 <0>         0.2575
     16 C15         0.6690   -5.0048   -2.3250 C.2       1 <0>        -0.2592
     17 C16         0.3355   -4.3220   -3.4898 C.2       1 <0>         0.3694
     18 O2          0.0411   -5.0123   -4.6084 O.2       1 <0>        -0.5938
     19 C17         0.3030   -2.9202   -3.5082 C.2       1 <0>        -0.1998
     20 C18         0.5982   -2.2110   -2.3852 C.2       1 <0>         0.0428
     21 C19         0.9325   -2.8851   -1.1978 C.2       1 <0>        -0.2486
     22 Br1        -0.1528   -2.0107   -5.1022 Br        1 <0>        -0.0584
     23 Br2         0.7097   -6.8953   -2.3139 Br        1 <0>        -0.0430
     24 Br3         1.9496   -6.9011    2.2100 Br        1 <0>        -0.0448
     25 O3          2.5469   -5.0240    4.5289 O.3       1 <0>        -0.5933
     26 Br4         2.6341   -2.0237    5.0597 Br        1 <0>        -0.0591
     27 C20         3.7223   -0.6573   -0.0395 C.2       1 <0>         0.5128
     28 O4          4.7651   -0.0188   -0.0468 O.co2     1 <0>        -0.6798
     29 O5          3.7538   -1.8798   -0.0468 O.co2     1 <0>        -0.6494
     30 H1         -0.9612    1.9009    0.0260 H         1 <0>         0.1212
     31 H2          1.1395    3.1748    0.0082 H         1 <0>         0.1185
     32 H3          3.3031    2.0072   -0.0195 H         1 <0>         0.1332
     33 H4         -0.9257   -0.5569    0.0083 H         1 <0>         0.1243
     34 H5          1.8819   -1.1376    2.3721 H         1 <0>         0.1324
     35 H6          0.5724   -1.1314   -2.4051 H         1 <0>         0.1364
@<TRIPOS>BOND
     1    1    6 ar
     2    1    2 ar
     3    1   30 1
     4    2    3 ar
     5    2   31 1
     6    3    4 ar
     7    3   32 1
     8    4    5 ar
     9    4   27 1
    10    5    6 ar
    11    5    7 1
    12    6   33 1
    13    7   21 2
    14    7    8 1
    15    8   13 ar
    16    8    9 ar
    17    9   10 ar
    18    9   34 1
    19   10   11 ar
    20   10   26 1
    21   11   12 ar
    22   11   25 1
    23   12   13 ar
    24   12   24 1
    25   13   14 1
    26   14   15 1
    27   15   21 1
    28   15   16 2
    29   16   17 1
    30   16   23 1
    31   17   18 2
    32   17   19 1
    33   19   20 2
    34   19   22 1
    35   20   21 1
    36   20   35 1
    37   27   28 2
    38   27   29 1
@<TRIPOS>MOLECULE
ZINC29056295
   36    39     0     0     0
SMALL
USER_CHARGES

@<TRIPOS>ATOM
      1 C1         -0.0167    1.3772    0.0096 C.ar      1 <0>        -0.1237
      2 C2          1.1671    2.0952    0.0022 C.ar      1 <0>        -0.1106
      3 C3          2.3841    1.4399   -0.0134 C.ar      1 <0>        -0.0848
      4 C4          2.4255    0.0473   -0.0217 C.ar      1 <0>        -0.0964
      5 C5          1.2196   -0.6846   -0.0136 C.ar      1 <0>        -0.0884
      6 C6          0.0021   -0.0041    0.0020 C.ar      1 <0>        -0.1061
      7 C7          1.2460   -2.1591   -0.0227 C.2       1 <0>         0.2160
      8 C8          0.9418   -2.9304    1.1846 C.ar      1 <0>        -0.1409
      9 C9          0.6156   -2.2857    2.3858 C.ar      1 <0>         0.0216
     10 C10         0.3355   -3.0248    3.4973 C.ar      1 <0>        -0.1460
     11 C11         0.3726   -4.4197    3.4453 C.ar      1 <0>         0.2270
     12 C12         0.6932   -5.0736    2.2663 C.ar      1 <0>        -0.1469
     13 C13         0.9809   -4.3388    1.1241 C.ar      1 <0>         0.2125
     14 O1          1.2931   -4.9656   -0.0282 O.3       1 <0>        -0.1863
     15 C14         1.5793   -4.2932   -1.1622 C.2       1 <0>         0.2476
     16 C15         1.8916   -4.9920   -2.3122 C.2       1 <0>        -0.2645
     17 C16         2.1895   -4.2985   -3.4916 C.2       1 <0>         0.4367
     18 O2          2.4662   -4.9200   -4.5106 O.2       1 <0>        -0.4710
     19 C17         2.1721   -2.8872   -3.5128 C.2       1 <0>        -0.2005
     20 C18         1.8671   -2.1915   -2.3890 C.2       1 <0>         0.0465
     21 C19         1.5595   -2.8773   -1.1969 C.2       1 <0>        -0.1421
     22 Br1         2.5759   -1.9635   -5.1127 Br        1 <0>        -0.0283
     23 Br2         1.9175   -6.8827   -2.2935 Br        1 <0>        -0.0198
     24 Br3         0.7394   -6.9633    2.2136 Br        1 <0>         0.0111
     25 O3          0.0925   -5.1416    4.5595 O.3       1 <0>        -0.4632
     26 Br4        -0.1047   -2.1557    5.1180 Br        1 <0>        -0.0101
     27 C20         3.7220   -0.6572   -0.0393 C.2       1 <0>         0.5130
     28 O4          4.7649   -0.0186   -0.0466 O.co2     1 <0>        -0.6656
     29 O5          3.7535   -1.8797   -0.0465 O.co2     1 <0>        -0.6622
     30 H1         -0.9612    1.9007    0.0260 H         1 <0>         0.1262
     31 H2          1.1395    3.1748    0.0082 H         1 <0>         0.1246
     32 H3          3.3029    2.0075   -0.0195 H         1 <0>         0.1380
     33 H4         -0.9257   -0.5569    0.0082 H         1 <0>         0.1248
     34 H5          0.5863   -1.2071    2.4310 H         1 <0>         0.1613
     35 H6          1.8555   -1.1117   -2.4089 H         1 <0>         0.1451
     36 H7         -0.8431   -5.3652    4.6584 H         1 <0>         0.4053
@<TRIPOS>BOND
     1    1    6 ar
     2    1    2 ar
     3    1   30 1
     4    2    3 ar
     5    2   31 1
     6    3    4 ar
     7    3   32 1
     8    4    5 ar
     9    4   27 1
    10    5    6 ar
    11    5    7 1
    12    6   33 1
    13    7   21 2
    14    7    8 1
    15    8   13 ar
    16    8    9 ar
    17    9   10 ar
    18    9   34 1
    19   10   11 ar
    20   10   26 1
    21   11   12 ar
    22   11   25 1
    23   12   13 ar
    24   12   24 1
    25   13   14 1
    26   14   15 1
    27   15   21 1
    28   15   16 2
    29   16   17 1
    30   16   23 1
    31   17   18 2
    32   17   19 1
    33   19   20 2
    34   19   22 1
    35   20   21 1
    36   20   35 1
    37   25   36 1
    38   27   28 2
    39   27   29 1
@<TRIPOS>MOLECULE
ZINC38141758
   32    32     0     0     0
SMALL
USER_CHARGES

@<TRIPOS>ATOM
      1 C1         -0.0187    1.5258    0.0104 C.3       1 <0>        -0.1171
      2 C2          0.0021   -0.0041    0.0020 C.3       1 <0>        -0.1346
      3 H1          0.5123   -0.3556   -0.8948 H         1 <0>         0.0688
      4 C3         -1.4117   -0.5257    0.0127 C.ar      1 <0>        -0.0283
      5 C4         -2.2591   -0.2043    1.0565 C.ar      1 <0>        -0.0789
      6 C5         -3.5560   -0.6827    1.0663 C.ar      1 <0>        -0.1224
      7 C6         -4.0056   -1.4823    0.0321 C.ar      1 <0>        -0.1045
      8 C7         -3.1585   -1.8029   -1.0121 C.ar      1 <0>        -0.1215
      9 C8         -1.8629   -1.3209   -1.0241 C.ar      1 <0>        -0.1299
     10 C9         -5.4191   -2.0047    0.0433 C.3       1 <0>        -0.0688
     11 C10        -6.3366   -1.0086   -0.6687 C.3       1 <0>        -0.0917
     12 C11        -5.9482   -0.9236   -2.1461 C.3       1 <0>        -0.1490
     13 C12        -7.7883   -1.4770   -0.5491 C.3       1 <0>        -0.1463
     14 C13         0.7309   -0.5033    1.2229 C.2       1 <0>         0.5000
     15 O1          0.1557   -1.2165    2.0272 O.co2     1 <0>        -0.6863
     16 O2          1.8959   -0.1939    1.4064 O.co2     1 <0>        -0.6999
     17 H2          1.0039    1.9031    0.0027 H         1 <0>         0.0588
     18 H3         -0.5459    1.8868   -0.8726 H         1 <0>         0.0394
     19 H4         -0.5289    1.8773    0.9072 H         1 <0>         0.0469
     20 H5         -1.9079    0.4204    1.8645 H         1 <0>         0.1152
     21 H6         -4.2179   -0.4322    1.8822 H         1 <0>         0.1106
     22 H7         -3.5096   -2.4278   -1.8199 H         1 <0>         0.1100
     23 H8         -1.2022   -1.5684   -1.8418 H         1 <0>         0.1111
     24 H9         -5.4557   -2.9647   -0.4717 H         1 <0>         0.0650
     25 H10        -5.7512   -2.1322    1.0737 H         1 <0>         0.0658
     26 H11        -6.2328   -0.0260   -0.2086 H         1 <0>         0.0696
     27 H12        -6.6019   -0.2140   -2.6534 H         1 <0>         0.0477
     28 H13        -4.9140   -0.5899   -2.2313 H         1 <0>         0.0635
     29 H14        -6.0521   -1.9062   -2.6062 H         1 <0>         0.0505
     30 H15        -8.0650   -1.5376    0.5035 H         1 <0>         0.0526
     31 H16        -8.4419   -0.7674   -1.0563 H         1 <0>         0.0514
     32 H17        -7.8921   -2.4596   -1.0092 H         1 <0>         0.0524
@<TRIPOS>BOND
     1    1    2 1
     2    1   17 1
     3    1   18 1
     4    1   19 1
     5    2    3 1
     6    2    4 1
     7    2   14 1
     8    4    9 ar
     9    4    5 ar
    10    5    6 ar
    11    5   20 1
    12    6    7 ar
    13    6   21 1
    14    7    8 ar
    15    7   10 1
    16    8    9 ar
    17    8   22 1
    18    9   23 1
    19   10   11 1
    20   10   24 1
    21   10   25 1
    22   11   12 1
    23   11   13 1
    24   11   26 1
    25   12   27 1
    26   12   28 1
    27   12   29 1
    28   13   30 1
    29   13   31 1
    30   13   32 1
    31   14   15 2
    32   14   16 1
@<TRIPOS>MOLECULE
ZINC38141759
   32    32     0     0     0
SMALL
USER_CHARGES

@<TRIPOS>ATOM
      1 C1         -0.0187    1.5258    0.0104 C.3       1 <0>        -0.1161
      2 C2          0.0021   -0.0041    0.0020 C.3       1 <0>        -0.1322
      3 H1          0.5123   -0.3556   -0.8948 H         1 <0>         0.0665
      4 C3          0.7309   -0.5033    1.2229 C.ar      1 <0>        -0.0395
      5 C4          0.2630   -0.1872    2.4847 C.ar      1 <0>        -0.1030
      6 C5          0.9315   -0.6452    3.6046 C.ar      1 <0>        -0.1208
      7 C6          2.0678   -1.4195    3.4627 C.ar      1 <0>        -0.1043
      8 C7          2.5353   -1.7363    2.2010 C.ar      1 <0>        -0.1200
      9 C8          1.8643   -1.2820    1.0811 C.ar      1 <0>        -0.1243
     10 C9          2.7973   -1.9179    4.6836 C.3       1 <0>        -0.0680
     11 C10         2.2317   -3.2785    5.0956 C.3       1 <0>        -0.0934
     12 C11         2.5261   -4.3059    4.0007 C.3       1 <0>        -0.1501
     13 C12         2.8845   -3.7270    6.4047 C.3       1 <0>        -0.1454
     14 C13        -1.4117   -0.5257    0.0127 C.2       1 <0>         0.5043
     15 O1         -1.7102   -1.4919   -0.6684 O.co2     1 <0>        -0.6985
     16 O2         -2.2571    0.0185    0.7025 O.co2     1 <0>        -0.6908
     17 H2          1.0039    1.9031    0.0027 H         1 <0>         0.0363
     18 H3         -0.5459    1.8868   -0.8726 H         1 <0>         0.0472
     19 H4         -0.5289    1.8773    0.9072 H         1 <0>         0.0598
     20 H5         -0.6248    0.4177    2.5955 H         1 <0>         0.1300
     21 H6          0.5663   -0.3977    4.5903 H         1 <0>         0.1130
     22 H7          3.4233   -2.3410    2.0902 H         1 <0>         0.1123
     23 H8          2.2274   -1.5326    0.0953 H         1 <0>         0.1149
     24 H9          3.8586   -2.0192    4.4567 H         1 <0>         0.0652
     25 H10         2.6665   -1.2077    5.5001 H         1 <0>         0.0657
     26 H11         1.1540   -3.1964    5.2365 H         1 <0>         0.0710
     27 H12         2.1232   -5.2752    4.2942 H         1 <0>         0.0494
     28 H13         2.0610   -3.9864    3.0682 H         1 <0>         0.0643
     29 H14         3.6038   -4.3880    3.8598 H         1 <0>         0.0501
     30 H15         2.6748   -2.9951    7.1847 H         1 <0>         0.0522
     31 H16         2.4816   -4.6963    6.6982 H         1 <0>         0.0523
     32 H17         3.9623   -3.8091    6.2637 H         1 <0>         0.0520
@<TRIPOS>BOND
     1    1    2 1
     2    1   17 1
     3    1   18 1
     4    1   19 1
     5    2    3 1
     6    2    4 1
     7    2   14 1
     8    4    9 ar
     9    4    5 ar
    10    5    6 ar
    11    5   20 1
    12    6    7 ar
    13    6   21 1
    14    7    8 ar
    15    7   10 1
    16    8    9 ar
    17    8   22 1
    18    9   23 1
    19   10   11 1
    20   10   24 1
    21   10   25 1
    22   11   12 1
    23   11   13 1
    24   11   26 1
    25   12   27 1
    26   12   28 1
    27   12   29 1
    28   13   30 1
    29   13   31 1
    30   13   32 1
    31   14   15 2
    32   14   16 1
@<TRIPOS>MOLECULE
ZINC00001982
   37    37     0     0     0
SMALL
USER_CHARGES

@<TRIPOS>ATOM
      1 C1         -0.0187    1.5258    0.0104 C.3       1 <0>        -0.1493
      2 C2          0.0021   -0.0041    0.0020 C.3       1 <0>        -0.1528
      3 C3         -1.4333   -0.5336    0.0129 C.3       1 <0>         0.1155
      4 N1         -1.4134   -1.9985    0.0048 N.pl3     1 <0>        -0.9981
      5 C4         -1.2809   -2.7362    1.2636 C.3       1 <0>         0.1234
      6 C5         -2.6603   -2.9046    1.9037 C.3       1 <0>        -0.1449
      7 C6         -2.5218   -3.6750    3.2183 C.3       1 <0>        -0.1497
      8 S1         -1.5408   -2.8204   -1.4271 S.o2      1 <0>         2.6916
      9 O1         -2.0455   -4.1107   -1.1113 O.2       1 <0>        -0.9606
     10 O2         -2.1951   -1.9488   -2.3389 O.2       1 <0>        -0.9631
     11 C7          0.0943   -3.0554   -2.0402 C.ar      1 <0>        -0.6859
     12 C8          0.6632   -2.1026   -2.8669 C.ar      1 <0>        -0.0395
     13 C9          1.9425   -2.2800   -3.3509 C.ar      1 <0>        -0.1070
     14 C10         2.6643   -3.4249   -3.0042 C.ar      1 <0>        -0.0731
     15 C11         2.0836   -4.3825   -2.1688 C.ar      1 <0>        -0.1073
     16 C12         0.8054   -4.1892   -1.6881 C.ar      1 <0>        -0.0399
     17 C13         4.0331   -3.6221   -3.5184 C.2       1 <0>         0.5146
     18 O3          4.5384   -2.7824   -4.2498 O.co2     1 <0>        -0.6774
     19 O4          4.6623   -4.6254   -3.2131 O.co2     1 <0>        -0.6776
     20 H1          1.0039    1.9031    0.0027 H         1 <0>         0.0581
     21 H2         -0.5459    1.8868   -0.8726 H         1 <0>         0.0574
     22 H3         -0.5289    1.8773    0.9072 H         1 <0>         0.0537
     23 H4          0.5123   -0.3556   -0.8948 H         1 <0>         0.0697
     24 H5          0.5293   -0.3651    0.8851 H         1 <0>         0.0680
     25 H6         -1.9435   -0.1821    0.9097 H         1 <0>         0.0816
     26 H7         -1.9605   -0.1726   -0.8702 H         1 <0>         0.0925
     27 H8         -0.8498   -3.7176    1.0659 H         1 <0>         0.0824
     28 H9         -0.6306   -2.1837    1.9418 H         1 <0>         0.0796
     29 H10        -3.0913   -1.9231    2.1014 H         1 <0>         0.0649
     30 H11        -3.3106   -3.4571    1.2255 H         1 <0>         0.0704
     31 H12        -2.0908   -4.6564    3.0206 H         1 <0>         0.0584
     32 H13        -1.8715   -3.1225    3.8965 H         1 <0>         0.0545
     33 H14        -3.5045   -3.7949    3.6744 H         1 <0>         0.0560
     34 H15         0.1041   -1.2180   -3.1340 H         1 <0>         0.1307
     35 H16         2.3850   -1.5359   -3.9965 H         1 <0>         0.1363
     36 H17         2.6358   -5.2699   -1.8968 H         1 <0>         0.1364
     37 H18         0.3568   -4.9263   -1.0387 H         1 <0>         0.1306
@<TRIPOS>BOND
     1    1    2 1
     2    1   20 1
     3    1   21 1
     4    1   22 1
     5    2    3 1
     6    2   23 1
     7    2   24 1
     8    3    4 1
     9    3   25 1
    10    3   26 1
    11    4    5 1
    12    4    8 1
    13    5    6 1
    14    5   27 1
    15    5   28 1
    16    6    7 1
    17    6   29 1
    18    6   30 1
    19    7   31 1
    20    7   32 1
    21    7   33 1
    22    8    9 2
    23    8   10 2
    24    8   11 1
    25   11   16 ar
    26   11   12 ar
    27   12   13 ar
    28   12   34 1
    29   13   14 ar
    30   13   35 1
    31   14   15 ar
    32   14   17 1
    33   15   16 ar
    34   15   36 1
    35   16   37 1
    36   17   18 2
    37   17   19 1
