@<TRIPOS>MOLECULE
ZINC04261942
   48    51     0     0     0
SMALL
USER_CHARGES

@<TRIPOS>ATOM
      1 C1         -0.0167    1.3781    0.0096 C.ar      1 <0>        -0.0998
      2 C2          1.1709    2.0855    0.0021 C.ar      1 <0>        -0.0521
      3 C3          2.3773    1.4107   -0.0130 C.ar      1 <0>        -0.0442
      4 C4          2.3961    0.0285   -0.0201 C.ar      1 <0>        -0.0519
      5 C5          1.2084   -0.6789   -0.0117 C.ar      1 <0>        -0.0996
      6 C6          0.0021   -0.0041    0.0020 C.ar      1 <0>        -0.0270
      7 C7         -1.2926   -0.7753    0.0102 C.3       1 <0>        -0.0876
      8 S1         -1.8284   -1.0755   -1.6967 S.3       1 <0>         0.0218
      9 C8         -3.3337   -1.9740   -1.5192 C.ar      1 <0>         0.2628
     10 C9         -4.0549   -2.3980   -2.6498 C.ar      1 <0>        -0.0841
     11 C10        -5.2479   -3.1109   -2.4494 C.ar      1 <0>         0.3503
     12 N1         -5.6535   -3.3595   -1.2077 N.ar      1 <0>        -0.5682
     13 C11        -4.9448   -2.9420   -0.1714 C.ar      1 <0>         0.6043
     14 N2         -3.8092   -2.2705   -0.3142 N.ar      1 <0>        -0.5730
     15 N3         -5.4009   -3.2204    1.1066 N.pl3     1 <0>        -0.8147
     16 N4         -5.7346   -3.3943   -3.7004 N.pl3     1 <0>        -0.4766
     17 C12        -4.8616   -2.8682   -4.6075 C.2       1 <0>         0.2720
     18 N5         -3.8772   -2.2843   -3.9889 N.2       1 <0>        -0.4499
     19 C13        -6.9657   -4.1271   -4.0063 C.3       1 <0>         0.3145
     20 H1         -7.1252   -4.9209   -3.2765 H         1 <0>         0.1219
     21 C14        -8.1737   -3.1645   -4.0263 C.3       1 <0>         0.0790
     22 H2         -7.8470   -2.1460   -4.2361 H         1 <0>         0.0862
     23 C15        -9.0589   -3.6967   -5.1754 C.3       1 <0>         0.0474
     24 H3         -9.1699   -2.9413   -5.9533 H         1 <0>         0.0879
     25 C16        -8.2810   -4.9179   -5.7137 C.3       1 <0>         0.0505
     26 H4         -8.6430   -5.8341   -5.2472 H         1 <0>         0.1000
     27 O1         -6.9059   -4.6757   -5.3409 O.3       1 <0>        -0.3455
     28 C17        -8.4158   -5.0069   -7.2351 C.3       1 <0>         0.0819
     29 O2         -7.7889   -6.2040   -7.6997 O.3       1 <0>        -0.5635
     30 O3        -10.3387   -4.0939   -4.6788 O.3       1 <0>        -0.5392
     31 O4         -8.8768   -3.2173   -2.7833 O.3       1 <0>        -0.5268
     32 N6          3.6490    2.1682   -0.0221 N.pl3     1 <0>         0.0314
     33 O5          3.6326    3.3771   -0.0163 O.2       1 <0>        -0.1554
     34 O6          4.7040    1.5780   -0.0353 O.3       1 <0>        -0.1550
     35 H5         -0.9591    1.9053    0.0259 H         1 <0>         0.1516
     36 H6          1.1563    3.1654    0.0076 H         1 <0>         0.1576
     37 H7          3.3385   -0.4987   -0.0326 H         1 <0>         0.1577
     38 H8          1.2231   -1.7588   -0.0179 H         1 <0>         0.1518
     39 H9         -1.1445   -1.7285    0.5175 H         1 <0>         0.1140
     40 H10        -2.0553   -0.1993    0.5344 H         1 <0>         0.1139
     41 H11        -6.2270   -3.7136    1.2300 H         1 <0>         0.4176
     42 H12        -4.8943   -2.9221    1.8781 H         1 <0>         0.4169
     43 H13        -4.9711   -2.9283   -5.6802 H         1 <0>         0.2265
     44 H14        -9.4715   -5.0209   -7.5062 H         1 <0>         0.0671
     45 H15        -7.9344   -4.1431   -7.6937 H         1 <0>         0.0616
     46 H16        -7.8359   -6.3264   -8.6578 H         1 <0>         0.3872
     47 H17       -10.9353   -4.4363   -5.3585 H         1 <0>         0.3878
     48 H18        -9.6453   -2.6319   -2.7409 H         1 <0>         0.3907
@<TRIPOS>BOND
     1    1    6 ar
     2    1    2 ar
     3    1   35 1
     4    2    3 ar
     5    2   36 1
     6    3    4 ar
     7    3   32 1
     8    4    5 ar
     9    4   37 1
    10    5    6 ar
    11    5   38 1
    12    6    7 1
    13    7    8 1
    14    7   39 1
    15    7   40 1
    16    8    9 1
    17    9   14 ar
    18    9   10 ar
    19   10   18 1
    20   10   11 ar
    21   11   12 ar
    22   11   16 1
    23   12   13 ar
    24   13   14 ar
    25   13   15 1
    26   15   41 1
    27   15   42 1
    28   16   17 1
    29   16   19 1
    30   17   18 2
    31   17   43 1
    32   19   20 1
    33   19   27 1
    34   19   21 1
    35   21   22 1
    36   21   23 1
    37   21   31 1
    38   23   24 1
    39   23   25 1
    40   23   30 1
    41   25   26 1
    42   25   27 1
    43   25   28 1
    44   28   29 1
    45   28   44 1
    46   28   45 1
    47   29   46 1
    48   30   47 1
    49   31   48 1
    50   32   33 2
    51   32   34 1
@<TRIPOS>MOLECULE
ZINC02097863
   46    49     0     0     0
SMALL
USER_CHARGES

@<TRIPOS>ATOM
      1 C1         -0.0167    1.3781    0.0096 C.ar      1 <0>        -0.0995
      2 C2          1.1709    2.0855    0.0021 C.ar      1 <0>        -0.0522
      3 C3          2.3773    1.4107   -0.0130 C.ar      1 <0>        -0.0440
      4 C4          2.3961    0.0285   -0.0201 C.ar      1 <0>        -0.0520
      5 C5          1.2084   -0.6789   -0.0117 C.ar      1 <0>        -0.0994
      6 C6          0.0021   -0.0041    0.0020 C.ar      1 <0>        -0.0273
      7 C7         -1.2926   -0.7753    0.0102 C.3       1 <0>        -0.0863
      8 S1         -1.8284   -1.0755   -1.6967 S.3       1 <0>         0.0159
      9 C8         -3.3337   -1.9740   -1.5192 C.ar      1 <0>         0.2209
     10 C9         -4.0558   -2.3985   -2.6487 C.ar      1 <0>        -0.0319
     11 C10        -5.2486   -3.1114   -2.4436 C.ar      1 <0>         0.3000
     12 N1         -5.6488   -3.3572   -1.1998 N.ar      1 <0>        -0.5069
     13 C11        -4.9402   -2.9402   -0.1719 C.ar      1 <0>         0.3324
     14 N2         -3.8106   -2.2713   -0.3141 N.ar      1 <0>        -0.5328
     15 N3         -5.7387   -3.3962   -3.6930 N.pl3     1 <0>        -0.4726
     16 C12        -4.8689   -2.8719   -4.6023 C.2       1 <0>         0.2898
     17 N4         -3.8822   -2.2869   -3.9873 N.2       1 <0>        -0.4596
     18 C13        -6.9704   -4.1298   -3.9945 C.3       1 <0>         0.3121
     19 H1         -7.1275   -4.9228   -3.2634 H         1 <0>         0.1248
     20 C14        -8.1787   -3.1675   -4.0123 C.3       1 <0>         0.0790
     21 H2         -7.8529   -2.1492   -4.2242 H         1 <0>         0.0861
     22 C15        -9.0670   -3.7013   -5.1583 C.3       1 <0>         0.0478
     23 H3         -9.1803   -2.9468   -5.9368 H         1 <0>         0.0884
     24 C16        -8.2902   -4.9229   -5.6974 C.3       1 <0>         0.0504
     25 H4         -8.6506   -5.8387   -5.2289 H         1 <0>         0.1011
     26 O1         -6.9141   -4.6799   -5.3287 O.3       1 <0>        -0.3461
     27 C17        -8.4293   -5.0136   -7.2184 C.3       1 <0>         0.0819
     28 O2         -7.8032   -6.2111   -7.6834 O.3       1 <0>        -0.5636
     29 O3        -10.3452   -4.0983   -4.6577 O.3       1 <0>        -0.5386
     30 O4         -8.8783   -3.2192   -2.7673 O.3       1 <0>        -0.5265
     31 N5          3.6490    2.1682   -0.0221 N.pl3     1 <0>         0.0314
     32 O5          3.6326    3.3771   -0.0163 O.2       1 <0>        -0.1552
     33 O6          4.7040    1.5780   -0.0353 O.3       1 <0>        -0.1549
     34 H5         -0.9591    1.9053    0.0259 H         1 <0>         0.1517
     35 H6          1.1563    3.1654    0.0076 H         1 <0>         0.1577
     36 H7          3.3385   -0.4987   -0.0326 H         1 <0>         0.1578
     37 H8          1.2231   -1.7588   -0.0179 H         1 <0>         0.1519
     38 H9         -1.1445   -1.7285    0.5175 H         1 <0>         0.1150
     39 H10        -2.0553   -0.1993    0.5344 H         1 <0>         0.1149
     40 H11        -5.2939   -3.1568    0.8253 H         1 <0>         0.2103
     41 H12        -4.9821   -2.9325   -5.6746 H         1 <0>         0.2302
     42 H13        -9.4857   -5.0283   -7.4864 H         1 <0>         0.0680
     43 H14        -7.9494   -4.1502   -7.6792 H         1 <0>         0.0616
     44 H15        -7.8529   -6.3345   -8.6412 H         1 <0>         0.3876
     45 H16       -10.9436   -4.4417   -5.3353 H         1 <0>         0.3884
     46 H17        -9.6468   -2.6339   -2.7233 H         1 <0>         0.3921
@<TRIPOS>BOND
     1    1    6 ar
     2    1    2 ar
     3    1   34 1
     4    2    3 ar
     5    2   35 1
     6    3    4 ar
     7    3   31 1
     8    4    5 ar
     9    4   36 1
    10    5    6 ar
    11    5   37 1
    12    6    7 1
    13    7    8 1
    14    7   38 1
    15    7   39 1
    16    8    9 1
    17    9   14 ar
    18    9   10 ar
    19   10   17 1
    20   10   11 ar
    21   11   12 ar
    22   11   15 1
    23   12   13 ar
    24   13   14 ar
    25   13   40 1
    26   15   16 1
    27   15   18 1
    28   16   17 2
    29   16   41 1
    30   18   19 1
    31   18   26 1
    32   18   20 1
    33   20   21 1
    34   20   22 1
    35   20   30 1
    36   22   23 1
    37   22   24 1
    38   22   29 1
    39   24   25 1
    40   24   26 1
    41   24   27 1
    42   27   28 1
    43   27   42 1
    44   27   43 1
    45   28   44 1
    46   29   45 1
    47   30   46 1
    48   31   32 2
    49   31   33 1
@<TRIPOS>MOLECULE
ZINC03995996
   45    48     0     0     0
SMALL
USER_CHARGES

@<TRIPOS>ATOM
      1 C1         -0.0158    1.3119    0.0093 C.ar      1 <0>         0.3644
      2 N1          1.0888    2.0360    0.0026 N.ar      1 <0>        -0.5872
      3 C2          2.2875    1.4625   -0.0119 C.ar      1 <0>         0.5077
      4 C3          2.3582    0.0588   -0.0202 C.ar      1 <0>        -0.1088
      5 C4          1.1547   -0.6659   -0.0126 C.ar      1 <0>         0.3137
      6 N2          0.0021   -0.0041    0.0020 N.ar      1 <0>        -0.5515
      7 N3          1.5110   -1.9908   -0.0227 N.pl3     1 <0>        -0.4718
      8 C5          2.8729   -2.0476   -0.0358 C.2       1 <0>         0.2611
      9 N4          3.3680   -0.8441   -0.0343 N.2       1 <0>        -0.4603
     10 C6          0.5956   -3.1347   -0.0195 C.3       1 <0>         0.3142
     11 H1         -0.2832   -2.9148    0.5866 H         1 <0>         0.1228
     12 C7          0.1775   -3.4928   -1.4629 C.3       1 <0>         0.0798
     13 H2          0.9267   -3.1463   -2.1747 H         1 <0>         0.0850
     14 C8          0.1056   -5.0362   -1.4608 C.3       1 <0>         0.0473
     15 H3          0.8193   -5.4528   -2.1716 H         1 <0>         0.0869
     16 C9          0.4888   -5.4280   -0.0165 C.3       1 <0>         0.0504
     17 H4         -0.4066   -5.5617    0.5906 H         1 <0>         0.1001
     18 O1          1.2661   -4.3138    0.4763 O.3       1 <0>        -0.3470
     19 C10         1.3272   -6.7078   -0.0164 C.3       1 <0>         0.0821
     20 O2          1.5723   -7.1166    1.3308 O.3       1 <0>        -0.5634
     21 O3         -1.2191   -5.4762   -1.7672 O.3       1 <0>        -0.5387
     22 O4         -1.0998   -2.9297   -1.7685 O.3       1 <0>        -0.5252
     23 N5          3.4393    2.2295   -0.0193 N.pl3     1 <0>        -0.6872
     24 C11         3.3458    3.6915   -0.0110 C.3       1 <0>         0.1462
     25 C12         3.2434    4.2227   -1.4557 C.3       1 <0>        -0.1335
     26 C13         4.0688    5.5332   -1.4380 C.3       1 <0>        -0.1249
     27 C14         5.2562    5.1767   -0.5095 C.3       1 <0>        -0.1248
     28 C15         4.6256    4.2981    0.5906 C.3       1 <0>        -0.1339
     29 H5         -0.9693    1.8187    0.0257 H         1 <0>         0.2043
     30 H6          3.4551   -2.9572   -0.0459 H         1 <0>         0.2223
     31 H7          0.7880   -7.4954   -0.5427 H         1 <0>         0.0671
     32 H8          2.2767   -6.5201   -0.5176 H         1 <0>         0.0609
     33 H9          2.0996   -7.9235    1.4072 H         1 <0>         0.3867
     34 H10        -1.3212   -6.4377   -1.7794 H         1 <0>         0.3873
     35 H11        -1.4113   -3.1237   -2.6632 H         1 <0>         0.3905
     36 H12         4.3085    1.7992   -0.0299 H         1 <0>         0.4159
     37 H13         2.4764    4.0065    0.5660 H         1 <0>         0.0983
     38 H14         3.6762    3.5086   -2.1563 H         1 <0>         0.0673
     39 H15         2.2046    4.4296   -1.7133 H         1 <0>         0.0735
     40 H16         4.4221    5.7807   -2.4391 H         1 <0>         0.0683
     41 H17         3.4840    6.3525   -1.0200 H         1 <0>         0.0706
     42 H18         6.0141    4.6167   -1.0573 H         1 <0>         0.0665
     43 H19         5.6864    6.0798   -0.0766 H         1 <0>         0.0690
     44 H20         4.3771    4.9082    1.4590 H         1 <0>         0.0768
     45 H21         5.3162    3.5047    0.8764 H         1 <0>         0.0709
@<TRIPOS>BOND
     1    1    6 ar
     2    1    2 ar
     3    1   29 1
     4    2    3 ar
     5    3    4 ar
     6    3   23 1
     7    4    9 1
     8    4    5 ar
     9    5    6 ar
    10    5    7 1
    11    7    8 1
    12    7   10 1
    13    8    9 2
    14    8   30 1
    15   10   11 1
    16   10   18 1
    17   10   12 1
    18   12   13 1
    19   12   14 1
    20   12   22 1
    21   14   15 1
    22   14   16 1
    23   14   21 1
    24   16   17 1
    25   16   18 1
    26   16   19 1
    27   19   20 1
    28   19   31 1
    29   19   32 1
    30   20   33 1
    31   21   34 1
    32   22   35 1
    33   23   24 1
    34   23   36 1
    35   24   28 1
    36   24   25 1
    37   24   37 1
    38   25   26 1
    39   25   38 1
    40   25   39 1
    41   26   27 1
    42   26   40 1
    43   26   41 1
    44   27   28 1
    45   27   42 1
    46   27   43 1
    47   28   44 1
    48   28   45 1
@<TRIPOS>MOLECULE
ZINC22034381
   72    75     0     0     0
SMALL
USER_CHARGES

@<TRIPOS>ATOM
      1 C1          2.8879    0.8272    3.2756 C.3       1 <0>        -0.1059
      2 C2          2.1160    1.5296    2.1885 C.ar      1 <0>        -0.0686
      3 C3          2.3303    1.1994    0.8647 C.ar      1 <0>        -0.1146
      4 C4          1.6228    1.8438   -0.1335 C.ar      1 <0>        -0.1081
      5 C5          0.6985    2.8201    0.1900 C.ar      1 <0>        -0.1141
      6 C6          0.4793    3.1547    1.5120 C.ar      1 <0>        -0.0899
      7 C7          1.1844    2.5057    2.5171 C.ar      1 <0>         0.1251
      8 N1          0.9605    2.8382    3.8576 N.am      1 <0>        -0.6700
      9 C8          0.6338    1.8776    4.7447 C.2       1 <0>         0.5127
     10 O1          0.4700    0.7359    4.3695 O.2       1 <0>        -0.5041
     11 C9          0.4719    2.2220    6.2029 C.3       1 <0>         0.0359
     12 N2          0.1175    1.0113    6.9556 N.3       1 <0>        -0.5207
     13 C10        -1.2125    0.5206    6.5680 C.3       1 <0>         0.0195
     14 C11        -1.5180   -0.7714    7.3291 C.3       1 <0>         0.0016
     15 N3         -1.4754   -0.5104    8.7739 N.4       1 <0>        -0.3873
     16 C12        -0.1341   -0.0445    9.1498 C.3       1 <0>        -0.0044
     17 C13         0.1829    1.2535    8.4038 C.3       1 <0>         0.0268
     18 C14        -1.7865   -1.7466    9.5039 C.3       1 <0>        -0.0094
     19 C15        -1.8649   -1.4480   11.0024 C.3       1 <0>        -0.1501
     20 C16        -2.1889   -2.7356   11.7627 C.3       1 <0>        -0.1092
     21 C17        -2.2674   -2.4370   13.2613 C.3       1 <0>         0.0021
     22 C18        -3.4274   -1.5131   13.5293 C.ar      1 <0>        -0.0950
     23 C19        -4.6899   -1.8382   13.0694 C.ar      1 <0>        -0.0886
     24 C20        -5.7545   -0.9920   13.3150 C.ar      1 <0>        -0.1501
     25 C21        -5.5563    0.1819   14.0220 C.ar      1 <0>         0.1032
     26 C22        -4.2914    0.5064   14.4822 C.ar      1 <0>        -0.1496
     27 C23        -3.2293   -0.3440   14.2399 C.ar      1 <0>        -0.0849
     28 F1         -6.5962    1.0101   14.2624 F         1 <0>        -0.1347
     29 C24        -2.4644   -3.7240   14.0203 C.ar      1 <0>        -0.0977
     30 C25        -3.4814   -4.5888   13.6613 C.ar      1 <0>        -0.0867
     31 C26        -3.6628   -5.7694   14.3563 C.ar      1 <0>        -0.1502
     32 C27        -2.8253   -6.0860   15.4125 C.ar      1 <0>         0.1059
     33 C28        -1.8070   -5.2191   15.7711 C.ar      1 <0>        -0.1488
     34 C29        -1.6243   -4.0415   15.0713 C.ar      1 <0>        -0.0810
     35 F2         -3.0019   -7.2397   16.0929 F         1 <0>        -0.1343
     36 C30        -0.5278    4.2192    1.8636 C.3       1 <0>        -0.1111
     37 H1          2.4056   -0.1221    3.5084 H         1 <0>         0.0813
     38 H2          3.9074    0.6433    2.9366 H         1 <0>         0.0648
     39 H3          2.9091    1.4525    4.1682 H         1 <0>         0.0536
     40 H4          3.0515    0.4372    0.6088 H         1 <0>         0.1277
     41 H5          1.7927    1.5842   -1.1680 H         1 <0>         0.1283
     42 H6          0.1478    3.3218   -0.5919 H         1 <0>         0.1287
     43 H7          1.0404    3.7601    4.1485 H         1 <0>         0.4087
     44 H8          1.4082    2.6274    6.5866 H         1 <0>         0.1199
     45 H9         -0.3185    2.9642    6.3154 H         1 <0>         0.0783
     46 H10        -1.9630    1.2725    6.8119 H         1 <0>         0.0568
     47 H11        -1.2294    0.3238    5.4960 H         1 <0>         0.1398
     48 H12        -2.5100   -1.1294    7.0536 H         1 <0>         0.1354
     49 H13        -0.7752   -1.5274    7.0744 H         1 <0>         0.1400
     50 H14        -0.1001    0.1363   10.2241 H         1 <0>         0.1379
     51 H15         0.6016   -0.8042    8.8858 H         1 <0>         0.1394
     52 H16         1.1841    1.5914    8.6712 H         1 <0>         0.1251
     53 H17        -0.5445    2.0175    8.6780 H         1 <0>         0.0623
     54 H18        -2.7436   -2.1399    9.1612 H         1 <0>         0.1315
     55 H19        -1.0043   -2.4833    9.3207 H         1 <0>         0.1323
     56 H20        -0.9079   -1.0547   11.3452 H         1 <0>         0.0894
     57 H21        -2.6471   -0.7113   11.1857 H         1 <0>         0.0896
     58 H22        -3.1460   -3.1289   11.4200 H         1 <0>         0.0797
     59 H23        -1.4068   -3.4723   11.5795 H         1 <0>         0.0845
     60 H24        -1.3418   -1.9617   13.5860 H         1 <0>         0.0945
     61 H25        -4.8442   -2.7537   12.5176 H         1 <0>         0.1321
     62 H26        -6.7406   -1.2460   12.9553 H         1 <0>         0.1379
     63 H27        -4.1355    1.4219   15.0336 H         1 <0>         0.1386
     64 H28        -2.2434   -0.0932   14.6026 H         1 <0>         0.1334
     65 H29        -4.1347   -4.3414   12.8376 H         1 <0>         0.1302
     66 H30        -4.4576   -6.4447   14.0759 H         1 <0>         0.1384
     67 H31        -1.1534   -5.4649   16.5950 H         1 <0>         0.1396
     68 H32        -0.8273   -3.3672   15.3480 H         1 <0>         0.1335
     69 H33        -1.4841    3.7515    2.0978 H         1 <0>         0.0695
     70 H34        -0.1761    4.7803    2.7294 H         1 <0>         0.0610
     71 H35        -0.6516    4.8957    1.0180 H         1 <0>         0.0729
     72 H36        -2.1550    0.1979    9.0077 H         1 <0>         0.4194
@<TRIPOS>BOND
     1    1    2 1
     2    1   37 1
     3    1   38 1
     4    1   39 1
     5    2    7 ar
     6    2    3 ar
     7    3    4 ar
     8    3   40 1
     9    4    5 ar
    10    4   41 1
    11    5    6 ar
    12    5   42 1
    13    6    7 ar
    14    6   36 1
    15    7    8 1
    16    8    9 am
    17    8   43 1
    18    9   10 2
    19    9   11 1
    20   11   12 1
    21   11   44 1
    22   11   45 1
    23   12   17 1
    24   12   13 1
    25   13   14 1
    26   13   46 1
    27   13   47 1
    28   14   15 1
    29   14   48 1
    30   14   49 1
    31   15   16 1
    32   15   18 1
    33   15   72 1
    34   16   17 1
    35   16   50 1
    36   16   51 1
    37   17   52 1
    38   17   53 1
    39   18   19 1
    40   18   54 1
    41   18   55 1
    42   19   20 1
    43   19   56 1
    44   19   57 1
    45   20   21 1
    46   20   58 1
    47   20   59 1
    48   21   22 1
    49   21   29 1
    50   21   60 1
    51   22   27 ar
    52   22   23 ar
    53   23   24 ar
    54   23   61 1
    55   24   25 ar
    56   24   62 1
    57   25   26 ar
    58   25   28 1
    59   26   27 ar
    60   26   63 1
    61   27   64 1
    62   29   34 ar
    63   29   30 ar
    64   30   31 ar
    65   30   65 1
    66   31   32 ar
    67   31   66 1
    68   32   33 ar
    69   32   35 1
    70   33   34 ar
    71   33   67 1
    72   34   68 1
    73   36   69 1
    74   36   70 1
    75   36   71 1
@<TRIPOS>MOLECULE
ZINC22034381
   72    75     0     0     0
SMALL
USER_CHARGES

@<TRIPOS>ATOM
      1 C1          2.6923    1.0341    3.2042 C.3       1 <0>        -0.1099
      2 C2          1.8864    1.7064    2.1227 C.ar      1 <0>        -0.0659
      3 C3          2.1050    1.3858    0.7972 C.ar      1 <0>        -0.1135
      4 C4          1.3662    2.0026   -0.1958 C.ar      1 <0>        -0.0983
      5 C5          0.4063    2.9415    0.1346 C.ar      1 <0>        -0.1120
      6 C6          0.1826    3.2662    1.4583 C.ar      1 <0>        -0.0801
      7 C7          0.9192    2.6447    2.4582 C.ar      1 <0>         0.1090
      8 N1          0.6909    2.9672    3.8005 N.am      1 <0>        -0.6439
      9 C8          0.4080    1.9938    4.6887 C.2       1 <0>         0.4988
     10 O1          0.2870    0.8468    4.3133 O.2       1 <0>        -0.5081
     11 C9          0.2421    2.3305    6.1482 C.3       1 <0>        -0.0294
     12 N2         -0.0595    1.1062    6.9019 N.4       1 <0>        -0.3723
     13 C10        -1.3604    0.5757    6.4735 C.3       1 <0>        -0.0128
     14 C11        -1.6664   -0.7099    7.2449 C.3       1 <0>         0.0306
     15 N3         -1.6865   -0.4203    8.6857 N.3       1 <0>        -0.5387
     16 C12        -0.3984    0.1349    9.1245 C.3       1 <0>         0.0227
     17 C13        -0.1029    1.4136    8.3376 C.3       1 <0>        -0.0026
     18 C14        -2.0335   -1.6201    9.4591 C.3       1 <0>         0.0540
     19 C15        -2.2886   -1.2312   10.9167 C.3       1 <0>        -0.1171
     20 C16        -2.6500   -2.4809   11.7221 C.3       1 <0>        -0.1115
     21 C17        -2.9051   -2.0920   13.1797 C.3       1 <0>        -0.0001
     22 C18        -4.1193   -1.2028   13.2572 C.ar      1 <0>        -0.0853
     23 C19        -5.3107   -1.6091   12.6856 C.ar      1 <0>        -0.0857
     24 C20        -6.4249   -0.7947   12.7565 C.ar      1 <0>        -0.1495
     25 C21        -6.3478    0.4287   13.4003 C.ar      1 <0>         0.0992
     26 C22        -5.1541    0.8346   13.9724 C.ar      1 <0>        -0.1502
     27 C23        -4.0425    0.0162   13.9049 C.ar      1 <0>        -0.0851
     28 F1         -7.4363    1.2258   13.4698 F         1 <0>        -0.1376
     29 C24        -3.1403   -3.3357   13.9977 C.ar      1 <0>        -0.0921
     30 C25        -4.0802   -4.2635   13.5892 C.ar      1 <0>        -0.0863
     31 C26        -4.2964   -5.4046   14.3382 C.ar      1 <0>        -0.1503
     32 C27        -3.5711   -5.6184   15.4982 C.ar      1 <0>         0.1015
     33 C28        -2.6300   -4.6884   15.9063 C.ar      1 <0>        -0.1498
     34 C29        -2.4118   -3.5506   15.1528 C.ar      1 <0>        -0.0835
     35 F2         -3.7819   -6.7333   16.2314 F         1 <0>        -0.1363
     36 C30        -0.8634    4.2900    1.8174 C.3       1 <0>        -0.1152
     37 H1          2.2493    0.0663    3.4391 H         1 <0>         0.0817
     38 H2          3.7160    0.8907    2.8584 H         1 <0>         0.0719
     39 H3          2.6946    1.6591    4.0972 H         1 <0>         0.0488
     40 H4          2.8540    0.6529    0.5359 H         1 <0>         0.1313
     41 H5          1.5396    1.7507   -1.2316 H         1 <0>         0.1324
     42 H6         -0.1688    3.4217   -0.6432 H         1 <0>         0.1332
     43 H7          0.7363    3.8913    4.0918 H         1 <0>         0.4162
     44 H8          1.1641    2.7721    6.5263 H         1 <0>         0.1623
     45 H9         -0.5762    3.0408    6.2665 H         1 <0>         0.1624
     46 H10        -2.1374    1.3134    6.6740 H         1 <0>         0.1344
     47 H11        -1.3310    0.3602    5.4054 H         1 <0>         0.1514
     48 H12        -2.6385   -1.0957    6.9379 H         1 <0>         0.1234
     49 H13        -0.8969   -1.4526    7.0340 H         1 <0>         0.0618
     50 H14        -0.4454    0.3655   10.1888 H         1 <0>         0.1277
     51 H15         0.3920   -0.5938    8.9445 H         1 <0>         0.0614
     52 H16         0.8589    1.8193    8.6515 H         1 <0>         0.1371
     53 H17        -0.8863    2.1470    8.5286 H         1 <0>         0.1406
     54 H18        -2.9321   -2.0742    9.0415 H         1 <0>         0.0886
     55 H19        -1.2105   -2.3333    9.4120 H         1 <0>         0.0473
     56 H20        -1.3900   -0.7771   11.3342 H         1 <0>         0.0641
     57 H21        -3.1116   -0.5181   10.9637 H         1 <0>         0.0805
     58 H22        -3.5486   -2.9350   11.3046 H         1 <0>         0.0720
     59 H23        -1.8270   -3.1940   11.6751 H         1 <0>         0.0725
     60 H24        -2.0386   -1.5586   13.5705 H         1 <0>         0.0906
     61 H25        -5.3705   -2.5633   12.1832 H         1 <0>         0.1312
     62 H26        -7.3554   -1.1122   12.3095 H         1 <0>         0.1363
     63 H27        -5.0927    1.7888   14.4745 H         1 <0>         0.1363
     64 H28        -3.1125    0.3307   14.3549 H         1 <0>         0.1315
     65 H29        -4.6460   -4.0963   12.6846 H         1 <0>         0.1311
     66 H30        -5.0310   -6.1291   14.0192 H         1 <0>         0.1373
     67 H31        -2.0639   -4.8540   16.8110 H         1 <0>         0.1379
     68 H32        -1.6746   -2.8272   15.4685 H         1 <0>         0.1326
     69 H33        -1.7990    3.7848    2.0572 H         1 <0>         0.0733
     70 H34        -0.5284    4.8638    2.6814 H         1 <0>         0.0616
     71 H35        -1.0192    4.9617    0.9733 H         1 <0>         0.0771
     72 H36         0.6578    0.4185    6.7270 H         1 <0>         0.4271
@<TRIPOS>BOND
     1    1    2 1
     2    1   37 1
     3    1   38 1
     4    1   39 1
     5    2    7 ar
     6    2    3 ar
     7    3    4 ar
     8    3   40 1
     9    4    5 ar
    10    4   41 1
    11    5    6 ar
    12    5   42 1
    13    6    7 ar
    14    6   36 1
    15    7    8 1
    16    8    9 am
    17    8   43 1
    18    9   10 2
    19    9   11 1
    20   11   12 1
    21   11   44 1
    22   11   45 1
    23   12   17 1
    24   12   13 1
    25   12   72 1
    26   13   14 1
    27   13   46 1
    28   13   47 1
    29   14   15 1
    30   14   48 1
    31   14   49 1
    32   15   16 1
    33   15   18 1
    34   16   17 1
    35   16   50 1
    36   16   51 1
    37   17   52 1
    38   17   53 1
    39   18   19 1
    40   18   54 1
    41   18   55 1
    42   19   20 1
    43   19   56 1
    44   19   57 1
    45   20   21 1
    46   20   58 1
    47   20   59 1
    48   21   22 1
    49   21   29 1
    50   21   60 1
    51   22   27 ar
    52   22   23 ar
    53   23   24 ar
    54   23   61 1
    55   24   25 ar
    56   24   62 1
    57   25   26 ar
    58   25   28 1
    59   26   27 ar
    60   26   63 1
    61   27   64 1
    62   29   34 ar
    63   29   30 ar
    64   30   31 ar
    65   30   65 1
    66   31   32 ar
    67   31   66 1
    68   32   33 ar
    69   32   35 1
    70   33   34 ar
    71   33   67 1
    72   34   68 1
    73   36   69 1
    74   36   70 1
    75   36   71 1
@<TRIPOS>MOLECULE
ZINC00643046
   76    79     0     0     0
SMALL
USER_CHARGES

@<TRIPOS>ATOM
      1 C1          0.4883    2.4897    1.2990 C.3       1 <0>        -0.1142
      2 C2          1.1580    2.1388    2.6297 C.3       1 <0>        -0.1362
      3 C3          1.3103    0.6181    2.7347 C.3       1 <0>         0.1570
      4 N1          2.0305    0.1319    1.5500 N.pl3     1 <0>        -0.6468
      5 C4          1.5224    0.4890    0.2185 C.3       1 <0>         0.1574
      6 C5          1.3678    2.0112    0.1416 C.3       1 <0>        -0.1364
      7 C6          3.1637   -0.6453    1.6854 C.ar      1 <0>         0.5085
      8 C7          3.0733   -2.0580    1.7467 C.ar      1 <0>         0.0614
      9 C8          4.2673   -2.7976    1.8855 C.ar      1 <0>         0.0615
     10 C9          4.1770   -4.2103    1.9469 C.ar      1 <0>         0.5084
     11 N2          2.9771   -4.7656    1.8709 N.ar      1 <0>        -0.5394
     12 C10         1.8782   -4.0279    1.7403 C.ar      1 <0>         0.5543
     13 N3          1.9084   -2.7098    1.6788 N.ar      1 <0>        -0.5235
     14 N4          0.6525   -4.6689    1.6658 N.pl3     1 <0>        -0.5657
     15 C11        -0.5766   -3.8848    1.5217 C.3       1 <0>         0.1412
     16 C12        -0.8807   -3.6815    0.0361 C.3       1 <0>         0.0611
     17 O1         -1.1650   -4.9445   -0.5691 O.3       1 <0>        -0.5712
     18 C13         0.5852   -6.1309    1.7310 C.3       1 <0>         0.1388
     19 C14         0.4380   -6.5701    3.1892 C.3       1 <0>         0.0609
     20 O2         -0.8147   -6.1108    3.7009 O.3       1 <0>        -0.5703
     21 N5          5.3102   -4.9876    2.0819 N.pl3     1 <0>        -0.6466
     22 C15         5.8166   -5.3477    3.4132 C.3       1 <0>         0.1569
     23 C16         5.9722   -6.8700    3.4864 C.3       1 <0>        -0.1363
     24 C17         6.8536   -7.3449    2.3290 C.3       1 <0>        -0.1141
     25 C18         6.1855   -6.9910    0.9983 C.3       1 <0>        -0.1368
     26 C19         6.0290   -5.4752    0.8969 C.3       1 <0>         0.1575
     27 N6          5.4322   -2.1458    1.9543 N.ar      1 <0>        -0.5233
     28 C20         5.4623   -0.8277    1.8928 C.ar      1 <0>         0.5543
     29 N7          4.3640   -0.0904    1.7559 N.ar      1 <0>        -0.5392
     30 N8          6.6881   -0.1867    1.9678 N.pl3     1 <0>        -0.5657
     31 C21         7.9171   -0.9709    2.1123 C.3       1 <0>         0.1413
     32 C22         8.4692   -1.3136    0.7271 C.3       1 <0>         0.0611
     33 O3          8.8633   -0.1124    0.0609 O.3       1 <0>        -0.5711
     34 C23         6.7554    1.2753    1.9026 C.3       1 <0>         0.1387
     35 C24         6.6545    1.8540    3.3153 C.3       1 <0>         0.0609
     36 O4          7.7974    1.4565    4.0756 O.3       1 <0>        -0.5703
     37 H1         -0.4844    2.0011    1.2421 H         1 <0>         0.0624
     38 H2          0.3565    3.5696    1.2325 H         1 <0>         0.0610
     39 H3          2.1412    2.6070    2.6767 H         1 <0>         0.0658
     40 H4          0.5425    2.5006    3.4533 H         1 <0>         0.0687
     41 H5          1.8745    0.3686    3.6333 H         1 <0>         0.0616
     42 H6          0.3248    0.1544    2.7790 H         1 <0>         0.0608
     43 H7          2.2266    0.1543   -0.5432 H         1 <0>         0.0616
     44 H8          0.5542    0.0148    0.0576 H         1 <0>         0.0598
     45 H9          0.9016    2.2821   -0.8057 H         1 <0>         0.0686
     46 H10         2.3490    2.4805    0.2121 H         1 <0>         0.0663
     47 H11        -1.4038   -4.4160    1.9926 H         1 <0>         0.0919
     48 H12        -0.4472   -2.9149    2.0021 H         1 <0>         0.0972
     49 H13        -1.7438   -3.0246   -0.0716 H         1 <0>         0.0528
     50 H14        -0.0175   -3.2303   -0.4531 H         1 <0>         0.0456
     51 H15        -1.3673   -4.8916   -1.5132 H         1 <0>         0.3764
     52 H16        -0.2732   -6.4810    1.1577 H         1 <0>         0.0932
     53 H17         1.4983   -6.5556    1.3140 H         1 <0>         0.0953
     54 H18         0.4771   -7.6579    3.2467 H         1 <0>         0.0527
     55 H19         1.2495   -6.1456    3.7802 H         1 <0>         0.0445
     56 H20        -0.9758   -6.3537    4.6229 H         1 <0>         0.3766
     57 H21         6.7842   -4.8733    3.5767 H         1 <0>         0.0609
     58 H22         5.1111   -5.0155    4.1748 H         1 <0>         0.0615
     59 H23         6.4372   -7.1430    4.4336 H         1 <0>         0.0688
     60 H24         4.9913   -7.3398    3.4133 H         1 <0>         0.0658
     61 H25         7.8259   -6.8558    2.3885 H         1 <0>         0.0624
     62 H26         6.9861   -8.4249    2.3929 H         1 <0>         0.0611
     63 H27         6.8025   -7.3503    0.1746 H         1 <0>         0.0691
     64 H28         5.2027   -7.4597    0.9486 H         1 <0>         0.0661
     65 H29         5.4635   -5.2271   -0.0013 H         1 <0>         0.0615
     66 H30         7.0143   -5.0114    0.8506 H         1 <0>         0.0595
     67 H31         8.6559   -0.3900    2.6644 H         1 <0>         0.0919
     68 H32         7.6994   -1.8910    2.6545 H         1 <0>         0.0972
     69 H33         9.3325   -1.9706    0.8325 H         1 <0>         0.0527
     70 H34         7.6986   -1.8169    0.1432 H         1 <0>         0.0456
     71 H35         9.2237   -0.2542   -0.8252 H         1 <0>         0.3764
     72 H36         7.7021    1.5757    1.4536 H         1 <0>         0.0932
     73 H37         5.9306    1.6503    1.2966 H         1 <0>         0.0954
     74 H38         6.6152    2.9419    3.2604 H         1 <0>         0.0528
     75 H39         5.7504    1.4816    3.7968 H         1 <0>         0.0444
     76 H40         7.8004    1.7883    4.9839 H         1 <0>         0.3766
@<TRIPOS>BOND
     1    1    6 1
     2    1    2 1
     3    1   37 1
     4    1   38 1
     5    2    3 1
     6    2   39 1
     7    2   40 1
     8    3    4 1
     9    3   41 1
    10    3   42 1
    11    4    5 1
    12    4    7 1
    13    5    6 1
    14    5   43 1
    15    5   44 1
    16    6   45 1
    17    6   46 1
    18    7   29 ar
    19    7    8 ar
    20    8   13 ar
    21    8    9 ar
    22    9   10 ar
    23    9   27 ar
    24   10   11 ar
    25   10   21 1
    26   11   12 ar
    27   12   13 ar
    28   12   14 1
    29   14   15 1
    30   14   18 1
    31   15   16 1
    32   15   47 1
    33   15   48 1
    34   16   17 1
    35   16   49 1
    36   16   50 1
    37   17   51 1
    38   18   19 1
    39   18   52 1
    40   18   53 1
    41   19   20 1
    42   19   54 1
    43   19   55 1
    44   20   56 1
    45   21   26 1
    46   21   22 1
    47   22   23 1
    48   22   57 1
    49   22   58 1
    50   23   24 1
    51   23   59 1
    52   23   60 1
    53   24   25 1
    54   24   61 1
    55   24   62 1
    56   25   26 1
    57   25   63 1
    58   25   64 1
    59   26   65 1
    60   26   66 1
    61   27   28 ar
    62   28   29 ar
    63   28   30 1
    64   30   31 1
    65   30   34 1
    66   31   32 1
    67   31   67 1
    68   31   68 1
    69   32   33 1
    70   32   69 1
    71   32   70 1
    72   33   71 1
    73   34   35 1
    74   34   72 1
    75   34   73 1
    76   35   36 1
    77   35   74 1
    78   35   75 1
    79   36   76 1
