@<TRIPOS>MOLECULE
ZINC03932831
   67    71     0     0     0
SMALL
USER_CHARGES
N-[2,5-bis(trifluoromethyl)phenyl]-dimethyl-oxo-BLAHcarboxamide
@<TRIPOS>ATOM
      1 C1         -2.2154    1.1874   -1.1039 C.3       1 <0>        -0.1564
      2 C2         -0.7522    1.6221   -1.2100 C.3       1 <0>        -0.0558
      3 C3          0.0192    1.1219   -0.0048 C.3       1 <0>        -0.1059
      4 C4         -0.7096    1.6297    1.2510 C.3       1 <0>        -0.1194
      5 C5         -0.8294    3.1497    1.2473 C.3       1 <0>        -0.0631
      6 H1          0.1718    3.5749    1.3169 H         1 <0>         0.0761
      7 C6         -1.5014    3.6599   -0.0388 C.3       1 <0>        -0.0801
      8 H2         -2.5121    3.2598   -0.1192 H         1 <0>         0.0889
      9 C7         -0.6656    3.1726   -1.2069 C.3       1 <0>        -0.0773
     10 H3          0.3704    3.4968   -1.1080 H         1 <0>         0.0821
     11 C8         -1.2022    3.5152   -2.6012 C.3       1 <0>        -0.1150
     12 C9         -0.5379    2.4397   -3.5034 C.3       1 <0>        -0.1128
     13 C10        -0.2002    1.2427   -2.5799 C.3       1 <0>        -0.1001
     14 H4          0.8791    1.1001   -2.5259 H         1 <0>         0.1002
     15 C11        -0.8672   -0.0116   -3.0827 C.2       1 <0>         0.5314
     16 O1         -1.8272    0.0658   -3.8198 O.2       1 <0>        -0.5016
     17 N1         -0.3970   -1.2194   -2.7131 N.am      1 <0>        -0.6757
     18 C12        -0.9413   -2.3823   -3.2694 C.ar      1 <0>         0.2074
     19 C13        -1.5560   -2.3365   -4.5141 C.ar      1 <0>        -0.0872
     20 C14        -2.0870   -3.4870   -5.0629 C.ar      1 <0>        -0.1279
     21 C15        -2.0179   -4.6816   -4.3693 C.ar      1 <0>        -0.0954
     22 C16        -1.4114   -4.7294   -3.1277 C.ar      1 <0>        -0.0473
     23 C17        -0.8731   -3.5832   -2.5758 C.ar      1 <0>        -0.1949
     24 C18        -0.2122   -3.6362   -1.2225 C.3       1 <0>         0.5093
     25 F1         -0.2673   -4.9435   -0.7275 F         1 <0>        -0.1672
     26 F2          1.1238   -3.2380   -1.3401 F         1 <0>        -0.1752
     27 F3         -0.8795   -2.7763   -0.3436 F         1 <0>        -0.1697
     28 C19        -2.7491   -3.4395   -6.4159 C.3       1 <0>         0.5095
     29 F4         -3.2119   -4.7158   -6.7537 F         1 <0>        -0.1721
     30 F5         -3.8265   -2.5480   -6.3767 F         1 <0>        -0.1683
     31 F6         -1.8234   -3.0106   -7.3731 F         1 <0>        -0.1713
     32 C20        -1.5536    5.1870   -0.0177 C.3       1 <0>        -0.1098
     33 C21        -2.3515    5.6620    1.2008 C.3       1 <0>        -0.1289
     34 C22        -1.6762    5.1472    2.4705 C.3       1 <0>         0.1520
     35 H5         -0.6534    5.5219    2.5102 H         1 <0>         0.0732
     36 C23        -1.6517    3.6173    2.4458 C.3       1 <0>        -0.0468
     37 C24        -1.0490    3.1105    3.7285 C.2       1 <0>        -0.0848
     38 C25        -1.3295    3.7518    4.8659 C.2       1 <0>        -0.1944
     39 C26        -2.2261    4.9215    4.8255 C.2       1 <0>         0.5496
     40 O2         -2.8282    5.2670    5.8241 O.2       1 <0>        -0.5371
     41 N2         -2.3846    5.6062    3.6636 N.am      1 <0>        -0.7276
     42 C27        -3.0820    3.0900    2.3153 C.3       1 <0>        -0.1457
     43 H6         -2.6282    1.5298   -0.1549 H         1 <0>         0.0730
     44 H7         -2.7842    1.6225   -1.9256 H         1 <0>         0.0675
     45 H8         -2.2761    0.1003   -1.1555 H         1 <0>         0.0506
     46 H9          0.0417    0.0321   -0.0051 H         1 <0>         0.0626
     47 H10         1.0362    1.5135   -0.0270 H         1 <0>         0.0714
     48 H11        -1.7083    1.1944    1.2842 H         1 <0>         0.0733
     49 H12        -0.1556    1.3166    2.1359 H         1 <0>         0.0678
     50 H13        -0.8893    4.5158   -2.8996 H         1 <0>         0.0713
     51 H14        -2.2881    3.4251   -2.6293 H         1 <0>         0.0726
     52 H15         0.3738    2.8369   -3.9496 H         1 <0>         0.0730
     53 H16        -1.2311    2.1261   -4.2839 H         1 <0>         0.0868
     54 H17         0.3187   -1.2826   -2.0614 H         1 <0>         0.4154
     55 H18        -1.6148   -1.4030   -5.0539 H         1 <0>         0.1689
     56 H19        -2.4383   -5.5790   -4.7985 H         1 <0>         0.1543
     57 H20        -1.3587   -5.6638   -2.5888 H         1 <0>         0.1567
     58 H21        -0.5398    5.5836    0.0360 H         1 <0>         0.0673
     59 H22        -2.0353    5.5458   -0.9273 H         1 <0>         0.0735
     60 H23        -2.3772    6.7516    1.2177 H         1 <0>         0.0733
     61 H24        -3.3686    5.2741    1.1444 H         1 <0>         0.0769
     62 H25        -0.4021    2.2456    3.7291 H         1 <0>         0.1352
     63 H26        -0.9060    3.4181    5.8017 H         1 <0>         0.1457
     64 H27        -2.9479    6.3949    3.6256 H         1 <0>         0.4048
     65 H28        -3.5237    3.4626    1.3911 H         1 <0>         0.0716
     66 H29        -3.0673    2.0003    2.2975 H         1 <0>         0.0645
     67 H30        -3.6741    3.4316    3.1644 H         1 <0>         0.0571
@<TRIPOS>BOND
     1    1    2 1
     2    1   43 1
     3    1   44 1
     4    1   45 1
     5    2    9 1
     6    2   13 1
     7    2    3 1
     8    3    4 1
     9    3   46 1
    10    3   47 1
    11    4    5 1
    12    4   48 1
    13    4   49 1
    14    5    6 1
    15    5   36 1
    16    5    7 1
    17    7    8 1
    18    7    9 1
    19    7   32 1
    20    9   10 1
    21    9   11 1
    22   11   12 1
    23   11   50 1
    24   11   51 1
    25   12   13 1
    26   12   52 1
    27   12   53 1
    28   13   14 1
    29   13   15 1
    30   15   16 2
    31   15   17 am
    32   17   18 1
    33   17   54 1
    34   18   23 ar
    35   18   19 ar
    36   19   20 ar
    37   19   55 1
    38   20   21 ar
    39   20   28 1
    40   21   22 ar
    41   21   56 1
    42   22   23 ar
    43   22   57 1
    44   23   24 1
    45   24   25 1
    46   24   26 1
    47   24   27 1
    48   28   29 1
    49   28   30 1
    50   28   31 1
    51   32   33 1
    52   32   58 1
    53   32   59 1
    54   33   34 1
    55   33   60 1
    56   33   61 1
    57   34   35 1
    58   34   41 1
    59   34   36 1
    60   36   37 1
    61   36   42 1
    62   37   38 2
    63   37   62 1
    64   38   39 1
    65   38   63 1
    66   39   40 2
    67   39   41 am
    68   41   64 1
    69   42   65 1
    70   42   66 1
    71   42   67 1
@<TRIPOS>MOLECULE
ZINC14880001
   67    71     0     0     0
SMALL
USER_CHARGES
(1S,3aS,3bS,5aR,9aR,9bR,11aS)-N-[2,5-bis(trifluoromethyl)phenyl]-9a,11a-dimethyl-7-oxo-1,2,3,3a,3b,4,5,5a,6,9b,10,11-dodecahydroindeno[5,4-f]quinoline-1-carboxamide
@<TRIPOS>ATOM
      1 C1          2.1898    6.9593   -1.7001 C.3       1 <0>        -0.1515
      2 C2          1.3766    6.5275   -0.4800 C.3       1 <0>        -0.0345
      3 C3          1.7697    5.1342   -0.0367 C.3       1 <0>        -0.1028
      4 C4          0.6925    4.1417   -0.5105 C.3       1 <0>        -0.1175
      5 C5          0.2956    4.4799   -1.9457 C.3       1 <0>        -0.0669
      6 H1          1.2367    4.6952   -2.4663 H         1 <0>         0.0740
      7 C6         -0.5083    5.7648   -1.9849 C.3       1 <0>        -0.0602
      8 H2         -0.2471    6.3267   -2.8802 H         1 <0>         0.0752
      9 C7         -0.1412    6.5807   -0.7498 C.3       1 <0>        -0.0802
     10 H3         -0.6932    6.1960    0.1210 H         1 <0>         0.0825
     11 C8         -0.3959    8.0902   -0.8858 C.3       1 <0>        -0.1153
     12 C9          0.5373    8.7153    0.1844 C.3       1 <0>        -0.1288
     13 C10         1.5312    7.6065    0.6074 C.3       1 <0>        -0.1069
     14 H4          1.2618    7.2015    1.5775 H         1 <0>         0.1148
     15 C11         2.9388    8.1366    0.6134 C.2       1 <0>         0.5291
     16 O1          3.8580    7.4201    0.2776 O.2       1 <0>        -0.4965
     17 N1          3.1786    9.4077    0.9918 N.am      1 <0>        -0.6739
     18 C12         4.4743    9.9295    0.9095 C.ar      1 <0>         0.2071
     19 C13         5.4085    9.3430    0.0654 C.ar      1 <0>        -0.0941
     20 C14         6.6847    9.8639   -0.0179 C.ar      1 <0>        -0.1278
     21 C15         7.0366   10.9611    0.7470 C.ar      1 <0>        -0.0971
     22 C16         6.1106   11.5440    1.5922 C.ar      1 <0>        -0.0464
     23 C17         4.8307   11.0312    1.6758 C.ar      1 <0>        -0.1971
     24 C18         3.8222   11.6666    2.5980 C.3       1 <0>         0.5090
     25 F1          4.4115   12.7506    3.2575 F         1 <0>        -0.1668
     26 F2          2.7259   12.1139    1.8530 F         1 <0>        -0.1751
     27 F3          3.3933   10.7250    3.5396 F         1 <0>        -0.1707
     28 C19         7.6972    9.2317   -0.9378 C.3       1 <0>         0.5096
     29 F4          8.9088    9.9249   -0.8446 F         1 <0>        -0.1723
     30 F5          7.8939    7.8969   -0.5678 F         1 <0>        -0.1684
     31 F6          7.2288    9.2864   -2.2549 F         1 <0>        -0.1714
     32 C20        -2.0165    5.5669   -1.9654 C.3       1 <0>        -0.1096
     33 C21        -2.5013    4.4320   -2.8528 C.3       1 <0>        -0.1234
     34 C22        -1.7746    3.1491   -2.4682 C.3       1 <0>         0.1550
     35 H5         -1.9462    2.9554   -1.4018 H         1 <0>         0.0729
     36 C23        -0.2797    3.3114   -2.6951 C.3       1 <0>        -0.0390
     37 C24         0.4138    2.0149   -2.3562 C.2       1 <0>        -0.0801
     38 C25        -0.1985    0.8635   -2.6450 C.2       1 <0>        -0.1994
     39 C26        -1.5135    0.8896   -3.3115 C.2       1 <0>         0.5509
     40 O2         -1.9084   -0.0788   -3.9302 O.2       1 <0>        -0.5380
     41 N2         -2.2755    2.0038   -3.2278 N.am      1 <0>        -0.7256
     42 C27        -0.0365    3.5616   -4.1888 C.3       1 <0>        -0.1462
     43 H6          2.1135    8.0395   -1.8238 H         1 <0>         0.0484
     44 H7          3.2344    6.6829   -1.5567 H         1 <0>         0.0769
     45 H8          1.8015    6.4633   -2.5896 H         1 <0>         0.0619
     46 H9          2.7330    4.8622   -0.4713 H         1 <0>         0.0729
     47 H10         1.8426    5.0977    1.0525 H         1 <0>         0.0645
     48 H11        -0.1826    4.2189    0.1377 H         1 <0>         0.0642
     49 H12         1.0880    3.1297   -0.4567 H         1 <0>         0.0693
     50 H13        -0.1434    8.4474   -1.8813 H         1 <0>         0.0723
     51 H14        -1.4394    8.3212   -0.6569 H         1 <0>         0.0706
     52 H15         1.0806    9.5592   -0.2423 H         1 <0>         0.0687
     53 H16        -0.0458    9.0422    1.0441 H         1 <0>         0.0779
     54 H17         2.4531    9.9608    1.3212 H         1 <0>         0.4159
     55 H18         5.1358    8.4830   -0.5284 H         1 <0>         0.1766
     56 H19         8.0367   11.3637    0.6837 H         1 <0>         0.1539
     57 H20         6.3883   12.4009    2.1880 H         1 <0>         0.1566
     58 H21        -2.3229    5.3645   -0.9353 H         1 <0>         0.0643
     59 H22        -2.4916    6.4966   -2.2854 H         1 <0>         0.0697
     60 H23        -2.3539    4.6768   -3.8994 H         1 <0>         0.0768
     61 H24        -3.5783    4.2893   -2.6855 H         1 <0>         0.0710
     62 H25         1.3851    2.0162   -1.8855 H         1 <0>         0.1357
     63 H26         0.2669   -0.0795   -2.3938 H         1 <0>         0.1453
     64 H27        -3.1398    2.0425   -3.6630 H         1 <0>         0.4041
     65 H28        -0.5591    4.4677   -4.4952 H         1 <0>         0.0668
     66 H29         1.0321    3.6802   -4.3680 H         1 <0>         0.0622
     67 H30        -0.4096    2.7146   -4.7646 H         1 <0>         0.0569
@<TRIPOS>BOND
     1    1    2 1
     2    1   43 1
     3    1   44 1
     4    1   45 1
     5    2    9 1
     6    2   13 1
     7    2    3 1
     8    3    4 1
     9    3   46 1
    10    3   47 1
    11    4    5 1
    12    4   48 1
    13    4   49 1
    14    5    6 1
    15    5   36 1
    16    5    7 1
    17    7    8 1
    18    7    9 1
    19    7   32 1
    20    9   10 1
    21    9   11 1
    22   11   12 1
    23   11   50 1
    24   11   51 1
    25   12   13 1
    26   12   52 1
    27   12   53 1
    28   13   14 1
    29   13   15 1
    30   15   16 2
    31   15   17 am
    32   17   18 1
    33   17   54 1
    34   18   23 ar
    35   18   19 ar
    36   19   20 ar
    37   19   55 1
    38   20   21 ar
    39   20   28 1
    40   21   22 ar
    41   21   56 1
    42   22   23 ar
    43   22   57 1
    44   23   24 1
    45   24   25 1
    46   24   26 1
    47   24   27 1
    48   28   29 1
    49   28   30 1
    50   28   31 1
    51   32   33 1
    52   32   58 1
    53   32   59 1
    54   33   34 1
    55   33   60 1
    56   33   61 1
    57   34   35 1
    58   34   41 1
    59   34   36 1
    60   36   37 1
    61   36   42 1
    62   37   38 2
    63   37   62 1
    64   38   39 1
    65   38   63 1
    66   39   40 2
    67   39   41 am
    68   41   64 1
    69   42   65 1
    70   42   66 1
    71   42   67 1
@<TRIPOS>MOLECULE
ZINC34026963
   67    71     0     0     0
SMALL
USER_CHARGES
(1S,3aS,3bR,5aR,9aR,9bR,11aS)-N-[2,5-bis(trifluoromethyl)phenyl]-9a,11a-dimethyl-7-oxo-1,2,3,3a,3b,4,5,5a,6,9b,10,11-dodecahydroindeno[5,4-f]quinoline-1-carboxamide
@<TRIPOS>ATOM
      1 C1         -4.4501   -0.0643   -1.0268 C.3       1 <0>        -0.1659
      2 C2         -4.8736    1.1225   -0.1602 C.3       1 <0>        -0.0164
      3 C3         -5.1725    0.6844    1.2499 C.3       1 <0>        -0.1023
      4 C4         -6.6548    0.3173    1.4175 C.3       1 <0>        -0.1146
      5 C5         -7.2722   -0.0882    0.0893 C.3       1 <0>        -0.0683
      6 H1         -6.6334   -0.8921   -0.3053 H         1 <0>         0.0890
      7 C6         -7.3127    1.1170   -0.8566 C.3       1 <0>        -0.0810
      8 H2         -8.0789    1.8453   -0.5525 H         1 <0>         0.0667
      9 C7         -6.0493    1.9112   -0.7697 C.3       1 <0>        -0.0849
     10 H3         -6.4502    2.7347   -0.1605 H         1 <0>         0.0756
     11 C8         -5.4418    2.4262   -2.0822 C.3       1 <0>        -0.1135
     12 C9         -3.9980    2.8217   -1.6654 C.3       1 <0>        -0.1230
     13 C10        -3.7491    2.1765   -0.2785 C.3       1 <0>        -0.1031
     14 H4         -3.7269    2.9042    0.5461 H         1 <0>         0.1127
     15 C11        -2.4088    1.4980   -0.2421 C.2       1 <0>         0.5241
     16 O1         -2.2799    0.4404    0.3375 O.2       1 <0>        -0.5029
     17 N1         -1.3498    2.0647   -0.8535 N.am      1 <0>        -0.6885
     18 C12        -0.1187    1.4001   -0.8796 C.ar      1 <0>         0.2112
     19 C13         0.1828    0.4554    0.0929 C.ar      1 <0>        -0.0978
     20 C14         1.3963   -0.2029    0.0611 C.ar      1 <0>        -0.1287
     21 C15         2.3110    0.0777   -0.9376 C.ar      1 <0>        -0.0967
     22 C16         2.0140    1.0179   -1.9068 C.ar      1 <0>        -0.0480
     23 C17         0.8017    1.6796   -1.8809 C.ar      1 <0>        -0.1977
     24 C18         0.4787    2.7039   -2.9379 C.3       1 <0>         0.5102
     25 F1          1.5522    2.8092   -3.8289 F         1 <0>        -0.1675
     26 F2         -0.6685    2.3093   -3.6346 F         1 <0>        -0.1704
     27 F3          0.2525    3.9443   -2.3317 F         1 <0>        -0.1753
     28 C19         1.7241   -1.2285    1.1155 C.3       1 <0>         0.5095
     29 F4          1.2939   -2.4896    0.6891 F         1 <0>        -0.1702
     30 F5          3.1068   -1.2544    1.3270 F         1 <0>        -0.1725
     31 F6          1.0759   -0.8937    2.3092 F         1 <0>        -0.1710
     32 C20        -7.6930    0.6501   -2.2560 C.3       1 <0>        -0.1090
     33 C21        -9.0876    0.0044   -2.1866 C.3       1 <0>        -0.1266
     34 C22        -9.6125    0.0621   -0.7612 C.3       1 <0>         0.1519
     35 H5         -9.7068    1.1281   -0.5067 H         1 <0>         0.0706
     36 C23        -8.6802   -0.6530    0.2204 C.3       1 <0>        -0.0436
     37 C24        -9.2420   -0.4988    1.6073 C.2       1 <0>        -0.0821
     38 C25       -10.5678   -0.5481    1.7709 C.2       1 <0>        -0.2059
     39 C26       -11.4537   -0.6934    0.6030 C.2       1 <0>         0.5532
     40 O2        -12.6355   -0.9375    0.7533 O.2       1 <0>        -0.5410
     41 N2        -10.9493   -0.5258   -0.6422 N.am      1 <0>        -0.7418
     42 C27        -8.6363   -2.1488   -0.1210 C.3       1 <0>        -0.1395
     43 H6         -3.6113   -0.5887   -0.5458 H         1 <0>         0.0866
     44 H7         -4.1366    0.2981   -2.0170 H         1 <0>         0.0520
     45 H8         -5.2978   -0.7559   -1.1410 H         1 <0>         0.0632
     46 H9         -4.5633   -0.1977    1.4967 H         1 <0>         0.0748
     47 H10        -4.9334    1.5016    1.9463 H         1 <0>         0.0627
     48 H11        -6.7469   -0.5245    2.1196 H         1 <0>         0.0677
     49 H12        -7.2052    1.1847    1.8108 H         1 <0>         0.0619
     50 H13        -5.4605    1.6239   -2.8345 H         1 <0>         0.0761
     51 H14        -6.0274    3.2835   -2.4458 H         1 <0>         0.0705
     52 H15        -3.2840    2.4407   -2.4104 H         1 <0>         0.0724
     53 H16        -3.9197    3.9175   -1.6093 H         1 <0>         0.0778
     54 H17        -1.4532    3.0497   -1.3320 H         1 <0>         0.4392
     55 H18        -0.5309    0.2361    0.8732 H         1 <0>         0.1801
     56 H19         3.2593   -0.4385   -0.9603 H         1 <0>         0.1503
     57 H20         2.7305    1.2351   -2.6852 H         1 <0>         0.1553
     58 H21        -7.7100    1.5127   -2.9383 H         1 <0>         0.0709
     59 H22        -6.9545   -0.0838   -2.6110 H         1 <0>         0.0698
     60 H23        -9.7767    0.5479   -2.8498 H         1 <0>         0.0736
     61 H24        -9.0218   -1.0457   -2.5073 H         1 <0>         0.0733
     62 H25        -8.5857   -0.3480    2.4771 H         1 <0>         0.1402
     63 H26       -11.0004   -0.4801    2.7800 H         1 <0>         0.1445
     64 H27       -11.5060   -0.8137   -1.5462 H         1 <0>         0.4254
     65 H28        -9.6464   -2.5751   -0.0316 H         1 <0>         0.0580
     66 H29        -7.9580   -2.6640    0.5751 H         1 <0>         0.0626
     67 H30        -8.2730   -2.2793   -1.1511 H         1 <0>         0.0657
@<TRIPOS>BOND
     1    1    2 1
     2    1   43 1
     3    1   44 1
     4    1   45 1
     5    2    9 1
     6    2   13 1
     7    2    3 1
     8    3    4 1
     9    3   46 1
    10    3   47 1
    11    4    5 1
    12    4   48 1
    13    4   49 1
    14    5    6 1
    15    5   36 1
    16    5    7 1
    17    7    8 1
    18    7    9 1
    19    7   32 1
    20    9   10 1
    21    9   11 1
    22   11   12 1
    23   11   50 1
    24   11   51 1
    25   12   13 1
    26   12   52 1
    27   12   53 1
    28   13   14 1
    29   13   15 1
    30   15   16 2
    31   15   17 am
    32   17   18 1
    33   17   54 1
    34   18   23 ar
    35   18   19 ar
    36   19   20 ar
    37   19   55 1
    38   20   21 ar
    39   20   28 1
    40   21   22 ar
    41   21   56 1
    42   22   23 ar
    43   22   57 1
    44   23   24 1
    45   24   25 1
    46   24   26 1
    47   24   27 1
    48   28   29 1
    49   28   30 1
    50   28   31 1
    51   32   33 1
    52   32   58 1
    53   32   59 1
    54   33   34 1
    55   33   60 1
    56   33   61 1
    57   34   35 1
    58   34   41 1
    59   34   36 1
    60   36   37 1
    61   36   42 1
    62   37   38 2
    63   37   62 1
    64   38   39 1
    65   38   63 1
    66   39   40 2
    67   39   41 am
    68   41   64 1
    69   42   65 1
    70   42   66 1
    71   42   67 1
@<TRIPOS>MOLECULE
ZINC34026964
   67    71     0     0     0
SMALL
USER_CHARGES
(1S,3aS,3bR,5aR,9aR,9bS,11aS)-N-[2,5-bis(trifluoromethyl)phenyl]-9a,11a-dimethyl-7-oxo-1,2,3,3a,3b,4,5,5a,6,9b,10,11-dodecahydroindeno[5,4-f]quinoline-1-carboxamide
@<TRIPOS>ATOM
      1 C1          1.8726    1.2059    5.8332 C.3       1 <0>        -0.1667
      2 C2          2.5140    0.5769    4.5988 C.3       1 <0>        -0.0194
      3 C3          2.1841    1.3731    3.3582 C.3       1 <0>        -0.1050
      4 C4          0.6743    1.2368    3.0777 C.3       1 <0>        -0.1107
      5 C5          0.3007   -0.2177    2.8456 C.3       1 <0>        -0.0607
      6 H1          0.8853   -0.5249    1.9659 H         1 <0>         0.0708
      7 C6          0.6674   -1.0934    4.0553 C.3       1 <0>        -0.0760
      8 H2          0.5886   -2.1703    3.8454 H         1 <0>         0.0678
      9 C7          2.1106   -0.8955    4.3869 C.3       1 <0>        -0.0897
     10 H3          2.4843   -1.3845    3.4752 H         1 <0>         0.0749
     11 C8          2.6845   -1.5603    5.6433 C.3       1 <0>        -0.1130
     12 C9          4.0760   -0.8746    5.7723 C.3       1 <0>        -0.1236
     13 C10         4.0154    0.4087    4.9031 C.3       1 <0>        -0.1007
     14 H4          4.6459    0.3608    4.0030 H         1 <0>         0.1139
     15 C11         4.5172    1.5951    5.6788 C.2       1 <0>         0.5262
     16 O1          4.0779    2.7015    5.4463 O.2       1 <0>        -0.5063
     17 N1          5.4549    1.4291    6.6325 N.am      1 <0>        -0.6911
     18 C12         5.8493    2.5146    7.4224 C.ar      1 <0>         0.2100
     19 C13         5.7717    3.8066    6.9185 C.ar      1 <0>        -0.0914
     20 C14         6.1617    4.8758    7.7006 C.ar      1 <0>        -0.1297
     21 C15         6.6292    4.6612    8.9845 C.ar      1 <0>        -0.0947
     22 C16         6.7081    3.3763    9.4888 C.ar      1 <0>        -0.0491
     23 C17         6.3137    2.3030    8.7138 C.ar      1 <0>        -0.1951
     24 C18         6.3933    0.9034    9.2669 C.3       1 <0>         0.5105
     25 F1          6.8873    0.9464   10.5751 F         1 <0>        -0.1676
     26 F2          5.1175    0.3295    9.2687 F         1 <0>        -0.1697
     27 F3          7.2491    0.1352    8.4702 F         1 <0>        -0.1756
     28 C19         6.0773    6.2779    7.1549 C.3       1 <0>         0.5096
     29 F4          4.8220    6.8193    7.4521 F         1 <0>        -0.1700
     30 F5          7.0750    7.0662    7.7382 F         1 <0>        -0.1723
     31 F6          6.2565    6.2500    5.7677 F         1 <0>        -0.1713
     32 C20        -0.3123   -0.8435    5.1914 C.3       1 <0>        -0.1189
     33 C21        -1.6974   -1.3655    4.7804 C.3       1 <0>        -0.1259
     34 C22        -1.7331   -1.6053    3.2765 C.3       1 <0>         0.1559
     35 H5         -1.1363   -2.5022    3.0541 H         1 <0>         0.0699
     36 C23        -1.1705   -0.4124    2.5037 C.3       1 <0>        -0.0397
     37 C24        -1.3094   -0.6885    1.0227 C.2       1 <0>        -0.0864
     38 C25        -2.3719   -1.3483    0.5681 C.2       1 <0>        -0.2016
     39 C26        -3.3835   -1.8525    1.5130 C.2       1 <0>         0.5515
     40 O2         -4.4631   -2.2393    1.1078 O.2       1 <0>        -0.5430
     41 N2         -3.1017   -1.8803    2.8325 N.am      1 <0>        -0.7383
     42 C27        -1.9883    0.8380    2.8294 C.3       1 <0>        -0.1398
     43 H6          2.2012    2.2517    5.9245 H         1 <0>         0.0796
     44 H7          2.1769    0.6463    6.7300 H         1 <0>         0.0528
     45 H8          0.7775    1.1729    5.7345 H         1 <0>         0.0694
     46 H9          2.4420    2.4299    3.5214 H         1 <0>         0.0783
     47 H10         2.7612    0.9820    2.5073 H         1 <0>         0.0621
     48 H11         0.1056    1.6170    3.9391 H         1 <0>         0.0698
     49 H12         0.4140    1.8183    2.1810 H         1 <0>         0.0670
     50 H13         2.0247   -1.3569    6.4996 H         1 <0>         0.0752
     51 H14         2.7543   -2.6465    5.4841 H         1 <0>         0.0708
     52 H15         4.2663   -0.6269    6.8270 H         1 <0>         0.0712
     53 H16         4.8571   -1.5590    5.4097 H         1 <0>         0.0794
     54 H17         5.9102    0.4402    6.7899 H         1 <0>         0.4396
     55 H18         5.4070    3.9748    5.9160 H         1 <0>         0.1749
     56 H19         6.9336    5.4990    9.5942 H         1 <0>         0.1507
     57 H20         7.0740    3.2119   10.4916 H         1 <0>         0.1555
     58 H21         0.0304   -1.3710    6.0938 H         1 <0>         0.0703
     59 H22        -0.3683    0.2357    5.3966 H         1 <0>         0.0770
     60 H23        -1.9034   -2.3105    5.3044 H         1 <0>         0.0727
     61 H24        -2.4635   -0.6231    5.0486 H         1 <0>         0.0741
     62 H25        -0.5341   -0.3449    0.3221 H         1 <0>         0.1327
     63 H26        -2.4941   -1.5167   -0.5121 H         1 <0>         0.1452
     64 H27        -3.8848   -2.1059    3.5714 H         1 <0>         0.4250
     65 H28        -3.0432    0.6637    2.5711 H         1 <0>         0.0565
     66 H29        -1.6042    1.6891    2.2479 H         1 <0>         0.0654
     67 H30        -1.9057    1.0606    3.9035 H         1 <0>         0.0672
@<TRIPOS>BOND
     1    1    2 1
     2    1   43 1
     3    1   44 1
     4    1   45 1
     5    2    9 1
     6    2   13 1
     7    2    3 1
     8    3    4 1
     9    3   46 1
    10    3   47 1
    11    4    5 1
    12    4   48 1
    13    4   49 1
    14    5    6 1
    15    5   36 1
    16    5    7 1
    17    7    8 1
    18    7    9 1
    19    7   32 1
    20    9   10 1
    21    9   11 1
    22   11   12 1
    23   11   50 1
    24   11   51 1
    25   12   13 1
    26   12   52 1
    27   12   53 1
    28   13   14 1
    29   13   15 1
    30   15   16 2
    31   15   17 am
    32   17   18 1
    33   17   54 1
    34   18   23 ar
    35   18   19 ar
    36   19   20 ar
    37   19   55 1
    38   20   21 ar
    39   20   28 1
    40   21   22 ar
    41   21   56 1
    42   22   23 ar
    43   22   57 1
    44   23   24 1
    45   24   25 1
    46   24   26 1
    47   24   27 1
    48   28   29 1
    49   28   30 1
    50   28   31 1
    51   32   33 1
    52   32   58 1
    53   32   59 1
    54   33   34 1
    55   33   60 1
    56   33   61 1
    57   34   35 1
    58   34   41 1
    59   34   36 1
    60   36   37 1
    61   36   42 1
    62   37   38 2
    63   37   62 1
    64   38   39 1
    65   38   63 1
    66   39   40 2
    67   39   41 am
    68   41   64 1
    69   42   65 1
    70   42   66 1
    71   42   67 1
@<TRIPOS>MOLECULE
ZINC03796232
   65    68     0     0     0
SMALL
USER_CHARGES
10,13-dimethyl-17-(tert-butylcarbamoyl)-2,7,8,9,11,12,14,15,16,17-decahydro-1H-cyclopenta[a]phenanthrene-3-carboxylic acid
@<TRIPOS>ATOM
      1 C1          2.2633   -0.6643    1.6689 C.3       1 <0>        -0.1505
      2 C2          1.7000   -0.4742    0.2591 C.3       1 <0>        -0.0495
      3 C3          1.8910   -1.7447   -0.5492 C.3       1 <0>        -0.1022
      4 C4          3.3867   -2.0873   -0.4975 C.3       1 <0>        -0.1226
      5 C5          4.2674   -0.9510   -1.0103 C.3       1 <0>        -0.0644
      6 H1          4.1197   -0.8343   -2.0840 H         1 <0>         0.0691
      7 C6          3.9562    0.3805   -0.3020 C.3       1 <0>        -0.0739
      8 H2          4.2152    0.3203    0.7550 H         1 <0>         0.0858
      9 C7          2.4723    0.6560   -0.4710 C.3       1 <0>        -0.0784
     10 H3          2.2019    0.6790   -1.5267 H         1 <0>         0.0758
     11 C8          1.9432    1.9063    0.2403 C.3       1 <0>        -0.1144
     12 C9          0.4256    1.6091    0.3827 C.3       1 <0>        -0.1095
     13 C10         0.2760    0.0681    0.3373 C.3       1 <0>        -0.1022
     14 H4         -0.2920   -0.2303   -0.5439 H         1 <0>         0.0866
     15 C11        -0.4034   -0.4275    1.5878 C.2       1 <0>         0.5309
     16 O1         -0.2923    0.1921    2.6245 O.2       1 <0>        -0.5327
     17 N1         -1.1345   -1.5592    1.5541 N.am      1 <0>        -0.7268
     18 C12        -1.7950   -2.0410    2.7698 C.3       1 <0>         0.1687
     19 C13        -2.7779   -0.9808    3.2706 C.3       1 <0>        -0.1629
     20 C14        -2.5530   -3.3335    2.4603 C.3       1 <0>        -0.1559
     21 C15        -0.7439   -2.3119    3.8481 C.3       1 <0>        -0.1641
     22 C16         4.7511    1.4982   -0.9863 C.3       1 <0>        -0.0740
     23 C17         6.1883    1.1067   -1.1433 C.2       1 <0>        -0.1747
     24 C18         6.6292   -0.1355   -1.0445 C.2       1 <0>        -0.0558
     25 C19         5.7343   -1.3023   -0.7455 C.3       1 <0>        -0.0145
     26 C20         6.1175   -2.5265   -1.5635 C.3       1 <0>        -0.1030
     27 C21         7.1513   -2.2158   -2.6352 C.3       1 <0>        -0.0777
     28 C22         8.3354   -1.4860   -2.0499 C.2       1 <0>        -0.1199
     29 C23         8.0684   -0.4106   -1.2364 C.2       1 <0>        -0.1252
     30 C24         9.6659   -1.8960   -2.3184 C.2       1 <0>         0.4800
     31 O2         10.5999   -1.2872   -1.8318 O.co2     1 <0>        -0.6391
     32 C25         5.8737   -1.6500    0.7380 C.3       1 <0>        -0.1425
     33 H5          1.7094   -1.4530    2.1782 H         1 <0>         0.0485
     34 H6          3.3154   -0.9421    1.6054 H         1 <0>         0.0703
     35 H7          2.1663    0.2666    2.2275 H         1 <0>         0.0646
     36 H8          1.3020   -2.5532   -0.1163 H         1 <0>         0.0600
     37 H9          1.5902   -1.5765   -1.5833 H         1 <0>         0.0637
     38 H10         3.5676   -2.9758   -1.1026 H         1 <0>         0.0643
     39 H11         3.6546   -2.3035    0.5367 H         1 <0>         0.0730
     40 H12         2.1066    2.7951   -0.3693 H         1 <0>         0.0663
     41 H13         2.4079    2.0185    1.2199 H         1 <0>         0.0704
     42 H14        -0.1235    2.0627   -0.4424 H         1 <0>         0.0643
     43 H15         0.0568    1.9929    1.3339 H         1 <0>         0.0800
     44 H16        -1.2234   -2.0547    0.7250 H         1 <0>         0.3975
     45 H17        -3.5267   -0.7878    2.5024 H         1 <0>         0.0517
     46 H18        -3.2693   -1.3393    4.1751 H         1 <0>         0.0603
     47 H19        -2.2379   -0.0600    3.4910 H         1 <0>         0.0785
     48 H20        -1.8528   -4.0888    2.1036 H         1 <0>         0.0620
     49 H21        -3.0444   -3.6920    3.3648 H         1 <0>         0.0717
     50 H22        -3.3018   -3.1405    1.6921 H         1 <0>         0.0606
     51 H23        -0.2039   -1.3911    4.0686 H         1 <0>         0.0795
     52 H24        -1.2354   -2.6704    4.7526 H         1 <0>         0.0598
     53 H25        -0.0437   -3.0672    3.4914 H         1 <0>         0.0537
     54 H26         4.3227    1.6932   -1.9694 H         1 <0>         0.0669
     55 H27         4.6902    2.4035   -0.3823 H         1 <0>         0.0664
     56 H28         6.9072    1.8858   -1.3500 H         1 <0>         0.1024
     57 H29         6.5222   -3.2850   -0.8934 H         1 <0>         0.0614
     58 H30         5.2229   -2.9230   -2.0438 H         1 <0>         0.0636
     59 H31         7.4922   -3.1485   -3.0847 H         1 <0>         0.0828
     60 H32         6.6931   -1.5950   -3.4051 H         1 <0>         0.0590
     61 H33         8.8414    0.1940   -0.7853 H         1 <0>         0.1296
     62 H34         5.4772   -0.8334    1.3414 H         1 <0>         0.0547
     63 H35         5.3171   -2.5626    0.9511 H         1 <0>         0.0579
     64 H36         6.9260   -1.8017    0.9783 H         1 <0>         0.0576
     65 O3          9.8961   -2.9615   -3.1136 O.co2     1 <0>        -0.7636
@<TRIPOS>BOND
     1    1    2 1
     2    1   33 1
     3    1   34 1
     4    1   35 1
     5    2    9 1
     6    2   13 1
     7    2    3 1
     8    3    4 1
     9    3   36 1
    10    3   37 1
    11    4    5 1
    12    4   38 1
    13    4   39 1
    14    5    6 1
    15    5   25 1
    16    5    7 1
    17    7    8 1
    18    7    9 1
    19    7   22 1
    20    9   10 1
    21    9   11 1
    22   11   12 1
    23   11   40 1
    24   11   41 1
    25   12   13 1
    26   12   42 1
    27   12   43 1
    28   13   14 1
    29   13   15 1
    30   15   16 2
    31   15   17 am
    32   17   18 1
    33   17   44 1
    34   18   19 1
    35   18   20 1
    36   18   21 1
    37   19   45 1
    38   19   46 1
    39   19   47 1
    40   20   48 1
    41   20   49 1
    42   20   50 1
    43   21   51 1
    44   21   52 1
    45   21   53 1
    46   22   23 1
    47   22   54 1
    48   22   55 1
    49   23   24 2
    50   23   56 1
    51   24   29 1
    52   24   25 1
    53   25   26 1
    54   25   32 1
    55   26   27 1
    56   26   57 1
    57   26   58 1
    58   27   28 1
    59   27   59 1
    60   27   60 1
    61   28   29 2
    62   28   30 1
    63   29   61 1
    64   30   31 2
    65   30   65 1
    66   32   62 1
    67   32   63 1
    68   32   64 1
@<TRIPOS>MOLECULE
ZINC00066629
   32    34     0     0     0
SMALL
USER_CHARGES

@<TRIPOS>ATOM
      1 C1         -0.0167    1.3781    0.0096 C.ar      1 <0>        -0.1145
      2 C2          1.1709    2.0855    0.0021 C.ar      1 <0>        -0.1246
      3 C3          2.3773    1.4107   -0.0130 C.ar      1 <0>        -0.0962
      4 C4          2.3960    0.0285   -0.0201 C.ar      1 <0>        -0.0904
      5 C5          1.2084   -0.6789   -0.0117 C.ar      1 <0>        -0.0961
      6 C6          0.0021   -0.0041    0.0020 C.ar      1 <0>        -0.1246
      7 C7          3.7112   -0.7071   -0.0376 C.3       1 <0>         0.1031
      8 O1          4.1410   -0.9464    1.3041 O.3       1 <0>        -0.3133
      9 C8          5.3193   -1.6054    1.4666 C.ar      1 <0>         0.0865
     10 C9          6.0485   -2.0076    0.3486 C.ar      1 <0>        -0.1919
     11 C10         7.2426   -2.6753    0.4940 C.ar      1 <0>        -0.0879
     12 C11         7.7336   -2.9559    1.7664 C.ar      1 <0>         0.0536
     13 C12         7.0011   -2.5519    2.8997 C.ar      1 <0>        -0.0664
     14 C13         5.7888   -1.8669    2.7356 C.ar      1 <0>        -0.1114
     15 C14         7.7339   -2.9669    4.0363 C.2       1 <0>        -0.1915
     16 C15         8.8596   -3.5941    3.5976 C.2       1 <0>         0.0594
     17 N1          8.8682   -3.5923    2.2151 N.pl3     1 <0>        -0.5668
     18 H1          9.5599   -3.9763    1.6539 H         1 <0>         0.4183
     19 C16         9.8967   -4.1775    4.4538 C.2       1 <0>         0.5410
     20 O2         10.8720   -4.7204    3.9507 O.co2     1 <0>        -0.6862
     21 O3          9.7876   -4.1219    5.6720 O.co2     1 <0>        -0.6645
     22 H2         -0.9591    1.9053    0.0259 H         1 <0>         0.1219
     23 H3          1.1563    3.1654    0.0076 H         1 <0>         0.1235
     24 H4          3.3051    1.9634   -0.0196 H         1 <0>         0.1245
     25 H5          1.2231   -1.7588   -0.0176 H         1 <0>         0.1245
     26 H6         -0.9258   -0.5567    0.0082 H         1 <0>         0.1235
     27 H7          3.5884   -1.6586   -0.5549 H         1 <0>         0.0671
     28 H8          4.4573   -0.1052   -0.5563 H         1 <0>         0.0671
     29 H9          5.6724   -1.7934   -0.6408 H         1 <0>         0.1233
     30 H10         7.7992   -2.9823   -0.3791 H         1 <0>         0.1181
     31 H11         5.2234   -1.5498    3.5995 H         1 <0>         0.1255
     32 H12         7.4509   -2.8137    5.0673 H         1 <0>         0.1455
@<TRIPOS>BOND
     1    1    6 ar
     2    1    2 ar
     3    1   22 1
     4    2    3 ar
     5    2   23 1
     6    3    4 ar
     7    3   24 1
     8    4    5 ar
     9    4    7 1
    10    5    6 ar
    11    5   25 1
    12    6   26 1
    13    7    8 1
    14    7   27 1
    15    7   28 1
    16    8    9 1
    17    9   14 ar
    18    9   10 ar
    19   10   11 ar
    20   10   29 1
    21   11   12 ar
    22   11   30 1
    23   12   17 1
    24   12   13 ar
    25   13   14 ar
    26   13   15 1
    27   14   31 1
    28   15   16 2
    29   15   32 1
    30   16   17 1
    31   16   19 1
    32   17   18 1
    33   19   20 2
    34   19   21 1
@<TRIPOS>MOLECULE
ZINC04428526
   47    50     0     0     0
SMALL
USER_CHARGES

@<TRIPOS>ATOM
      1 C1         -0.0106    1.5258    0.0155 C.3       1 <0>        -0.1567
      2 C2          0.0110   -0.0040    0.0076 C.3       1 <0>        -0.0290
      3 C3         -1.4250   -0.4604   -0.0781 C.3       1 <0>        -0.1111
      4 C4         -1.6446   -1.8142    0.5964 C.3       1 <0>        -0.1665
      5 C5         -1.1481   -1.7001    2.0253 C.2       1 <0>         0.3875
      6 O1         -1.8382   -2.0163    2.9718 O.2       1 <0>        -0.4568
      7 C6          0.2175   -1.1849    2.1965 C.2       1 <0>        -0.2396
      8 C7          0.7486   -0.4312    1.2382 C.2       1 <0>        -0.0225
      9 C8          2.1954    0.0123    1.3750 C.3       1 <0>        -0.0967
     10 C9          2.9338   -0.4089    0.0994 C.3       1 <0>        -0.1116
     11 C10         2.2226    0.1624   -1.1275 C.3       1 <0>        -0.0802
     12 H1          2.1659    1.2479   -1.0461 H         1 <0>         0.0912
     13 C11         0.8044   -0.4235   -1.2309 C.3       1 <0>        -0.0655
     14 H2          0.8667   -1.5112   -1.2661 H         1 <0>         0.0738
     15 C12         0.0859    0.0631   -2.4856 C.3       1 <0>        -0.1242
     16 C13         0.9081   -0.2173   -3.7538 C.3       1 <0>        -0.0970
     17 C14         2.2510    0.4637   -3.5781 C.3       1 <0>        -0.1248
     18 C15         2.9785   -0.2164   -2.3885 C.3       1 <0>        -0.0789
     19 H3          2.9826   -1.2983   -2.5207 H         1 <0>         0.0828
     20 C16         4.3916    0.3672   -2.5146 C.3       1 <0>        -0.1117
     21 C17         4.6247    0.3562   -4.0501 C.3       1 <0>        -0.1814
     22 C18         3.2307    0.3329   -4.7066 C.2       1 <0>         0.3781
     23 O2          2.9768    0.2561   -5.8847 O.2       1 <0>        -0.4368
     24 C19         2.0394    1.9427   -3.2485 C.3       1 <0>        -0.1447
     25 H4          1.0118    1.9036    0.0052 H         1 <0>         0.0675
     26 H5         -0.5401    1.8863   -0.8664 H         1 <0>         0.0679
     27 H6         -0.5188    1.8773    0.9134 H         1 <0>         0.0574
     28 H7         -2.0610    0.2819    0.4040 H         1 <0>         0.0715
     29 H8         -1.7089   -0.5384   -1.1276 H         1 <0>         0.0892
     30 H9         -2.7061   -2.0616    0.5923 H         1 <0>         0.0919
     31 H10        -1.0822   -2.5853    0.0699 H         1 <0>         0.0984
     32 H11         0.7861   -1.4256    3.0826 H         1 <0>         0.1357
     33 H12         2.2408    1.0955    1.4878 H         1 <0>         0.0831
     34 H13         2.6493   -0.4695    2.2410 H         1 <0>         0.0784
     35 H14         3.9565   -0.0333    0.1325 H         1 <0>         0.0733
     36 H15         2.9512   -1.4968    0.0338 H         1 <0>         0.0668
     37 H16        -0.8751   -0.4453   -2.5651 H         1 <0>         0.0715
     38 H17        -0.0865    1.1362   -2.4034 H         1 <0>         0.0756
     39 H18         1.0496   -1.2913   -3.8744 H         1 <0>         0.0671
     40 H19         0.3964    0.1907   -4.6255 H         1 <0>         0.0722
     41 H20         4.4264    1.3846   -2.1251 H         1 <0>         0.0786
     42 H21         5.1190   -0.2673   -2.0082 H         1 <0>         0.0784
     43 H22         5.1830    1.2432   -4.3493 H         1 <0>         0.0988
     44 H23         5.1690   -0.5430   -4.3386 H         1 <0>         0.0946
     45 H24         1.3898    2.0316   -2.3778 H         1 <0>         0.0815
     46 H25         3.0012    2.4082   -3.0333 H         1 <0>         0.0634
     47 H26         1.5765    2.4420   -4.0997 H         1 <0>         0.0594
@<TRIPOS>BOND
     1    1    2 1
     2    1   25 1
     3    1   26 1
     4    1   27 1
     5    2    8 1
     6    2   13 1
     7    2    3 1
     8    3    4 1
     9    3   28 1
    10    3   29 1
    11    4    5 1
    12    4   30 1
    13    4   31 1
    14    5    6 2
    15    5    7 1
    16    7    8 2
    17    7   32 1
    18    8    9 1
    19    9   10 1
    20    9   33 1
    21    9   34 1
    22   10   11 1
    23   10   35 1
    24   10   36 1
    25   11   12 1
    26   11   18 1
    27   11   13 1
    28   13   14 1
    29   13   15 1
    30   15   16 1
    31   15   37 1
    32   15   38 1
    33   16   17 1
    34   16   39 1
    35   16   40 1
    36   17   22 1
    37   17   18 1
    38   17   24 1
    39   18   19 1
    40   18   20 1
    41   20   21 1
    42   20   41 1
    43   20   42 1
    44   21   22 1
    45   21   43 1
    46   21   44 1
    47   22   23 2
    48   24   45 1
    49   24   46 1
    50   24   47 1
@<TRIPOS>MOLECULE
ZINC04428526
   47    50     0     0     0
SMALL
USER_CHARGES

@<TRIPOS>ATOM
      1 C1         -0.0187    1.5258    0.0104 C.3       1 <0>        -0.1419
      2 C2          0.0021   -0.0041    0.0020 C.3       1 <0>        -0.1247
      3 C3         -1.4163   -0.5347    0.0747 C.3       1 <0>        -0.0987
      4 C4         -2.0777    0.1021    1.3071 C.3       1 <0>        -0.1200
      5 C5         -1.2968   -0.1972    2.5839 C.3       1 <0>        -0.0680
      6 H1         -1.3308   -1.2722    2.7608 H         1 <0>         0.0699
      7 C6          0.1734    0.2237    2.4623 C.3       1 <0>        -0.0707
      8 H2          0.2469    1.3028    2.3267 H         1 <0>         0.0889
      9 C7          0.7520   -0.5239    1.2580 C.3       1 <0>        -0.0788
     10 H3          0.6135   -1.5992    1.3705 H         1 <0>         0.0845
     11 C8          2.2042   -0.1832    0.9000 C.3       1 <0>        -0.1120
     12 C9          2.2744   -0.5533   -0.6068 C.3       1 <0>        -0.1840
     13 C10         0.8461   -0.4921   -1.1383 C.2       1 <0>         0.3791
     14 O1          0.4710   -0.7784   -2.2499 O.2       1 <0>        -0.4385
     15 C11         0.8999   -0.2003    3.7440 C.3       1 <0>        -0.0856
     16 C12         0.2151    0.4341    4.9206 C.2       1 <0>        -0.1411
     17 C13        -1.0484    0.7434    4.9139 C.2       1 <0>        -0.1107
     18 C14        -1.9520    0.5000    3.7646 C.3       1 <0>        -0.0168
     19 C15        -3.1731   -0.3029    4.2239 C.3       1 <0>        -0.1004
     20 C16        -3.8808    0.4410    5.3596 C.3       1 <0>        -0.1766
     21 C17        -2.8999    0.6548    6.4906 C.2       1 <0>         0.3676
     22 O2         -3.1512    0.2777    7.6100 O.2       1 <0>        -0.4541
     23 C18        -1.6336    1.3894    6.1614 C.3       1 <0>        -0.1376
     24 C19        -2.4518    1.8671    3.2930 C.3       1 <0>        -0.1536
     25 H4          1.0039    1.9031    0.0027 H         1 <0>         0.0618
     26 H5         -0.5459    1.8868   -0.8726 H         1 <0>         0.0596
     27 H6         -0.5289    1.8773    0.9072 H         1 <0>         0.0809
     28 H7         -1.9635   -0.2559   -0.8259 H         1 <0>         0.0711
     29 H8         -1.4017   -1.6195    0.1802 H         1 <0>         0.0659
     30 H9         -2.1277    1.1818    1.1658 H         1 <0>         0.0773
     31 H10        -3.0899   -0.2891    1.4095 H         1 <0>         0.0666
     32 H11         2.4003    0.8788    1.0474 H         1 <0>         0.0784
     33 H12         2.8987   -0.7904    1.4806 H         1 <0>         0.0779
     34 H13         2.9014    0.1627   -1.1382 H         1 <0>         0.0981
     35 H14         2.6741   -1.5604   -0.7256 H         1 <0>         0.0974
     36 H15         0.8647   -1.2853    3.8420 H         1 <0>         0.0768
     37 H16         1.9374    0.1314    3.7026 H         1 <0>         0.0761
     38 H17         0.7950    0.6421    5.8076 H         1 <0>         0.1089
     39 H18        -3.8610   -0.4273    3.3876 H         1 <0>         0.0805
     40 H19        -2.8512   -1.2826    4.5770 H         1 <0>         0.0675
     41 H20        -4.2370    1.4056    4.9980 H         1 <0>         0.1022
     42 H21        -4.7239   -0.1517    5.7146 H         1 <0>         0.0884
     43 H22        -0.9421    1.2764    6.9964 H         1 <0>         0.0927
     44 H23        -1.8234    2.4468    5.9768 H         1 <0>         0.1131
     45 H24        -3.1748    1.7319    2.4886 H         1 <0>         0.0669
     46 H25        -2.9268    2.3871    4.1249 H         1 <0>         0.0570
     47 H26        -1.6098    2.4561    2.9295 H         1 <0>         0.0587
@<TRIPOS>BOND
     1    1    2 1
     2    1   25 1
     3    1   26 1
     4    1   27 1
     5    2    9 1
     6    2   13 1
     7    2    3 1
     8    3    4 1
     9    3   28 1
    10    3   29 1
    11    4    5 1
    12    4   30 1
    13    4   31 1
    14    5    6 1
    15    5   18 1
    16    5    7 1
    17    7    8 1
    18    7    9 1
    19    7   15 1
    20    9   10 1
    21    9   11 1
    22   11   12 1
    23   11   32 1
    24   11   33 1
    25   12   13 1
    26   12   34 1
    27   12   35 1
    28   13   14 2
    29   15   16 1
    30   15   36 1
    31   15   37 1
    32   16   17 2
    33   16   38 1
    34   17   23 1
    35   17   18 1
    36   18   19 1
    37   18   24 1
    38   19   20 1
    39   19   39 1
    40   19   40 1
    41   20   21 1
    42   20   41 1
    43   20   42 1
    44   21   22 2
    45   21   23 1
    46   23   43 1
    47   23   44 1
    48   24   45 1
    49   24   46 1
    50   24   47 1
@<TRIPOS>MOLECULE
ZINC05649661
   68    71     0     0     0
SMALL
USER_CHARGES
N,N-diethyl-trimethyl-oxo-BLAHcarboxamide
@<TRIPOS>ATOM
      1 C1         -1.0937    1.9102    0.8728 C.3       1 <0>        -0.1685
      2 C2         -1.0974    1.0026    2.1045 C.3       1 <0>         0.1116
      3 N1         -2.4534    0.4984    2.3355 N.am      1 <0>        -0.6144
      4 C3         -3.3784    1.2485    3.1887 C.3       1 <0>         0.0999
      5 C4         -4.2576    2.1495    2.3192 C.3       1 <0>        -0.1766
      6 C5         -2.8499   -0.6555    1.7630 C.2       1 <0>         0.5282
      7 O1         -2.1192   -1.2275    0.9821 O.2       1 <0>        -0.5325
      8 C6         -4.1989   -1.2340    2.0925 C.3       1 <0>        -0.1153
      9 H1         -4.8693   -0.4805    2.4925 H         1 <0>         0.0938
     10 C7         -4.8174   -1.9384    0.8540 C.3       1 <0>        -0.1110
     11 C8         -5.5371   -3.2033    1.3912 C.3       1 <0>        -0.1145
     12 C9         -5.4219   -3.0797    2.9123 C.3       1 <0>        -0.0706
     13 H2         -6.2006   -2.3543    3.2308 H         1 <0>         0.0668
     14 C10        -4.0476   -2.4054    3.0972 C.3       1 <0>        -0.0385
     15 C11        -3.8425   -1.9638    4.5253 C.3       1 <0>        -0.1086
     16 C12        -4.5252   -2.9337    5.5048 C.3       1 <0>        -0.1064
     17 C13        -4.5997   -4.3284    4.9036 C.3       1 <0>        -0.0711
     18 H3         -3.6112   -4.6220    4.5464 H         1 <0>         0.0853
     19 C14        -5.5905   -4.3167    3.7323 C.3       1 <0>        -0.0741
     20 H4         -6.6092   -4.2696    4.1669 H         1 <0>         0.0685
     21 C15        -5.4833   -5.6309    2.9741 C.3       1 <0>        -0.1056
     22 C16        -5.8420   -6.7767    3.9389 C.3       1 <0>        -0.1260
     23 C17        -6.1827   -6.2182    5.3111 C.3       1 <0>         0.1568
     24 H5         -7.0470   -5.5509    5.2043 H         1 <0>         0.0680
     25 C18        -5.0284   -5.4028    5.8954 C.3       1 <0>        -0.0627
     26 C19        -5.4730   -4.8030    7.2262 C.3       1 <0>        -0.1132
     27 C20        -5.7541   -5.9219    8.2296 C.3       1 <0>        -0.1350
     28 C21        -6.4198   -7.0983    7.5848 C.2       1 <0>         0.5164
     29 O2         -6.8439   -7.9794    8.3040 O.2       1 <0>        -0.5574
     30 N2         -6.5804   -7.2451    6.2636 N.am      1 <0>        -0.6023
     31 C22        -7.1932   -8.4827    5.7815 C.3       1 <0>         0.0700
     32 C23        -3.8242   -6.3247    6.1382 C.3       1 <0>        -0.1454
     33 C24        -2.8877   -3.2762    2.6082 C.3       1 <0>        -0.1421
     34 H6         -1.4235    1.3430    0.0025 H         1 <0>         0.0593
     35 H7         -0.0848    2.2854    0.7010 H         1 <0>         0.0644
     36 H8         -1.7701    2.7490    1.0375 H         1 <0>         0.0559
     37 H9         -0.4211    0.1638    1.9398 H         1 <0>         0.0813
     38 H10        -0.7676    1.5699    2.9749 H         1 <0>         0.0746
     39 H11        -4.0078    0.5519    3.7426 H         1 <0>         0.0818
     40 H12        -2.8109    1.8612    3.8891 H         1 <0>         0.0806
     41 H13        -3.6253    2.7881    1.7023 H         1 <0>         0.0624
     42 H14        -4.8872    1.5330    1.6776 H         1 <0>         0.0575
     43 H15        -4.8866    2.7693    2.9581 H         1 <0>         0.0683
     44 H16        -5.5379   -1.2792    0.3703 H         1 <0>         0.0635
     45 H17        -4.0369   -2.2213    0.1498 H         1 <0>         0.0825
     46 H18        -5.0475   -4.1040    1.0355 H         1 <0>         0.0731
     47 H19        -6.5853   -3.1922    1.0938 H         1 <0>         0.0654
     48 H20        -2.7694   -1.9162    4.7489 H         1 <0>         0.0628
     49 H21        -4.2599   -0.9576    4.6638 H         1 <0>         0.0628
     50 H22        -3.9507   -2.9623    6.4348 H         1 <0>         0.0671
     51 H23        -5.5338   -2.5755    5.7269 H         1 <0>         0.0642
     52 H24        -4.4694   -5.7747    2.6057 H         1 <0>         0.0697
     53 H25        -6.1831   -5.6358    2.1378 H         1 <0>         0.0700
     54 H26        -5.0118   -7.4763    3.9960 H         1 <0>         0.0725
     55 H27        -6.7130   -7.2951    3.5206 H         1 <0>         0.0688
     56 H28        -4.6843   -4.1583    7.6223 H         1 <0>         0.0827
     57 H29        -6.3777   -4.2092    7.0782 H         1 <0>         0.0712
     58 H30        -4.8215   -6.2415    8.6962 H         1 <0>         0.1009
     59 H31        -6.4090   -5.5342    9.0170 H         1 <0>         0.0987
     60 H32        -7.4341   -9.1233    6.6299 H         1 <0>         0.0913
     61 H33        -8.1055   -8.2470    5.2336 H         1 <0>         0.0583
     62 H34        -6.4966   -9.0001    5.1218 H         1 <0>         0.0597
     63 H35        -2.9973   -5.7427    6.5450 H         1 <0>         0.0607
     64 H36        -4.1016   -7.1059    6.8460 H         1 <0>         0.0540
     65 H37        -3.5193   -6.7798    5.1959 H         1 <0>         0.0600
     66 H38        -1.9629   -2.7001    2.6389 H         1 <0>         0.0580
     67 H39        -2.7928   -4.1502    3.2525 H         1 <0>         0.0577
     68 H40        -3.0813   -3.5983    1.5851 H         1 <0>         0.0651
@<TRIPOS>BOND
     1    1    2 1
     2    1   34 1
     3    1   35 1
     4    1   36 1
     5    2    3 1
     6    2   37 1
     7    2   38 1
     8    3    4 1
     9    3    6 am
    10    4    5 1
    11    4   39 1
    12    4   40 1
    13    5   41 1
    14    5   42 1
    15    5   43 1
    16    6    7 2
    17    6    8 1
    18    8    9 1
    19    8   14 1
    20    8   10 1
    21   10   11 1
    22   10   44 1
    23   10   45 1
    24   11   12 1
    25   11   46 1
    26   11   47 1
    27   12   13 1
    28   12   19 1
    29   12   14 1
    30   14   15 1
    31   14   33 1
    32   15   16 1
    33   15   48 1
    34   15   49 1
    35   16   17 1
    36   16   50 1
    37   16   51 1
    38   17   18 1
    39   17   25 1
    40   17   19 1
    41   19   20 1
    42   19   21 1
    43   21   22 1
    44   21   52 1
    45   21   53 1
    46   22   23 1
    47   22   54 1
    48   22   55 1
    49   23   24 1
    50   23   30 1
    51   23   25 1
    52   25   26 1
    53   25   32 1
    54   26   27 1
    55   26   56 1
    56   26   57 1
    57   27   28 1
    58   27   58 1
    59   27   59 1
    60   28   29 2
    61   28   30 am
    62   30   31 1
    63   31   60 1
    64   31   61 1
    65   31   62 1
    66   32   63 1
    67   32   64 1
    68   32   65 1
    69   33   66 1
    70   33   67 1
    71   33   68 1
@<TRIPOS>MOLECULE
ZINC05649664
   68    71     0     0     0
SMALL
USER_CHARGES
N,N-diethyl-trimethyl-oxo-BLAHcarboxamide
@<TRIPOS>ATOM
      1 C1         -0.1675   -3.9970    2.9733 C.3       1 <0>        -0.1669
      2 C2          1.1931   -3.3170    3.1380 C.3       1 <0>         0.1089
      3 N1          1.4903   -2.5236    1.9428 N.am      1 <0>        -0.6151
      4 C3          2.2053   -3.1326    0.8184 C.3       1 <0>         0.1024
      5 C4          3.7039   -2.8581    0.9582 C.3       1 <0>        -0.1844
      6 C5          1.1060   -1.2334    1.8777 C.2       1 <0>         0.5220
      7 O1          0.5866   -0.7062    2.8385 O.2       1 <0>        -0.5283
      8 C6          1.3217   -0.4460    0.6110 C.3       1 <0>        -0.1067
      9 H1          1.8562   -1.0506   -0.1217 H         1 <0>         0.0933
     10 C7         -0.0324    0.0145    0.0342 C.3       1 <0>        -0.1066
     11 C8          0.0048    1.5583    0.0068 C.3       1 <0>        -0.1218
     12 C9          1.5253    1.8924   -0.0449 C.3       1 <0>        -0.0714
     13 H2          1.7395    2.9102    0.2811 H         1 <0>         0.0870
     14 C10         2.1077    0.8367    0.9129 C.3       1 <0>        -0.0369
     15 C11         3.5987    0.6608    0.7350 C.3       1 <0>        -0.1133
     16 C12         3.9888    0.3878   -0.6963 C.3       1 <0>        -0.1185
     17 C13         3.5056    1.5575   -1.5613 C.3       1 <0>        -0.0659
     18 H3          3.9336    2.4891   -1.1910 H         1 <0>         0.0815
     19 C14         1.9812    1.6241   -1.4810 C.3       1 <0>        -0.0806
     20 H4          1.5663    0.6725   -1.8133 H         1 <0>         0.0768
     21 C15         1.4690    2.7379   -2.3966 C.3       1 <0>        -0.1121
     22 C16         1.8470    2.4202   -3.8485 C.3       1 <0>        -0.1323
     23 C17         2.6727    1.1357   -3.8719 C.3       1 <0>         0.1518
     24 H5          2.0752    0.3279   -3.4495 H         1 <0>         0.0737
     25 C18         3.9237    1.3220   -3.0123 C.3       1 <0>        -0.0643
     26 C19         4.7868    0.0639   -3.1265 C.3       1 <0>        -0.1141
     27 C20         5.3289    0.0067   -4.5788 C.3       1 <0>        -0.1379
     28 C21         4.2172    0.2423   -5.5592 C.2       1 <0>         0.5154
     29 O2          4.3984   -0.0767   -6.7152 O.2       1 <0>        -0.5559
     30 N2          3.0400    0.7822   -5.2332 N.am      1 <0>        -0.6008
     31 C22         2.0691    1.0304   -6.3018 C.3       1 <0>         0.0764
     32 C23         4.7145    2.5303   -3.5177 C.3       1 <0>        -0.1473
     33 C24         1.8251    1.2644    2.3545 C.3       1 <0>        -0.1388
     34 H6         -0.9389   -3.2386    2.8396 H         1 <0>         0.0576
     35 H7         -0.1444   -4.6496    2.1006 H         1 <0>         0.0546
     36 H8         -0.3887   -4.5873    3.8626 H         1 <0>         0.0662
     37 H9          1.9645   -4.0754    3.2717 H         1 <0>         0.0744
     38 H10         1.1700   -2.6645    4.0108 H         1 <0>         0.0837
     39 H11         2.0315   -4.2087    0.8174 H         1 <0>         0.0799
     40 H12         1.8433   -2.7052   -0.1166 H         1 <0>         0.0787
     41 H13         4.2359   -3.3112    0.1217 H         1 <0>         0.0687
     42 H14         3.8777   -1.7821    0.9593 H         1 <0>         0.0692
     43 H15         4.0659   -3.2855    1.8933 H         1 <0>         0.0590
     44 H16        -0.8466   -0.3284    0.6725 H         1 <0>         0.0677
     45 H17        -0.1599   -0.3742   -0.9761 H         1 <0>         0.0681
     46 H18        -0.5009    1.9377   -0.8811 H         1 <0>         0.0708
     47 H19        -0.4467    1.9681    0.9103 H         1 <0>         0.0700
     48 H20         4.1067    1.5679    1.0623 H         1 <0>         0.0668
     49 H21         3.9349   -0.1760    1.3473 H         1 <0>         0.0631
     50 H22         3.5082   -0.5341   -1.0239 H         1 <0>         0.0640
     51 H23         5.0708    0.2894   -0.7832 H         1 <0>         0.0738
     52 H24         0.3838    2.8026   -2.3179 H         1 <0>         0.0688
     53 H25         1.9121    3.6874   -2.0964 H         1 <0>         0.0675
     54 H26         2.4385    3.2422   -4.2517 H         1 <0>         0.0731
     55 H27         0.9479    2.2876   -4.4503 H         1 <0>         0.0705
     56 H28         5.6206    0.1256   -2.4271 H         1 <0>         0.0845
     57 H29         4.1841   -0.8165   -2.9037 H         1 <0>         0.0741
     58 H30         5.7647   -0.9763   -4.7571 H         1 <0>         0.0981
     59 H31         6.0951    0.7704   -4.7121 H         1 <0>         0.1019
     60 H32         2.2207    2.0317   -6.7051 H         1 <0>         0.0549
     61 H33         2.2055    0.2949   -7.0947 H         1 <0>         0.0794
     62 H34         1.0588    0.9493   -5.9009 H         1 <0>         0.0693
     63 H35         5.6030    2.6668   -2.9011 H         1 <0>         0.0613
     64 H36         5.0128    2.3623   -4.5526 H         1 <0>         0.0552
     65 H37         4.0912    3.4226   -3.4595 H         1 <0>         0.0627
     66 H38         2.2429    0.5277    3.0406 H         1 <0>         0.0555
     67 H39         2.2827    2.2358    2.5416 H         1 <0>         0.0426
     68 H40         0.7483    1.3344    2.5082 H         1 <0>         0.0751
@<TRIPOS>BOND
     1    1    2 1
     2    1   34 1
     3    1   35 1
     4    1   36 1
     5    2    3 1
     6    2   37 1
     7    2   38 1
     8    3    4 1
     9    3    6 am
    10    4    5 1
    11    4   39 1
    12    4   40 1
    13    5   41 1
    14    5   42 1
    15    5   43 1
    16    6    7 2
    17    6    8 1
    18    8    9 1
    19    8   14 1
    20    8   10 1
    21   10   11 1
    22   10   44 1
    23   10   45 1
    24   11   12 1
    25   11   46 1
    26   11   47 1
    27   12   13 1
    28   12   19 1
    29   12   14 1
    30   14   15 1
    31   14   33 1
    32   15   16 1
    33   15   48 1
    34   15   49 1
    35   16   17 1
    36   16   50 1
    37   16   51 1
    38   17   18 1
    39   17   25 1
    40   17   19 1
    41   19   20 1
    42   19   21 1
    43   21   22 1
    44   21   52 1
    45   21   53 1
    46   22   23 1
    47   22   54 1
    48   22   55 1
    49   23   24 1
    50   23   30 1
    51   23   25 1
    52   25   26 1
    53   25   32 1
    54   26   27 1
    55   26   56 1
    56   26   57 1
    57   27   28 1
    58   27   58 1
    59   27   59 1
    60   28   29 2
    61   28   30 am
    62   30   31 1
    63   31   60 1
    64   31   61 1
    65   31   62 1
    66   32   63 1
    67   32   64 1
    68   32   65 1
    69   33   66 1
    70   33   67 1
    71   33   68 1
@<TRIPOS>MOLECULE
ZINC29345122
   65    68     0     0     0
SMALL
USER_CHARGES
(8R,9R,10R,13S,14S,17S)-17-(tert-butylcarbamoyl)-10,13-dimethyl-2,7,8,9,11,12,14,15,16,17-decahydro-1H-cyclopenta[a]phenanthrene-3-carboxylic acid
@<TRIPOS>ATOM
      1 C1         -3.5950    3.5714    1.2146 C.3       1 <0>        -0.1594
      2 C2         -2.9114    2.2073    1.0977 C.3       1 <0>        -0.0137
      3 C3         -1.6371    2.3085    0.3019 C.3       1 <0>        -0.0968
      4 C4         -1.8846    2.0459   -1.1915 C.3       1 <0>        -0.1111
      5 C5         -3.3241    2.3509   -1.5692 C.3       1 <0>        -0.0670
      6 H1         -3.5171    3.3799   -1.2316 H         1 <0>         0.0757
      7 C6         -4.2711    1.3729   -0.8718 C.3       1 <0>        -0.0753
      8 H2         -4.2227    0.3604   -1.2991 H         1 <0>         0.0616
      9 C7         -3.8531    1.1224    0.5375 C.3       1 <0>        -0.0872
     10 H3         -3.4106    0.1303    0.3641 H         1 <0>         0.0707
     11 C8         -4.9500    1.0722    1.6112 C.3       1 <0>        -0.1152
     12 C9         -4.1494    1.2100    2.9363 C.3       1 <0>        -0.1139
     13 C10        -2.7271    1.6827    2.5405 C.3       1 <0>        -0.1064
     14 H4         -1.9589    0.9019    2.6419 H         1 <0>         0.0994
     15 C11        -2.2707    2.7999    3.4357 C.2       1 <0>         0.5216
     16 O1         -1.6376    3.7261    2.9750 O.2       1 <0>        -0.5310
     17 N1         -2.5649    2.7727    4.7507 N.am      1 <0>        -0.7384
     18 C12        -2.1200    3.8620    5.6235 C.3       1 <0>         0.1723
     19 C13        -2.7205    5.1826    5.1375 C.3       1 <0>        -0.1649
     20 C14        -2.5817    3.5884    7.0563 C.3       1 <0>        -0.1559
     21 C15        -0.5931    3.9525    5.5882 C.3       1 <0>        -0.1652
     22 C16        -5.6961    1.9016   -1.0535 C.3       1 <0>        -0.0746
     23 C17        -5.9635    1.7930   -2.5413 C.2       1 <0>        -0.1756
     24 C18        -4.9873    1.9805   -3.4212 C.2       1 <0>        -0.0561
     25 C19        -3.5789    2.3664   -3.0602 C.3       1 <0>        -0.0119
     26 C20        -2.6063    1.4929   -3.8406 C.3       1 <0>        -0.1012
     27 C21        -2.8179    1.6677   -5.3424 C.3       1 <0>        -0.0714
     28 C22        -4.2641    1.6615   -5.7280 C.2       1 <0>        -0.1220
     29 C23        -5.2775    1.7925   -4.8527 C.2       1 <0>        -0.1228
     30 C24        -4.5866    1.5065   -7.1007 C.2       1 <0>         0.4725
     31 O2         -5.7503    1.4963   -7.4546 O.co2     1 <0>        -0.6410
     32 O3         -3.6024    1.3704   -8.0137 O.co2     1 <0>        -0.7656
     33 C25        -3.3828    3.8186   -3.5141 C.3       1 <0>        -0.1456
     34 H5         -2.8818    4.3056    1.6176 H         1 <0>         0.0834
     35 H6         -4.4598    3.4915    1.8897 H         1 <0>         0.0474
     36 H7         -3.9347    3.8976    0.2205 H         1 <0>         0.0606
     37 H8         -1.2148    3.3181    0.4128 H         1 <0>         0.0699
     38 H9         -0.9143    1.5661    0.6711 H         1 <0>         0.0554
     39 H10        -1.2204    2.6856   -1.7912 H         1 <0>         0.0639
     40 H11        -1.6780    0.9893   -1.4172 H         1 <0>         0.0591
     41 H12        -5.6545    1.9024    1.4548 H         1 <0>         0.0738
     42 H13        -5.4889    0.1158    1.5405 H         1 <0>         0.0655
     43 H14        -4.6425    1.9466    3.5877 H         1 <0>         0.0686
     44 H15        -4.1134    0.2359    3.4460 H         1 <0>         0.0689
     45 H16        -3.1390    1.9326    5.1686 H         1 <0>         0.4153
     46 H17        -2.3864    6.0005    5.7929 H         1 <0>         0.0585
     47 H18        -3.8183    5.1175    5.1628 H         1 <0>         0.0521
     48 H19        -2.3885    5.3792    4.1074 H         1 <0>         0.0801
     49 H20        -2.2477    4.4063    7.7116 H         1 <0>         0.0704
     50 H21        -2.1499    2.6389    7.4057 H         1 <0>         0.0605
     51 H22        -3.6795    3.5233    7.0816 H         1 <0>         0.0612
     52 H23        -0.2590    4.7704    6.2435 H         1 <0>         0.0589
     53 H24        -0.2612    4.1491    4.5581 H         1 <0>         0.0798
     54 H25        -0.1614    3.0030    5.9376 H         1 <0>         0.0511
     55 H26        -6.3936    1.2845   -0.4681 H         1 <0>         0.0670
     56 H27        -5.7477    2.9438   -0.7053 H         1 <0>         0.0692
     57 H28        -6.9797    1.5560   -2.8894 H         1 <0>         0.1094
     58 H29        -1.5742    1.7786   -3.5894 H         1 <0>         0.0661
     59 H30        -2.7689    0.4374   -3.5772 H         1 <0>         0.0570
     60 H31        -2.3882    2.6279   -5.6639 H         1 <0>         0.0704
     61 H32        -2.3228    0.8460   -5.8806 H         1 <0>         0.0789
     62 H33        -6.3183    1.7590   -5.2072 H         1 <0>         0.1261
     63 H34        -3.5565    3.8906   -4.5979 H         1 <0>         0.0644
     64 H35        -2.3556    4.1387   -3.2853 H         1 <0>         0.0532
     65 H36        -4.0957    4.4677   -2.9845 H         1 <0>         0.0495
@<TRIPOS>BOND
     1    1    2 1
     2    1   34 1
     3    1   35 1
     4    1   36 1
     5    2    9 1
     6    2   13 1
     7    2    3 1
     8    3    4 1
     9    3   37 1
    10    3   38 1
    11    4    5 1
    12    4   39 1
    13    4   40 1
    14    5    6 1
    15    5   25 1
    16    5    7 1
    17    7    8 1
    18    7    9 1
    19    7   22 1
    20    9   10 1
    21    9   11 1
    22   11   12 1
    23   11   41 1
    24   11   42 1
    25   12   13 1
    26   12   43 1
    27   12   44 1
    28   13   14 1
    29   13   15 1
    30   15   16 2
    31   15   17 am
    32   17   18 1
    33   17   45 1
    34   18   19 1
    35   18   20 1
    36   18   21 1
    37   19   46 1
    38   19   47 1
    39   19   48 1
    40   20   49 1
    41   20   50 1
    42   20   51 1
    43   21   52 1
    44   21   53 1
    45   21   54 1
    46   22   23 1
    47   22   55 1
    48   22   56 1
    49   23   24 2
    50   23   57 1
    51   24   29 1
    52   24   25 1
    53   25   26 1
    54   25   33 1
    55   26   27 1
    56   26   58 1
    57   26   59 1
    58   27   28 1
    59   27   60 1
    60   27   61 1
    61   28   29 2
    62   28   30 1
    63   29   62 1
    64   30   31 2
    65   30   32 1
    66   33   63 1
    67   33   64 1
    68   33   65 1
@<TRIPOS>MOLECULE
ZINC34307313
   65    68     0     0     0
SMALL
USER_CHARGES

@<TRIPOS>ATOM
      1 C1          1.6884    1.6783   -0.2628 C.3       1 <0>        -0.1624
      2 C2          0.9544    0.3867    0.0862 C.3       1 <0>        -0.0290
      3 C3         -0.3536    0.6818    0.7795 C.3       1 <0>        -0.1036
      4 C4         -0.0624    1.2903    2.1657 C.3       1 <0>        -0.1054
      5 C5          0.7659    0.3472    3.0201 C.3       1 <0>        -0.0617
      6 H1          0.1760   -0.5836    3.1133 H         1 <0>         0.0574
      7 C6          2.0735   -0.0559    2.3269 C.3       1 <0>        -0.0607
      8 H2          2.5096   -0.8864    2.9236 H         1 <0>         0.0655
      9 C7          1.7858   -0.5752    0.9578 C.3       1 <0>        -0.0747
     10 H3          1.1957   -1.5169    1.0732 H         1 <0>         0.0638
     11 C8          2.9570   -0.9079    0.0265 C.3       1 <0>        -0.1136
     12 C9          2.2468   -1.0977   -1.3450 C.3       1 <0>        -0.1232
     13 C10         0.8484   -0.4403   -1.2105 C.3       1 <0>        -0.1118
     14 H4          0.0745   -1.1922   -1.1072 H         1 <0>         0.1025
     15 C11         0.5783    0.4694   -2.3771 C.2       1 <0>         0.5308
     16 O1         -0.1418    1.4354   -2.2388 O.2       1 <0>        -0.5276
     17 N1          1.1364    0.2112   -3.5764 N.am      1 <0>        -0.7279
     18 C12         0.8733    1.0974   -4.7129 C.3       1 <0>         0.1678
     19 C13         1.3528    2.5114   -4.3787 C.3       1 <0>        -0.1636
     20 C14         1.6211    0.5831   -5.9446 C.3       1 <0>        -0.1558
     21 C15        -0.6289    1.1234   -5.0022 C.3       1 <0>        -0.1635
     22 C16         3.0551    1.1105    2.3928 C.3       1 <0>        -0.0753
     23 C17         3.3893    1.2938    3.8584 C.2       1 <0>        -0.1829
     24 C18         2.4315    1.1436    4.7675 C.2       1 <0>        -0.0584
     25 C19         1.0026    0.8267    4.4323 C.3       1 <0>        -0.0104
     26 C20         0.4886   -0.2072    5.4397 C.3       1 <0>        -0.1017
     27 C21         0.5790    0.3295    6.8634 C.3       1 <0>        -0.0694
     28 C22         1.9071    0.9611    7.1470 C.2       1 <0>        -0.1432
     29 C23         2.7781    1.3250    6.1856 C.2       1 <0>        -0.1213
     30 C24         2.2644    1.1885    8.4954 C.2       1 <0>         0.5035
     31 O2          3.3431    1.7033    8.7649 O.co2     1 <0>        -0.6980
     32 O3          1.4955    0.8708    9.3949 O.co2     1 <0>        -0.6996
     33 C25         0.2087    2.1123    4.6613 C.3       1 <0>        -0.1419
     34 H5          2.6493    1.4385   -0.7179 H         1 <0>         0.0487
     35 H6          1.0889    2.2588   -0.9641 H         1 <0>         0.0778
     36 H7          1.8511    2.2603    0.6444 H         1 <0>         0.0649
     37 H8         -0.9383    1.3941    0.1922 H         1 <0>         0.0722
     38 H9         -0.9292   -0.2382    0.9036 H         1 <0>         0.0553
     39 H10         0.4435    2.2412    2.0393 H         1 <0>         0.0663
     40 H11        -1.0409    1.4552    2.6316 H         1 <0>         0.0613
     41 H12         3.6855   -0.1051   -0.0130 H         1 <0>         0.0734
     42 H13         3.4343   -1.8410    0.3355 H         1 <0>         0.0649
     43 H14         2.8173   -0.6083   -2.1324 H         1 <0>         0.0673
     44 H15         2.1387   -2.1599   -1.5630 H         1 <0>         0.0692
     45 H16         1.7124   -0.5614   -3.6871 H         1 <0>         0.3978
     46 H17         2.4230    2.4929   -4.1726 H         1 <0>         0.0531
     47 H18         1.1570    3.1708   -5.2243 H         1 <0>         0.0599
     48 H19         0.8201    2.8779   -3.5012 H         1 <0>         0.0800
     49 H20         1.2794   -0.4243   -6.1826 H         1 <0>         0.0604
     50 H21         1.4253    1.2424   -6.7902 H         1 <0>         0.0720
     51 H22         2.6912    0.5645   -5.7385 H         1 <0>         0.0612
     52 H23        -1.1616    1.4899   -4.1247 H         1 <0>         0.0794
     53 H24        -0.8247    1.7828   -5.8478 H         1 <0>         0.0603
     54 H25        -0.9705    0.1161   -5.2403 H         1 <0>         0.0517
     55 H26         3.9610    0.8869    1.8358 H         1 <0>         0.0649
     56 H27         2.6000    2.0342    2.0409 H         1 <0>         0.0766
     57 H28         4.3916    1.5437    4.1552 H         1 <0>         0.1092
     58 H29        -0.5507   -0.4493    5.2044 H         1 <0>         0.0597
     59 H30         1.0889   -1.1166    5.3526 H         1 <0>         0.0557
     60 H31        -0.2179    1.0429    7.0550 H         1 <0>         0.0704
     61 H32         0.4480   -0.5102    7.5584 H         1 <0>         0.0715
     62 H33         3.7334    1.7560    6.4569 H         1 <0>         0.1234
     63 H34        -0.8531    1.9148    4.5135 H         1 <0>         0.0533
     64 H35         0.3744    2.4652    5.6792 H         1 <0>         0.0621
     65 H36         0.5385    2.8738    3.9546 H         1 <0>         0.0518
@<TRIPOS>BOND
     1    1    2 1
     2    1   34 1
     3    1   35 1
     4    1   36 1
     5    2    9 1
     6    2   13 1
     7    2    3 1
     8    3    4 1
     9    3   37 1
    10    3   38 1
    11    4    5 1
    12    4   39 1
    13    4   40 1
    14    5    6 1
    15    5   25 1
    16    5    7 1
    17    7    8 1
    18    7    9 1
    19    7   22 1
    20    9   10 1
    21    9   11 1
    22   11   12 1
    23   11   41 1
    24   11   42 1
    25   12   13 1
    26   12   43 1
    27   12   44 1
    28   13   14 1
    29   13   15 1
    30   15   16 2
    31   15   17 am
    32   17   18 1
    33   17   45 1
    34   18   19 1
    35   18   20 1
    36   18   21 1
    37   19   46 1
    38   19   47 1
    39   19   48 1
    40   20   49 1
    41   20   50 1
    42   20   51 1
    43   21   52 1
    44   21   53 1
    45   21   54 1
    46   22   23 1
    47   22   55 1
    48   22   56 1
    49   23   24 2
    50   23   57 1
    51   24   29 1
    52   24   25 1
    53   25   26 1
    54   25   33 1
    55   26   27 1
    56   26   58 1
    57   26   59 1
    58   27   28 1
    59   27   60 1
    60   27   61 1
    61   28   29 2
    62   28   30 1
    63   29   62 1
    64   30   31 2
    65   30   32 1
    66   33   63 1
    67   33   64 1
    68   33   65 1
@<TRIPOS>MOLECULE
ZINC03782599
   63    66     0     0     0
SMALL
USER_CHARGES

@<TRIPOS>ATOM
      1 C1          0.1611    1.5762    0.0269 C.3       1 <0>        -0.1519
      2 C2          0.0931    0.0477    0.0325 C.3       1 <0>        -0.0508
      3 C3         -1.3313   -0.4004    0.2938 C.3       1 <0>        -0.1037
      4 C4         -1.7878    0.2661    1.6027 C.3       1 <0>        -0.1184
      5 C5         -0.8623   -0.0918    2.7601 C.3       1 <0>        -0.0624
      6 H1         -0.9324   -1.1624    2.9522 H         1 <0>         0.0754
      7 C6          0.6001    0.2648    2.4436 C.3       1 <0>        -0.0813
      8 H2          0.6869    1.3376    2.2713 H         1 <0>         0.0894
      9 C7          0.9758   -0.5123    1.1810 C.3       1 <0>        -0.0784
     10 H3          0.7937   -1.5782    1.3175 H         1 <0>         0.0796
     11 C8          2.3865   -0.2593    0.6380 C.3       1 <0>        -0.1139
     12 C9          2.2587   -0.6506   -0.8596 C.3       1 <0>        -0.1121
     13 C10         0.7603   -0.5021   -1.2236 C.3       1 <0>        -0.1024
     14 H4          0.3366   -1.4724   -1.4826 H         1 <0>         0.0888
     15 C11         0.5943    0.4637   -2.3685 C.2       1 <0>         0.5290
     16 O1          1.4311    1.3190   -2.5666 O.2       1 <0>        -0.5313
     17 N1         -0.4841    0.3771   -3.1722 N.am      1 <0>        -0.7256
     18 C12        -0.6455    1.3160   -4.2852 C.3       1 <0>         0.1688
     19 C13         0.5406    1.1812   -5.2422 C.3       1 <0>        -0.1642
     20 C14        -1.9426    1.0020   -5.0333 C.3       1 <0>        -0.1566
     21 C15        -0.7029    2.7453   -3.7424 C.3       1 <0>        -0.1634
     22 C16         1.4910   -0.1409    3.6173 C.3       1 <0>        -0.1099
     23 C17         1.0452    0.5929    4.8861 C.3       1 <0>        -0.1296
     24 C18        -0.4081    0.2320    5.1868 C.3       1 <0>         0.1496
     25 H5         -0.4905   -0.8471    5.3165 H         1 <0>         0.0775
     26 C19        -1.2751    0.6663    4.0195 C.3       1 <0>        -0.0478
     27 C20        -2.7176    0.4002    4.3570 C.2       1 <0>        -0.0886
     28 C21        -3.1281    0.5935    5.6129 C.2       1 <0>        -0.1980
     29 C22        -2.1595    1.0710    6.6166 C.2       1 <0>         0.5485
     30 O2         -2.5462    1.6436    7.6175 O.2       1 <0>        -0.5498
     31 N2         -0.8742    0.8996    6.4004 N.am      1 <0>        -0.7086
     32 C23        -1.0875    2.1676    3.7915 C.3       1 <0>        -0.1472
     33 H6          1.1969    1.8934   -0.0944 H         1 <0>         0.0663
     34 H7         -0.4365    1.9634   -0.7984 H         1 <0>         0.0523
     35 H8         -0.2286    1.9606    0.9694 H         1 <0>         0.0663
     36 H9         -1.9757   -0.0854   -0.5270 H         1 <0>         0.0638
     37 H10        -1.3657   -1.4848    0.3982 H         1 <0>         0.0675
     38 H11        -1.7910    1.3480    1.4699 H         1 <0>         0.0726
     39 H12        -2.7988   -0.0662    1.8385 H         1 <0>         0.0652
     40 H13         2.6562    0.7918    0.7403 H         1 <0>         0.0712
     41 H14         3.1136   -0.8959    1.1422 H         1 <0>         0.0674
     42 H15         2.8610    0.0187   -1.4739 H         1 <0>         0.0837
     43 H16         2.5786   -1.6823   -1.0054 H         1 <0>         0.0665
     44 H17        -1.1533   -0.3069   -3.0138 H         1 <0>         0.3972
     45 H18         0.5816    0.1629   -5.6289 H         1 <0>         0.0528
     46 H19         0.4206    1.8798   -6.0703 H         1 <0>         0.0621
     47 H20         1.4648    1.4049   -4.7093 H         1 <0>         0.0783
     48 H21        -2.7876    1.0981   -4.3515 H         1 <0>         0.0613
     49 H22        -2.0627    1.7006   -5.8613 H         1 <0>         0.0734
     50 H23        -1.9017   -0.0162   -5.4200 H         1 <0>         0.0615
     51 H24         0.2212    2.9690   -3.2094 H         1 <0>         0.0788
     52 H25        -0.8230    3.4439   -4.5704 H         1 <0>         0.0617
     53 H26        -1.5479    2.8413   -3.0606 H         1 <0>         0.0524
     54 H27         1.4146   -1.2167    3.7752 H         1 <0>         0.0668
     55 H28         2.5257    0.1186    3.3934 H         1 <0>         0.0738
     56 H29         1.6761    0.2915    5.7222 H         1 <0>         0.0737
     57 H30         1.1295    1.6689    4.7336 H         1 <0>         0.0780
     58 H31        -3.4069    0.0593    3.5986 H         1 <0>         0.1340
     59 H32        -4.1547    0.4031    5.8893 H         1 <0>         0.1433
     60 H33        -0.2383    1.2035    7.0669 H         1 <0>         0.4036
     61 H34        -1.7067    2.4880    2.9536 H         1 <0>         0.0645
     62 H35        -1.3817    2.7110    4.6894 H         1 <0>         0.0569
     63 H36        -0.0405    2.3732    3.5690 H         1 <0>         0.0722
@<TRIPOS>BOND
     1    1    2 1
     2    1   33 1
     3    1   34 1
     4    1   35 1
     5    2    9 1
     6    2   13 1
     7    2    3 1
     8    3    4 1
     9    3   36 1
    10    3   37 1
    11    4    5 1
    12    4   38 1
    13    4   39 1
    14    5    6 1
    15    5   26 1
    16    5    7 1
    17    7    8 1
    18    7    9 1
    19    7   22 1
    20    9   10 1
    21    9   11 1
    22   11   12 1
    23   11   40 1
    24   11   41 1
    25   12   13 1
    26   12   42 1
    27   12   43 1
    28   13   14 1
    29   13   15 1
    30   15   16 2
    31   15   17 am
    32   17   18 1
    33   17   44 1
    34   18   19 1
    35   18   20 1
    36   18   21 1
    37   19   45 1
    38   19   46 1
    39   19   47 1
    40   20   48 1
    41   20   49 1
    42   20   50 1
    43   21   51 1
    44   21   52 1
    45   21   53 1
    46   22   23 1
    47   22   54 1
    48   22   55 1
    49   23   24 1
    50   23   56 1
    51   23   57 1
    52   24   25 1
    53   24   31 1
    54   24   26 1
    55   26   27 1
    56   26   32 1
    57   27   28 2
    58   27   58 1
    59   28   29 1
    60   28   59 1
    61   29   30 2
    62   29   31 am
    63   31   60 1
    64   32   61 1
    65   32   62 1
    66   32   63 1
