@<TRIPOS>MOLECULE
ZINC03995954
   72    75     0     0     0
SMALL
USER_CHARGES

@<TRIPOS>ATOM
      1 C1          1.7893    2.0990   -0.0392 C.3       1 <0>         0.0252
      2 O1          2.5111    0.8664    0.0036 O.3       1 <0>        -0.3151
      3 C2          2.3902    0.0430   -1.0707 C.ar      1 <0>         0.1422
      4 C3          1.5978    0.4163   -2.1466 C.ar      1 <0>        -0.2105
      5 C4          1.4765   -0.4226   -3.2375 C.ar      1 <0>        -0.0652
      6 C5          2.1437   -1.6334   -3.2575 C.ar      1 <0>        -0.1574
      7 C6          2.9340   -2.0078   -2.1865 C.ar      1 <0>        -0.0481
      8 C7          3.0635   -1.1697   -1.0959 C.ar      1 <0>        -0.1536
      9 C8          2.0088   -2.5470   -4.4484 C.3       1 <0>         0.2783
     10 C9          2.4531   -3.9361   -4.0688 C.ar      1 <0>        -0.1120
     11 C10         1.7226   -4.6676   -3.1506 C.ar      1 <0>        -0.0575
     12 C11         2.1279   -5.9412   -2.8010 C.ar      1 <0>        -0.1486
     13 C12         3.2686   -6.4862   -3.3723 C.ar      1 <0>         0.1355
     14 C13         3.9996   -5.7503   -4.2936 C.ar      1 <0>        -0.2110
     15 C14         3.5874   -4.4790   -4.6435 C.ar      1 <0>        -0.0566
     16 O2          3.6696   -7.7387   -3.0297 O.3       1 <0>        -0.3157
     17 C15         4.8531   -8.2355   -3.6576 C.3       1 <0>         0.0264
     18 C16         0.5692   -2.5839   -4.8927 C.ar      1 <0>        -0.1607
     19 C17        -0.4430   -2.3999   -3.9690 C.ar      1 <0>        -0.0651
     20 C18        -1.7634   -2.4333   -4.3737 C.ar      1 <0>        -0.1501
     21 C19        -2.0734   -2.6513   -5.7083 C.ar      1 <0>         0.1445
     22 C20        -1.0558   -2.8352   -6.6332 C.ar      1 <0>        -0.1944
     23 C21         0.2631   -2.7962   -6.2242 C.ar      1 <0>        -0.0643
     24 O3         -3.3715   -2.6850   -6.1089 O.3       1 <0>        -0.3155
     25 C22        -3.6161   -2.9140   -7.4980 C.3       1 <0>         0.0224
     26 O4          2.8246   -2.0611   -5.5163 O.3       1 <0>        -0.3733
     27 C23         2.5171   -0.7256   -5.9212 C.3       1 <0>         0.0145
     28 C24         3.4590   -0.3058   -7.0515 C.3       1 <0>         0.0008
     29 N1          3.1999   -1.1331   -8.2375 N.4       1 <0>        -0.3853
     30 C25         4.2155   -0.8523   -9.2594 C.3       1 <0>        -0.0031
     31 C26         3.9985   -1.7693  -10.4650 C.3       1 <0>        -0.1432
     32 C27         2.6042   -1.5179  -11.0462 C.3       1 <0>        -0.1136
     33 C28         1.5574   -1.7417   -9.9510 C.3       1 <0>        -0.1774
     34 H1          1.5877   -2.7815   -9.6256 H         1 <0>         0.0825
     35 C29         1.8648   -0.8257   -8.7645 C.3       1 <0>         0.0105
     36 C30         0.1873   -1.4234  -10.4919 C.2       1 <0>         0.5043
     37 O5         -0.2498   -2.0420  -11.4472 O.co2     1 <0>        -0.6695
     38 O6         -0.4841   -0.5472   -9.9740 O.co2     1 <0>        -0.6833
     39 H2          2.1215    2.6850   -0.8962 H         1 <0>         0.0568
     40 H3          0.7230    1.8927   -0.1315 H         1 <0>         0.0584
     41 H4          1.9729    2.6596    0.8774 H         1 <0>         0.1031
     42 H5          1.0759    1.3617   -2.1311 H         1 <0>         0.1319
     43 H6          0.8598   -0.1324   -4.0752 H         1 <0>         0.1274
     44 H7          3.4541   -2.9541   -2.2045 H         1 <0>         0.1340
     45 H8          3.6845   -1.4605   -0.2615 H         1 <0>         0.1335
     46 H9          0.8347   -4.2429   -2.7062 H         1 <0>         0.1306
     47 H10         1.5574   -6.5119   -2.0833 H         1 <0>         0.1344
     48 H11         4.8881   -6.1723   -4.7395 H         1 <0>         0.1294
     49 H12         4.1538   -3.9073   -5.3638 H         1 <0>         0.1297
     50 H13         5.6929   -7.5832   -3.4177 H         1 <0>         0.0564
     51 H14         5.0607   -9.2427   -3.2964 H         1 <0>         0.1022
     52 H15         4.7087   -8.2594   -4.7377 H         1 <0>         0.0565
     53 H16        -0.2013   -2.2302   -2.9302 H         1 <0>         0.1310
     54 H17        -2.5538   -2.2902   -3.6518 H         1 <0>         0.1331
     55 H18        -1.2945   -3.0055   -7.6726 H         1 <0>         0.1367
     56 H19         1.0557   -2.9352   -6.9445 H         1 <0>         0.1159
     57 H20        -4.6904   -2.9170   -7.6822 H         1 <0>         0.1030
     58 H21        -3.1491   -2.1227   -8.0844 H         1 <0>         0.0685
     59 H22        -3.1953   -3.8770   -7.7871 H         1 <0>         0.0568
     60 H23         1.4860   -0.6805   -6.2719 H         1 <0>         0.0848
     61 H24         2.6427   -0.0511   -5.0743 H         1 <0>         0.1019
     62 H25         3.2888    0.7428   -7.2957 H         1 <0>         0.1395
     63 H26         4.4924   -0.4415   -6.7326 H         1 <0>         0.1332
     64 H27         4.1346    0.1877   -9.5753 H         1 <0>         0.1242
     65 H28         5.2074   -1.0286   -8.8433 H         1 <0>         0.1219
     66 H29         4.7524   -1.5581  -11.2233 H         1 <0>         0.1046
     67 H30         4.0795   -2.8097  -10.1502 H         1 <0>         0.0819
     68 H31         2.5396   -0.4917  -11.4079 H         1 <0>         0.0729
     69 H32         2.4229   -2.2081  -11.8702 H         1 <0>         0.0930
     70 H33         1.1213   -0.9823   -7.9829 H         1 <0>         0.1271
     71 H34         1.8340    0.2138   -9.0909 H         1 <0>         0.1272
     72 H35         3.2433   -2.1082   -7.9821 H         1 <0>         0.4216
@<TRIPOS>BOND
     1    1    2 1
     2    1   39 1
     3    1   40 1
     4    1   41 1
     5    2    3 1
     6    3    8 ar
     7    3    4 ar
     8    4    5 ar
     9    4   42 1
    10    5    6 ar
    11    5   43 1
    12    6    7 ar
    13    6    9 1
    14    7    8 ar
    15    7   44 1
    16    8   45 1
    17    9   10 1
    18    9   18 1
    19    9   26 1
    20   10   15 ar
    21   10   11 ar
    22   11   12 ar
    23   11   46 1
    24   12   13 ar
    25   12   47 1
    26   13   14 ar
    27   13   16 1
    28   14   15 ar
    29   14   48 1
    30   15   49 1
    31   16   17 1
    32   17   50 1
    33   17   51 1
    34   17   52 1
    35   18   23 ar
    36   18   19 ar
    37   19   20 ar
    38   19   53 1
    39   20   21 ar
    40   20   54 1
    41   21   22 ar
    42   21   24 1
    43   22   23 ar
    44   22   55 1
    45   23   56 1
    46   24   25 1
    47   25   57 1
    48   25   58 1
    49   25   59 1
    50   26   27 1
    51   27   28 1
    52   27   60 1
    53   27   61 1
    54   28   29 1
    55   28   62 1
    56   28   63 1
    57   29   35 1
    58   29   30 1
    59   29   72 1
    60   30   31 1
    61   30   64 1
    62   30   65 1
    63   31   32 1
    64   31   66 1
    65   31   67 1
    66   32   33 1
    67   32   68 1
    68   32   69 1
    69   33   34 1
    70   33   35 1
    71   33   36 1
    72   35   70 1
    73   35   71 1
    74   36   37 2
    75   36   38 1
