@<TRIPOS>MOLECULE
ZINC03995954
   72    75     0     0     0
SMALL
USER_CHARGES

@<TRIPOS>ATOM
      1 C1          1.7893    2.0990   -0.0392 C.3       1 <0>         0.0252
      2 O1          2.5111    0.8664    0.0036 O.3       1 <0>        -0.3151
      3 C2          2.3902    0.0430   -1.0707 C.ar      1 <0>         0.1422
      4 C3          1.5978    0.4163   -2.1466 C.ar      1 <0>        -0.2105
      5 C4          1.4765   -0.4226   -3.2375 C.ar      1 <0>        -0.0652
      6 C5          2.1437   -1.6334   -3.2575 C.ar      1 <0>        -0.1574
      7 C6          2.9340   -2.0078   -2.1865 C.ar      1 <0>        -0.0481
      8 C7          3.0635   -1.1697   -1.0959 C.ar      1 <0>        -0.1536
      9 C8          2.0088   -2.5470   -4.4484 C.3       1 <0>         0.2783
     10 C9          2.4531   -3.9361   -4.0688 C.ar      1 <0>        -0.1120
     11 C10         1.7226   -4.6676   -3.1506 C.ar      1 <0>        -0.0575
     12 C11         2.1279   -5.9412   -2.8010 C.ar      1 <0>        -0.1486
     13 C12         3.2686   -6.4862   -3.3723 C.ar      1 <0>         0.1355
     14 C13         3.9996   -5.7503   -4.2936 C.ar      1 <0>        -0.2110
     15 C14         3.5874   -4.4790   -4.6435 C.ar      1 <0>        -0.0566
     16 O2          3.6696   -7.7387   -3.0297 O.3       1 <0>        -0.3157
     17 C15         4.8531   -8.2355   -3.6576 C.3       1 <0>         0.0264
     18 C16         0.5692   -2.5839   -4.8927 C.ar      1 <0>        -0.1607
     19 C17        -0.4430   -2.3999   -3.9690 C.ar      1 <0>        -0.0651
     20 C18        -1.7634   -2.4333   -4.3737 C.ar      1 <0>        -0.1501
     21 C19        -2.0734   -2.6513   -5.7083 C.ar      1 <0>         0.1445
     22 C20        -1.0558   -2.8352   -6.6332 C.ar      1 <0>        -0.1944
     23 C21         0.2631   -2.7962   -6.2242 C.ar      1 <0>        -0.0643
     24 O3         -3.3715   -2.6850   -6.1089 O.3       1 <0>        -0.3155
     25 C22        -3.6161   -2.9140   -7.4980 C.3       1 <0>         0.0224
     26 O4          2.8246   -2.0611   -5.5163 O.3       1 <0>        -0.3733
     27 C23         2.5171   -0.7256   -5.9212 C.3       1 <0>         0.0145
     28 C24         3.4590   -0.3058   -7.0515 C.3       1 <0>         0.0008
     29 N1          3.1999   -1.1331   -8.2375 N.4       1 <0>        -0.3853
     30 C25         4.2155   -0.8523   -9.2594 C.3       1 <0>        -0.0031
     31 C26         3.9985   -1.7693  -10.4650 C.3       1 <0>        -0.1432
     32 C27         2.6042   -1.5179  -11.0462 C.3       1 <0>        -0.1136
     33 C28         1.5574   -1.7417   -9.9510 C.3       1 <0>        -0.1774
     34 H1          1.5877   -2.7815   -9.6256 H         1 <0>         0.0825
     35 C29         1.8648   -0.8257   -8.7645 C.3       1 <0>         0.0105
     36 C30         0.1873   -1.4234  -10.4919 C.2       1 <0>         0.5043
     37 O5         -0.2498   -2.0420  -11.4472 O.co2     1 <0>        -0.6695
     38 O6         -0.4841   -0.5472   -9.9740 O.co2     1 <0>        -0.6833
     39 H2          2.1215    2.6850   -0.8962 H         1 <0>         0.0568
     40 H3          0.7230    1.8927   -0.1315 H         1 <0>         0.0584
     41 H4          1.9729    2.6596    0.8774 H         1 <0>         0.1031
     42 H5          1.0759    1.3617   -2.1311 H         1 <0>         0.1319
     43 H6          0.8598   -0.1324   -4.0752 H         1 <0>         0.1274
     44 H7          3.4541   -2.9541   -2.2045 H         1 <0>         0.1340
     45 H8          3.6845   -1.4605   -0.2615 H         1 <0>         0.1335
     46 H9          0.8347   -4.2429   -2.7062 H         1 <0>         0.1306
     47 H10         1.5574   -6.5119   -2.0833 H         1 <0>         0.1344
     48 H11         4.8881   -6.1723   -4.7395 H         1 <0>         0.1294
     49 H12         4.1538   -3.9073   -5.3638 H         1 <0>         0.1297
     50 H13         5.6929   -7.5832   -3.4177 H         1 <0>         0.0564
     51 H14         5.0607   -9.2427   -3.2964 H         1 <0>         0.1022
     52 H15         4.7087   -8.2594   -4.7377 H         1 <0>         0.0565
     53 H16        -0.2013   -2.2302   -2.9302 H         1 <0>         0.1310
     54 H17        -2.5538   -2.2902   -3.6518 H         1 <0>         0.1331
     55 H18        -1.2945   -3.0055   -7.6726 H         1 <0>         0.1367
     56 H19         1.0557   -2.9352   -6.9445 H         1 <0>         0.1159
     57 H20        -4.6904   -2.9170   -7.6822 H         1 <0>         0.1030
     58 H21        -3.1491   -2.1227   -8.0844 H         1 <0>         0.0685
     59 H22        -3.1953   -3.8770   -7.7871 H         1 <0>         0.0568
     60 H23         1.4860   -0.6805   -6.2719 H         1 <0>         0.0848
     61 H24         2.6427   -0.0511   -5.0743 H         1 <0>         0.1019
     62 H25         3.2888    0.7428   -7.2957 H         1 <0>         0.1395
     63 H26         4.4924   -0.4415   -6.7326 H         1 <0>         0.1332
     64 H27         4.1346    0.1877   -9.5753 H         1 <0>         0.1242
     65 H28         5.2074   -1.0286   -8.8433 H         1 <0>         0.1219
     66 H29         4.7524   -1.5581  -11.2233 H         1 <0>         0.1046
     67 H30         4.0795   -2.8097  -10.1502 H         1 <0>         0.0819
     68 H31         2.5396   -0.4917  -11.4079 H         1 <0>         0.0729
     69 H32         2.4229   -2.2081  -11.8702 H         1 <0>         0.0930
     70 H33         1.1213   -0.9823   -7.9829 H         1 <0>         0.1271
     71 H34         1.8340    0.2138   -9.0909 H         1 <0>         0.1272
     72 H35         3.2433   -2.1082   -7.9821 H         1 <0>         0.4216
@<TRIPOS>BOND
     1    1    2 1
     2    1   39 1
     3    1   40 1
     4    1   41 1
     5    2    3 1
     6    3    8 ar
     7    3    4 ar
     8    4    5 ar
     9    4   42 1
    10    5    6 ar
    11    5   43 1
    12    6    7 ar
    13    6    9 1
    14    7    8 ar
    15    7   44 1
    16    8   45 1
    17    9   10 1
    18    9   18 1
    19    9   26 1
    20   10   15 ar
    21   10   11 ar
    22   11   12 ar
    23   11   46 1
    24   12   13 ar
    25   12   47 1
    26   13   14 ar
    27   13   16 1
    28   14   15 ar
    29   14   48 1
    30   15   49 1
    31   16   17 1
    32   17   50 1
    33   17   51 1
    34   17   52 1
    35   18   23 ar
    36   18   19 ar
    37   19   20 ar
    38   19   53 1
    39   20   21 ar
    40   20   54 1
    41   21   22 ar
    42   21   24 1
    43   22   23 ar
    44   22   55 1
    45   23   56 1
    46   24   25 1
    47   25   57 1
    48   25   58 1
    49   25   59 1
    50   26   27 1
    51   27   28 1
    52   27   60 1
    53   27   61 1
    54   28   29 1
    55   28   62 1
    56   28   63 1
    57   29   35 1
    58   29   30 1
    59   29   72 1
    60   30   31 1
    61   30   64 1
    62   30   65 1
    63   31   32 1
    64   31   66 1
    65   31   67 1
    66   32   33 1
    67   32   68 1
    68   32   69 1
    69   33   34 1
    70   33   35 1
    71   33   36 1
    72   35   70 1
    73   35   71 1
    74   36   37 2
    75   36   38 1
@<TRIPOS>MOLECULE
ZINC08036042
   72    75     0     0     0
SMALL
USER_CHARGES

@<TRIPOS>ATOM
      1 C1          0.6184    1.9742   -0.3467 C.3       1 <0>         0.0253
      2 O1          1.5732    0.9267   -0.1639 O.3       1 <0>        -0.3141
      3 C2          1.7624    0.0755   -1.2062 C.ar      1 <0>         0.1441
      4 C3          1.0481    0.2483   -2.3829 C.ar      1 <0>        -0.2111
      5 C4          1.2423   -0.6183   -3.4410 C.ar      1 <0>        -0.0670
      6 C5          2.1473   -1.6575   -3.3279 C.ar      1 <0>        -0.1611
      7 C6          2.8604   -1.8319   -2.1562 C.ar      1 <0>        -0.0461
      8 C7          2.6744   -0.9643   -1.0974 C.ar      1 <0>        -0.1519
      9 C8          2.3564   -2.6021   -4.4834 C.3       1 <0>         0.2761
     10 C9          3.0433   -3.8508   -3.9935 C.ar      1 <0>        -0.1177
     11 C10         2.3917   -4.6980   -3.1164 C.ar      1 <0>        -0.0592
     12 C11         3.0192   -5.8433   -2.6659 C.ar      1 <0>        -0.1502
     13 C12         4.3040   -6.1433   -3.0946 C.ar      1 <0>         0.1380
     14 C13         4.9555   -5.2918   -3.9751 C.ar      1 <0>        -0.2095
     15 C14         4.3218   -4.1502   -4.4264 C.ar      1 <0>        -0.0541
     16 O2          4.9237   -7.2691   -2.6525 O.3       1 <0>        -0.3157
     17 C15         6.2459   -7.5143   -3.1358 C.3       1 <0>         0.0253
     18 C16         1.0224   -2.9650   -5.0833 C.ar      1 <0>        -0.1504
     19 C17        -0.1081   -2.9905   -4.2876 C.ar      1 <0>        -0.0596
     20 C18        -1.3321   -3.3229   -4.8351 C.ar      1 <0>        -0.1466
     21 C19        -1.4265   -3.6307   -6.1846 C.ar      1 <0>         0.1406
     22 C20        -0.2908   -3.6039   -6.9809 C.ar      1 <0>        -0.2085
     23 C21         0.9301   -3.2663   -6.4295 C.ar      1 <0>        -0.0705
     24 O3         -2.6294   -3.9584   -6.7254 O.3       1 <0>        -0.3139
     25 C22        -2.6516   -4.2636   -8.1213 C.3       1 <0>         0.0249
     26 O4          3.1682   -1.9695   -5.4748 O.3       1 <0>        -0.3697
     27 C23         2.6629   -0.7102   -5.9228 C.3       1 <0>         0.0198
     28 C24         3.5564   -0.1711   -7.0418 C.3       1 <0>        -0.0035
     29 N1          3.4717   -1.0608   -8.2076 N.4       1 <0>        -0.3813
     30 C25         2.1054   -1.0342   -8.7433 C.3       1 <0>        -0.0151
     31 C26         1.9907   -2.0205   -9.9077 C.3       1 <0>        -0.1440
     32 C27         2.9795   -1.6213  -11.0068 C.3       1 <0>        -0.1076
     33 C28         4.3927   -1.5802  -10.4181 C.3       1 <0>        -0.1780
     34 H1          4.6745   -2.5767  -10.0781 H         1 <0>         0.0842
     35 C29         4.4184   -0.6103   -9.2349 C.3       1 <0>         0.0159
     36 C30         5.3637   -1.1149  -11.4725 C.2       1 <0>         0.5000
     37 O5          4.9639   -0.8413  -12.5913 O.co2     1 <0>        -0.6681
     38 O6          6.5491   -1.0121  -11.2067 O.co2     1 <0>        -0.6809
     39 H2          0.9227    2.6008   -1.1851 H         1 <0>         0.0571
     40 H3         -0.3605    1.5415   -0.5530 H         1 <0>         0.0579
     41 H4          0.5649    2.5791    0.5584 H         1 <0>         0.1039
     42 H5          0.3406    1.0595   -2.4715 H         1 <0>         0.1318
     43 H6          0.6865   -0.4842   -4.3573 H         1 <0>         0.1243
     44 H7          3.5667   -2.6444   -2.0703 H         1 <0>         0.1353
     45 H8          3.2349   -1.0982   -0.1840 H         1 <0>         0.1349
     46 H9          1.3915   -4.4640   -2.7829 H         1 <0>         0.1288
     47 H10         2.5101   -6.5044   -1.9802 H         1 <0>         0.1343
     48 H11         5.9559   -5.5229   -4.3101 H         1 <0>         0.1316
     49 H12         4.8269   -3.4891   -5.1151 H         1 <0>         0.1325
     50 H13         6.8970   -6.6891   -2.8473 H         1 <0>         0.0578
     51 H14         6.6235   -8.4422   -2.7064 H         1 <0>         0.1030
     52 H15         6.2259   -7.5984   -4.2224 H         1 <0>         0.0576
     53 H16        -0.0341   -2.7508   -3.2372 H         1 <0>         0.1341
     54 H17        -2.2148   -3.3434   -4.2131 H         1 <0>         0.1350
     55 H18        -0.3616   -3.8435   -8.0315 H         1 <0>         0.1323
     56 H19         1.8138   -3.2412   -7.0499 H         1 <0>         0.1191
     57 H20        -3.6700   -4.5075   -8.4238 H         1 <0>         0.1044
     58 H21        -2.3012   -3.4006   -8.6875 H         1 <0>         0.0570
     59 H22        -2.0005   -5.1155   -8.3173 H         1 <0>         0.0585
     60 H23         1.6478   -0.8389   -6.2986 H         1 <0>         0.0768
     61 H24         2.6560   -0.0050   -5.0917 H         1 <0>         0.1020
     62 H25         3.2239    0.8283   -7.3225 H         1 <0>         0.1405
     63 H26         4.5881   -0.1262   -6.6931 H         1 <0>         0.1391
     64 H27         1.4025   -1.3154   -7.9591 H         1 <0>         0.1196
     65 H28         1.8730   -0.0290   -9.0950 H         1 <0>         0.1262
     66 H29         2.2227   -3.0261   -9.5571 H         1 <0>         0.0793
     67 H30         0.9760   -1.9979  -10.3052 H         1 <0>         0.1025
     68 H31         2.9421   -2.3529  -11.8140 H         1 <0>         0.0880
     69 H32         2.7169   -0.6366  -11.3934 H         1 <0>         0.0799
     70 H33         4.1367    0.3859   -9.5760 H         1 <0>         0.1212
     71 H34         5.4231   -0.5784   -8.8135 H         1 <0>         0.1320
     72 H35         3.7030   -2.0024   -7.9283 H         1 <0>         0.4225
@<TRIPOS>BOND
     1    1    2 1
     2    1   39 1
     3    1   40 1
     4    1   41 1
     5    2    3 1
     6    3    8 ar
     7    3    4 ar
     8    4    5 ar
     9    4   42 1
    10    5    6 ar
    11    5   43 1
    12    6    7 ar
    13    6    9 1
    14    7    8 ar
    15    7   44 1
    16    8   45 1
    17    9   10 1
    18    9   18 1
    19    9   26 1
    20   10   15 ar
    21   10   11 ar
    22   11   12 ar
    23   11   46 1
    24   12   13 ar
    25   12   47 1
    26   13   14 ar
    27   13   16 1
    28   14   15 ar
    29   14   48 1
    30   15   49 1
    31   16   17 1
    32   17   50 1
    33   17   51 1
    34   17   52 1
    35   18   23 ar
    36   18   19 ar
    37   19   20 ar
    38   19   53 1
    39   20   21 ar
    40   20   54 1
    41   21   22 ar
    42   21   24 1
    43   22   23 ar
    44   22   55 1
    45   23   56 1
    46   24   25 1
    47   25   57 1
    48   25   58 1
    49   25   59 1
    50   26   27 1
    51   27   28 1
    52   27   60 1
    53   27   61 1
    54   28   29 1
    55   28   62 1
    56   28   63 1
    57   29   35 1
    58   29   30 1
    59   29   72 1
    60   30   31 1
    61   30   64 1
    62   30   65 1
    63   31   32 1
    64   31   66 1
    65   31   67 1
    66   32   33 1
    67   32   68 1
    68   32   69 1
    69   33   34 1
    70   33   35 1
    71   33   36 1
    72   35   70 1
    73   35   71 1
    74   36   37 2
    75   36   38 1
@<TRIPOS>MOLECULE
ZINC01532620
   16    15     0     0     0
SMALL
USER_CHARGES

@<TRIPOS>ATOM
      1 C1         -0.0187    1.5258    0.0104 C.3       1 <0>        -0.1250
      2 C2          0.0021   -0.0041    0.0020 C.3       1 <0>        -0.1856
      3 C3         -1.4117   -0.5257    0.0127 C.2       1 <0>         0.4870
      4 O1         -2.3491    0.2539    0.0259 O.co2     1 <0>        -0.6970
      5 O2         -1.6182   -1.7273    0.0082 O.co2     1 <0>        -0.6862
      6 C4          1.4167    2.0553   -0.0004 C.3       1 <0>        -0.0130
      7 N1          1.3968    3.5242    0.0076 N.4       1 <0>        -0.6362
      8 H1         -0.5459    1.8868   -0.8726 H         1 <0>         0.0846
      9 H2         -0.5289    1.8773    0.9072 H         1 <0>         0.0846
     10 H3          0.5123   -0.3556   -0.8948 H         1 <0>         0.0679
     11 H4          0.5293   -0.3651    0.8851 H         1 <0>         0.0679
     12 H5          1.9439    1.6943    0.8826 H         1 <0>         0.1275
     13 H6          1.9269    1.7038   -0.8972 H         1 <0>         0.1275
     14 H7          2.3434    3.8734    0.0005 H         1 <0>         0.4293
     15 H8          0.9088    3.8584   -0.8098 H         1 <0>         0.4334
     16 H9          0.9245    3.8496    0.8378 H         1 <0>         0.4334
@<TRIPOS>BOND
     1    1    2 1
     2    1    6 1
     3    1    8 1
     4    1    9 1
     5    2    3 1
     6    2   10 1
     7    2   11 1
     8    3    4 2
     9    3    5 1
    10    6    7 1
    11    6   12 1
    12    6   13 1
    13    7   14 1
    14    7   15 1
    15    7   16 1
