@<TRIPOS>MOLECULE
ZINC01681686
   30    31     0     0     0
SMALL
USER_CHARGES
2-[1-(6-aminopurin-9-yl)-2-oxo-ethoxy]-3-hydroxy-propanal
@<TRIPOS>ATOM
      1 C1          3.1969    3.0661   -0.0128 C.ar      1 <0>         0.3495
      2 N1          3.9808    2.0032   -0.0260 N.ar      1 <0>        -0.5725
      3 C2          3.4744    0.7747   -0.0274 C.ar      1 <0>         0.4507
      4 C3          2.0768    0.6264   -0.0144 C.ar      1 <0>        -0.0608
      5 C4          1.2867    1.7880   -0.0006 C.ar      1 <0>         0.2918
      6 N2          1.8839    2.9755    0.0001 N.ar      1 <0>        -0.5408
      7 N3         -0.0164    1.3590    0.0095 N.pl3     1 <0>        -0.4689
      8 C5          0.0021   -0.0041    0.0020 C.2       1 <0>         0.2909
      9 N4          1.2311   -0.4318   -0.0120 N.2       1 <0>        -0.4535
     10 C6         -1.2091    2.2097    0.0201 C.3       1 <0>         0.2705
     11 H1         -1.0292    3.0292    0.5641 H         1 <0>         0.1033
     12 C7         -1.5535    2.6094   -1.3916 C.2       1 <0>         0.3175
     13 O1         -2.6251    2.3084   -1.8599 O.2       1 <0>        -0.4101
     14 O2         -2.3029    1.4893    0.5915 O.3       1 <0>        -0.3373
     15 C8         -3.2548    2.3157    1.2646 C.3       1 <0>         0.0404
     16 H2         -3.2767    3.2178    0.8337 H         1 <0>         0.0981
     17 C9         -4.6409    1.6740    1.1751 C.3       1 <0>         0.0871
     18 O3         -4.6404    0.4375    1.8913 O.3       1 <0>        -0.5642
     19 C10        -2.8605    2.4597    2.7119 C.2       1 <0>         0.3207
     20 O4         -1.8668    1.9113    3.1245 O.2       1 <0>        -0.4277
     21 N5          4.3038   -0.3330   -0.0417 N.pl3     1 <0>        -0.7427
     22 H3          3.6503    4.0463   -0.0121 H         1 <0>         0.2086
     23 H4         -0.8739   -0.6357    0.0067 H         1 <0>         0.2285
     24 H5         -0.8419    3.1650   -1.9843 H         1 <0>         0.1228
     25 H6         -5.3810    2.3457    1.6101 H         1 <0>         0.0771
     26 H7         -4.8885    1.4885    0.1299 H         1 <0>         0.0741
     27 H8         -5.4892   -0.0256    1.8770 H         1 <0>         0.3889
     28 H9         -3.4665    3.0535    3.3802 H         1 <0>         0.1120
     29 H10         4.1343   -0.8868    0.7735 H         1 <0>         0.3714
     30 H11         5.2669   -0.2177   -0.0506 H         1 <0>         0.3747
@<TRIPOS>BOND
     1    1    6 ar
     2    1    2 ar
     3    1   22 1
     4    2    3 ar
     5    3    4 ar
     6    3   21 1
     7    4    9 1
     8    4    5 ar
     9    5    6 ar
    10    5    7 1
    11    7    8 1
    12    7   10 1
    13    8    9 2
    14    8   23 1
    15   10   11 1
    16   10   12 1
    17   10   14 1
    18   12   13 2
    19   12   24 1
    20   14   15 1
    21   15   16 1
    22   15   17 1
    23   15   19 1
    24   17   18 1
    25   17   25 1
    26   17   26 1
    27   18   27 1
    28   19   20 2
    29   19   28 1
    30   21   29 1
    31   21   30 1
@<TRIPOS>MOLECULE
ZINC01681687
   30    31     0     0     0
SMALL
USER_CHARGES
2-[1-(6-aminopurin-9-yl)-2-oxo-ethoxy]-3-hydroxy-propanal
@<TRIPOS>ATOM
      1 C1         -0.4137   -1.7780   -0.7675 C.ar      1 <0>         0.3552
      2 N1          0.8521   -2.1546   -0.7843 N.ar      1 <0>        -0.5468
      3 C2          1.8344   -1.2733   -0.6284 C.ar      1 <0>         0.4601
      4 C3          1.4979    0.0788   -0.4438 C.ar      1 <0>        -0.0995
      5 C4          0.1372    0.4282   -0.4333 C.ar      1 <0>         0.2941
      6 N2         -0.7756   -0.5241   -0.5973 N.ar      1 <0>        -0.5427
      7 N3          0.0968    1.7857   -0.2392 N.pl3     1 <0>        -0.4908
      8 C5          1.3841    2.2227   -0.1387 C.2       1 <0>         0.2759
      9 N4          2.2045    1.2197   -0.2590 N.2       1 <0>        -0.4602
     10 C6         -1.1086    2.6146   -0.1606 C.3       1 <0>         0.2588
     11 H1         -1.8391    2.0989    0.2871 H         1 <0>         0.1087
     12 C7         -1.5448    2.9999   -1.5507 C.2       1 <0>         0.3422
     13 O1         -1.6958    4.1637   -1.8354 O.2       1 <0>        -0.3959
     14 O2         -0.8269    3.7947    0.5944 O.3       1 <0>        -0.3195
     15 C8         -0.9798    3.6320    2.0059 C.3       1 <0>         0.0212
     16 H2         -0.7450    2.6939    2.2607 H         1 <0>         0.0974
     17 C9         -0.0520    4.6058    2.7350 C.3       1 <0>         0.0873
     18 O3         -0.4610    5.9477    2.4627 O.3       1 <0>        -0.5616
     19 C10        -2.4087    3.9148    2.3922 C.2       1 <0>         0.3256
     20 O4         -3.2332    4.1344    1.5376 O.2       1 <0>        -0.4285
     21 N5          3.1578   -1.6774   -0.6475 N.pl3     1 <0>        -0.7496
     22 H3         -1.1807   -2.5272   -0.8980 H         1 <0>         0.2123
     23 H4          1.6795    3.2497    0.0177 H         1 <0>         0.2265
     24 H5         -1.7224    2.2351   -2.2924 H         1 <0>         0.1294
     25 H6         -0.1025    4.4213    3.8081 H         1 <0>         0.0770
     26 H7          0.9714    4.4606    2.3891 H         1 <0>         0.0681
     27 H8          0.0841    6.6201    2.8938 H         1 <0>         0.3892
     28 H9         -2.6954    3.9212    3.4335 H         1 <0>         0.1128
     29 H10         3.3156   -2.3369    0.0875 H         1 <0>         0.3690
     30 H11         3.8659   -1.0246   -0.5326 H         1 <0>         0.3843
@<TRIPOS>BOND
     1    1    6 ar
     2    1    2 ar
     3    1   22 1
     4    2    3 ar
     5    3    4 ar
     6    3   21 1
     7    4    9 1
     8    4    5 ar
     9    5    6 ar
    10    5    7 1
    11    7    8 1
    12    7   10 1
    13    8    9 2
    14    8   23 1
    15   10   11 1
    16   10   12 1
    17   10   14 1
    18   12   13 2
    19   12   24 1
    20   14   15 1
    21   15   16 1
    22   15   17 1
    23   15   19 1
    24   17   18 1
    25   17   25 1
    26   17   26 1
    27   18   27 1
    28   19   20 2
    29   19   28 1
    30   21   29 1
    31   21   30 1
@<TRIPOS>MOLECULE
ZINC01681688
   30    31     0     0     0
SMALL
USER_CHARGES
2-[1-(6-aminopurin-9-yl)-2-oxo-ethoxy]-3-hydroxy-propanal
@<TRIPOS>ATOM
      1 C1          1.1618   -2.0348    0.2925 C.ar      1 <0>         0.3527
      2 N1          1.1391   -0.7154    0.3469 N.ar      1 <0>        -0.5462
      3 C2         -0.0084   -0.0456    0.3298 C.ar      1 <0>         0.4595
      4 C3         -1.2081   -0.7742    0.2579 C.ar      1 <0>        -0.0955
      5 C4         -1.1302   -2.1756    0.1959 C.ar      1 <0>         0.2932
      6 N2          0.0645   -2.7578    0.2186 N.ar      1 <0>        -0.5433
      7 N3         -2.4251   -2.6236    0.1258 N.pl3     1 <0>        -0.4720
      8 C5         -3.2381   -1.5298    0.1569 C.2       1 <0>         0.2939
      9 N4         -2.5219   -0.4455    0.2268 N.2       1 <0>        -0.4646
     10 C6         -2.8556   -4.0218    0.0490 C.3       1 <0>         0.2660
     11 H1         -2.1947   -4.5450   -0.4891 H         1 <0>         0.1072
     12 C7         -2.9405   -4.5983    1.4388 C.2       1 <0>         0.3152
     13 O1         -3.9690   -5.1024    1.8216 O.2       1 <0>        -0.4051
     14 O2         -4.1393   -4.0914   -0.5748 O.3       1 <0>        -0.3358
     15 C8         -4.3488   -5.2781   -1.3429 C.3       1 <0>         0.0364
     16 H2         -3.8505   -6.0378   -0.9251 H         1 <0>         0.0998
     17 C9         -3.8414   -5.0585   -2.7695 C.3       1 <0>         0.0553
     18 O3         -4.6309   -4.0518   -3.4062 O.3       1 <0>        -0.5599
     19 C10        -5.8204   -5.6010   -1.3773 C.2       1 <0>         0.3533
     20 O4         -6.5975   -4.9470   -0.7241 O.2       1 <0>        -0.4185
     21 N5         -0.0221    1.3371    0.3871 N.pl3     1 <0>        -0.7501
     22 H3          2.1165   -2.5394    0.3090 H         1 <0>         0.2120
     23 H4         -4.3171   -1.5584    0.1189 H         1 <0>         0.2297
     24 H5         -2.0816   -4.5607    2.0925 H         1 <0>         0.1214
     25 H6         -2.7999   -4.7384   -2.7394 H         1 <0>         0.0569
     26 H7         -3.9192   -5.9899   -3.3302 H         1 <0>         0.0743
     27 H8         -4.3649   -3.8602   -4.3159 H         1 <0>         0.3874
     28 H9         -6.1800   -6.4173   -1.9861 H         1 <0>         0.1231
     29 H10         0.4095    1.6398    1.2369 H         1 <0>         0.3691
     30 H11        -0.8661    1.8149    0.3698 H         1 <0>         0.3847
@<TRIPOS>BOND
     1    1    6 ar
     2    1    2 ar
     3    1   22 1
     4    2    3 ar
     5    3    4 ar
     6    3   21 1
     7    4    9 1
     8    4    5 ar
     9    5    6 ar
    10    5    7 1
    11    7    8 1
    12    7   10 1
    13    8    9 2
    14    8   23 1
    15   10   11 1
    16   10   12 1
    17   10   14 1
    18   12   13 2
    19   12   24 1
    20   14   15 1
    21   15   16 1
    22   15   17 1
    23   15   19 1
    24   17   18 1
    25   17   25 1
    26   17   26 1
    27   18   27 1
    28   19   20 2
    29   19   28 1
    30   21   29 1
    31   21   30 1
@<TRIPOS>MOLECULE
ZINC01681689
   30    31     0     0     0
SMALL
USER_CHARGES
2-[1-(6-aminopurin-9-yl)-2-oxo-ethoxy]-3-hydroxy-propanal
@<TRIPOS>ATOM
      1 C1          1.1072    2.0112    0.0023 C.ar      1 <0>         0.3495
      2 N1          2.2931    1.4299   -0.0114 N.ar      1 <0>        -0.5728
      3 C2          2.4106    0.1063   -0.0200 C.ar      1 <0>         0.4508
      4 C3          1.2390   -0.6701   -0.0134 C.ar      1 <0>        -0.0608
      5 C4          0.0021   -0.0041    0.0020 C.ar      1 <0>         0.2917
      6 N2         -0.0159    1.3250    0.0093 N.ar      1 <0>        -0.5408
      7 N3         -0.9561   -0.9859    0.0059 N.pl3     1 <0>        -0.4688
      8 C5         -0.3109   -2.1866   -0.0067 C.2       1 <0>         0.2908
      9 N4          0.9769   -1.9991   -0.0180 N.2       1 <0>        -0.4534
     10 C6         -2.4067   -0.7814    0.0201 C.3       1 <0>         0.2703
     11 H1         -2.6338    0.0325   -0.5146 H         1 <0>         0.1032
     12 C7         -2.8740   -0.5957    1.4408 C.2       1 <0>         0.3180
     13 O1         -3.6783   -1.3604    1.9167 O.2       1 <0>        -0.4103
     14 O2         -3.0541   -1.9212   -0.5490 O.3       1 <0>        -0.3374
     15 C8         -4.2905   -1.6225   -1.2002 C.3       1 <0>         0.0404
     16 H2         -4.7191   -0.8353   -0.7568 H         1 <0>         0.0981
     17 C9         -5.2226   -2.8320   -1.1042 C.3       1 <0>         0.0872
     18 O3         -4.6634   -3.9238   -1.8372 O.3       1 <0>        -0.5641
     19 C10        -4.0304   -1.3026   -2.6497 C.2       1 <0>         0.3200
     20 O4         -2.9025   -1.3278   -3.0806 O.2       1 <0>        -0.4268
     21 N5          3.6575   -0.4937   -0.0346 N.pl3     1 <0>        -0.7423
     22 H3          1.0572    3.0900    0.0082 H         1 <0>         0.2086
     23 H4         -0.7967   -3.1512   -0.0078 H         1 <0>         0.2284
     24 H5         -2.4895    0.2214    2.0332 H         1 <0>         0.1227
     25 H6         -5.3399   -3.1182   -0.0590 H         1 <0>         0.0739
     26 H7         -6.1960   -2.5746   -1.5219 H         1 <0>         0.0770
     27 H8         -5.2026   -4.7263   -1.8200 H         1 <0>         0.3888
     28 H9         -4.8526   -1.0509   -3.3031 H         1 <0>         0.1120
     29 H10         3.7609   -1.0673    0.7780 H         1 <0>         0.3710
     30 H11         4.4588    0.0529   -0.0391 H         1 <0>         0.3748
@<TRIPOS>BOND
     1    1    6 ar
     2    1    2 ar
     3    1   22 1
     4    2    3 ar
     5    3    4 ar
     6    3   21 1
     7    4    9 1
     8    4    5 ar
     9    5    6 ar
    10    5    7 1
    11    7    8 1
    12    7   10 1
    13    8    9 2
    14    8   23 1
    15   10   11 1
    16   10   12 1
    17   10   14 1
    18   12   13 2
    19   12   24 1
    20   14   15 1
    21   15   16 1
    22   15   17 1
    23   15   19 1
    24   17   18 1
    25   17   25 1
    26   17   26 1
    27   18   27 1
    28   19   20 2
    29   19   28 1
    30   21   29 1
    31   21   30 1
@<TRIPOS>MOLECULE
ZINC18150621
   33    35     0     0     0
SMALL
USER_CHARGES
(1R,2R,5R)-5-(4-aminoimidazo[4,5-c]pyridin-1-yl)-3-(hydroxymethyl)cyclopent-3-ene-1,2-diol
@<TRIPOS>ATOM
      1 C1         -2.4765   -1.9201   -0.8130 C.ar      1 <0>        -0.2304
      2 C2         -3.5959   -2.7021   -0.8671 C.ar      1 <0>         0.1535
      3 N1         -4.3351   -2.9271    0.2075 N.ar      1 <0>        -0.5624
      4 C3         -4.0378   -2.4127    1.3891 C.ar      1 <0>         0.4751
      5 C4         -2.9051   -1.5974    1.5337 C.ar      1 <0>        -0.0601
      6 C5         -2.1085   -1.3479    0.4026 C.ar      1 <0>         0.1131
      7 N2         -1.0861   -0.5338    0.8275 N.pl3     1 <0>        -0.4684
      8 C6         -1.2687   -0.3153    2.1601 C.2       1 <0>         0.2808
      9 N3         -2.3373   -0.9344    2.5708 N.2       1 <0>        -0.4814
     10 C7          0.0021   -0.0041    0.0020 C.3       1 <0>         0.1733
     11 H1         -0.0790   -0.3793   -1.0181 H         1 <0>         0.1268
     12 C8          1.3413   -0.3733    0.5964 C.2       1 <0>        -0.1249
     13 C9          2.1542    0.6480    0.5941 C.2       1 <0>        -0.1645
     14 C10         1.4925    1.8686   -0.0022 C.3       1 <0>         0.1093
     15 H2          1.6963    2.7477    0.6092 H         1 <0>         0.0782
     16 C11        -0.0189    1.5421    0.0105 C.3       1 <0>         0.1014
     17 H3         -0.5108    1.9317   -0.8807 H         1 <0>         0.0948
     18 O1         -0.6413    2.0402    1.1965 O.3       1 <0>        -0.5409
     19 O2          1.9458    2.0763   -1.3414 O.3       1 <0>        -0.5501
     20 C12         3.5671    0.6140    1.1171 C.3       1 <0>         0.1263
     21 O3          3.8626   -0.6956    1.6064 O.3       1 <0>        -0.5689
     22 N4         -4.8461   -2.6797    2.4862 N.pl3     1 <0>        -0.8351
     23 H4         -1.8857   -1.7475   -1.7005 H         1 <0>         0.1267
     24 H5         -3.8840   -3.1466   -1.8083 H         1 <0>         0.1603
     25 H6         -0.6232    0.2858    2.7832 H         1 <0>         0.2106
     26 H7          1.5930   -1.3536    0.9733 H         1 <0>         0.1460
     27 H8         -0.6775    3.0052    1.2461 H         1 <0>         0.3898
     28 H9          2.8875    2.2847   -1.4100 H         1 <0>         0.3875
     29 H10         4.2583    0.8659    0.3128 H         1 <0>         0.0608
     30 H11         3.6725    1.3366    1.9263 H         1 <0>         0.0640
     31 H12         4.7578   -0.7910    1.9593 H         1 <0>         0.3887
     32 H13        -4.6277   -2.3026    3.3528 H         1 <0>         0.4145
     33 H14        -5.6292   -3.2434    2.3860 H         1 <0>         0.4054
@<TRIPOS>BOND
     1    1    6 ar
     2    1    2 ar
     3    1   23 1
     4    2    3 ar
     5    2   24 1
     6    3    4 ar
     7    4    5 ar
     8    4   22 1
     9    5    9 1
    10    5    6 ar
    11    6    7 1
    12    7    8 1
    13    7   10 1
    14    8    9 2
    15    8   25 1
    16   10   11 1
    17   10   16 1
    18   10   12 1
    19   12   13 2
    20   12   26 1
    21   13   14 1
    22   13   20 1
    23   14   15 1
    24   14   16 1
    25   14   19 1
    26   16   17 1
    27   16   18 1
    28   18   27 1
    29   19   28 1
    30   20   21 1
    31   20   29 1
    32   20   30 1
    33   21   31 1
    34   22   32 1
    35   22   33 1
@<TRIPOS>MOLECULE
ZINC18150621
   34    36     0     0     0
SMALL
USER_CHARGES
(1R,2R,5R)-5-(4-aminoimidazo[4,5-c]pyridin-1-yl)-3-(hydroxymethyl)cyclopent-3-ene-1,2-diol
@<TRIPOS>ATOM
      1 C1         -2.4765   -1.9201   -0.8130 C.ar      1 <0>        -0.1297
      2 C2         -3.5959   -2.7021   -0.8671 C.ar      1 <0>         0.1199
      3 C3         -4.0378   -2.4127    1.3891 C.ar      1 <0>         0.5379
      4 C4         -2.9051   -1.5974    1.5337 C.ar      1 <0>        -0.0321
      5 C5         -2.1085   -1.3479    0.4026 C.ar      1 <0>         0.1392
      6 N1         -1.0861   -0.5338    0.8275 N.pl3     1 <0>        -0.4392
      7 C6         -1.2687   -0.3153    2.1601 C.2       1 <0>         0.3240
      8 N2         -2.3373   -0.9344    2.5708 N.2       1 <0>        -0.4597
      9 C7          0.0021   -0.0041    0.0020 C.3       1 <0>         0.1648
     10 H1         -0.0790   -0.3793   -1.0181 H         1 <0>         0.1375
     11 C8          1.3413   -0.3733    0.5964 C.2       1 <0>        -0.1506
     12 C9          2.1542    0.6480    0.5941 C.2       1 <0>        -0.1361
     13 C10         1.4925    1.8686   -0.0022 C.3       1 <0>         0.1047
     14 H2          1.6963    2.7477    0.6092 H         1 <0>         0.0857
     15 C11        -0.0189    1.5421    0.0105 C.3       1 <0>         0.1019
     16 H3         -0.5108    1.9317   -0.8807 H         1 <0>         0.1027
     17 O1         -0.6413    2.0402    1.1965 O.3       1 <0>        -0.5506
     18 O2          1.9458    2.0763   -1.3414 O.3       1 <0>        -0.5487
     19 C12         3.5671    0.6140    1.1171 C.3       1 <0>         0.1196
     20 O3          3.8626   -0.6956    1.6064 O.3       1 <0>        -0.5714
     21 N3         -4.8461   -2.6797    2.4862 N.pl3     1 <0>        -0.7998
     22 H4         -1.8857   -1.7475   -1.7005 H         1 <0>         0.1764
     23 H5         -3.8840   -3.1466   -1.8083 H         1 <0>         0.1979
     24 H6         -0.6232    0.2858    2.7832 H         1 <0>         0.2343
     25 H7          1.5930   -1.3536    0.9733 H         1 <0>         0.1516
     26 H8         -0.6775    3.0052    1.2461 H         1 <0>         0.4014
     27 H9          2.8875    2.2847   -1.4100 H         1 <0>         0.3944
     28 H10         4.2583    0.8659    0.3128 H         1 <0>         0.0674
     29 H11         3.6725    1.3366    1.9263 H         1 <0>         0.0704
     30 H12         4.7578   -0.7910    1.9593 H         1 <0>         0.3946
     31 H13        -4.6277   -2.3026    3.3528 H         1 <0>         0.4439
     32 H14        -5.6292   -3.2434    2.3860 H         1 <0>         0.4235
     33 N4         -4.4027   -2.9753    0.2005 N.ar      1 <0>        -0.5476
     34 H15        -5.2355   -3.5696    0.1138 H         1 <0>         0.4720
@<TRIPOS>BOND
     1    1    5 ar
     2    1    2 ar
     3    1   22 1
     4    2   23 1
     5    2   33 ar
     6    3    4 ar
     7    3   21 1
     8    3   33 ar
     9    4    8 1
    10    4    5 ar
    11    5    6 1
    12    6    7 1
    13    6    9 1
    14    7    8 2
    15    7   24 1
    16    9   10 1
    17    9   15 1
    18    9   11 1
    19   11   12 2
    20   11   25 1
    21   12   13 1
    22   12   19 1
    23   13   14 1
    24   13   15 1
    25   13   18 1
    26   15   16 1
    27   15   17 1
    28   17   26 1
    29   18   27 1
    30   19   20 1
    31   19   28 1
    32   19   29 1
    33   20   30 1
    34   21   31 1
    35   21   32 1
    36   33   34 1
@<TRIPOS>MOLECULE
ZINC29241818
   33    35     0     0     0
SMALL
USER_CHARGES
(1R,2R,5S)-5-(4-aminoimidazo[4,5-c]pyridin-1-yl)-3-(hydroxymethyl)cyclopent-3-ene-1,2-diol
@<TRIPOS>ATOM
      1 C1          1.2763    4.4243    0.0137 C.ar      1 <0>        -0.2381
      2 C2          0.5008    5.5494    0.0272 C.ar      1 <0>         0.1585
      3 N1         -0.8209    5.4783    0.0394 N.ar      1 <0>        -0.5689
      4 C3         -1.4657    4.3237    0.0393 C.ar      1 <0>         0.4837
      5 C4         -0.7463    3.1191    0.0260 C.ar      1 <0>        -0.0677
      6 C5          0.6582    3.1759    0.0128 C.ar      1 <0>         0.1176
      7 N2          1.0931    1.8723    0.0017 N.pl3     1 <0>        -0.4770
      8 C6         -0.0126    1.0758    0.0080 C.2       1 <0>         0.2392
      9 N3         -1.0888    1.8075    0.0165 N.2       1 <0>        -0.4761
     10 C7          2.4872    1.4223   -0.0133 C.3       1 <0>         0.1819
     11 H1          3.0784    2.3499   -0.0109 H         1 <0>         0.1168
     12 C8          2.7719    0.5509    1.1878 C.2       1 <0>        -0.1347
     13 C9          2.7898   -0.7121    0.8586 C.2       1 <0>        -0.1117
     14 C10         2.5200   -0.8935   -0.6171 C.3       1 <0>         0.1202
     15 H2          3.1153   -1.7000   -1.0700 H         1 <0>         0.0778
     16 C11         2.7447    0.5070   -1.2328 C.3       1 <0>         0.0835
     17 H3          2.1708    0.7361   -2.1428 H         1 <0>         0.0851
     18 O1          4.0850    0.6497   -1.7074 O.3       1 <0>        -0.5899
     19 O2          1.1724   -1.3196   -0.8280 O.3       1 <0>        -0.5917
     20 C12         3.0455   -1.8410    1.8235 C.3       1 <0>         0.1355
     21 O3          3.2614   -1.3094    3.1322 O.3       1 <0>        -0.6010
     22 N4         -2.8541    4.3035    0.0530 N.pl3     1 <0>        -0.8569
     23 H4          2.3535    4.5019    0.0041 H         1 <0>         0.1264
     24 H5          0.9771    6.5186    0.0282 H         1 <0>         0.1592
     25 H6          0.0021   -0.0041    0.0020 H         1 <0>         0.2292
     26 H7          2.9517    0.8500    2.2310 H         1 <0>         0.1549
     27 H8          4.4272    0.0639   -2.5733 H         1 <0>         0.4210
     28 H9          0.8061   -1.5001   -1.8494 H         1 <0>         0.4187
     29 H10         2.1752   -2.5135    1.8399 H         1 <0>         0.0637
     30 H11         3.9362   -2.4018    1.5040 H         1 <0>         0.0589
     31 H12         3.4651   -1.9871    3.9744 H         1 <0>         0.4198
     32 H13        -3.3902    3.3430    0.0529 H         1 <0>         0.4365
     33 H14        -3.4178    5.2480    0.0639 H         1 <0>         0.4255
@<TRIPOS>BOND
     1    1    6 ar
     2    1    2 ar
     3    1   23 1
     4    2    3 ar
     5    2   24 1
     6    3    4 ar
     7    4    5 ar
     8    4   22 1
     9    5    9 1
    10    5    6 ar
    11    6    7 1
    12    7    8 1
    13    7   10 1
    14    8    9 2
    15    8   25 1
    16   10   11 1
    17   10   16 1
    18   10   12 1
    19   12   13 2
    20   12   26 1
    21   13   14 1
    22   13   20 1
    23   14   15 1
    24   14   16 1
    25   14   19 1
    26   16   17 1
    27   16   18 1
    28   18   27 1
    29   19   28 1
    30   20   21 1
    31   20   29 1
    32   20   30 1
    33   21   31 1
    34   22   32 1
    35   22   33 1
@<TRIPOS>MOLECULE
ZINC29241824
   33    35     0     0     0
SMALL
USER_CHARGES
(1R,2S,5R)-5-(4-aminoimidazo[4,5-c]pyridin-1-yl)-3-(hydroxymethyl)cyclopent-3-ene-1,2-diol
@<TRIPOS>ATOM
      1 C1         -4.3002    0.8656   -0.4281 C.ar      1 <0>        -0.2394
      2 C2         -5.5707    0.3739   -0.3204 C.ar      1 <0>         0.1554
      3 N1         -6.0635   -0.0201    0.8431 N.ar      1 <0>        -0.5702
      4 C3         -5.3623    0.0381    1.9629 C.ar      1 <0>         0.4825
      5 C4         -4.0486    0.5306    1.9424 C.ar      1 <0>        -0.0639
      6 C5         -3.5109    0.9583    0.7160 C.ar      1 <0>         0.1113
      7 N2         -2.2311    1.3799    0.9863 N.pl3     1 <0>        -0.4723
      8 C6         -2.0237    1.2151    2.3230 C.2       1 <0>         0.2813
      9 N3         -3.0888    0.7178    2.8813 N.2       1 <0>        -0.4857
     10 C7         -1.2701    1.9135    0.0179 C.3       1 <0>         0.1813
     11 H1         -1.8021    1.8870   -0.9445 H         1 <0>         0.1245
     12 C8         -0.0126    1.0758    0.0080 C.2       1 <0>        -0.1508
     13 C9          1.0536    1.8287    0.0018 C.2       1 <0>        -0.1074
     14 C10         0.6850    3.2940    0.0127 C.3       1 <0>         0.1203
     15 H2          0.8976    3.8008   -0.9402 H         1 <0>         0.0812
     16 C11        -0.7980    3.3231    0.4498 C.3       1 <0>         0.0809
     17 H3         -1.3983    4.1696    0.0850 H         1 <0>         0.0838
     18 O1         -0.9127    3.4980    1.8634 O.3       1 <0>        -0.5778
     19 O2          1.4948    4.0041    0.9518 O.3       1 <0>        -0.5851
     20 C12         2.4667    1.3053   -0.0145 C.3       1 <0>         0.1375
     21 O3          2.4454   -0.1235   -0.0213 O.3       1 <0>        -0.6031
     22 N4         -5.9257   -0.3884    3.1583 N.pl3     1 <0>        -0.8576
     23 H4         -3.9149    1.1820   -1.3862 H         1 <0>         0.1238
     24 H5         -6.1865    0.3048   -1.2049 H         1 <0>         0.1575
     25 H6         -1.1095    1.4611    2.8427 H         1 <0>         0.2107
     26 H7          0.0876   -0.0196    0.0057 H         1 <0>         0.1545
     27 H8         -0.6153    4.4508    2.3256 H         1 <0>         0.4155
     28 H9          1.3579    5.0870    1.0879 H         1 <0>         0.4090
     29 H10         2.9819    1.6686   -0.9159 H         1 <0>         0.0567
     30 H11         2.9994    1.6598    0.8802 H         1 <0>         0.0653
     31 H12         3.3897   -0.6876   -0.0332 H         1 <0>         0.4190
     32 H13        -5.3422   -0.3399    4.0895 H         1 <0>         0.4365
     33 H14        -6.9555   -0.7748    3.1740 H         1 <0>         0.4246
@<TRIPOS>BOND
     1    1    6 ar
     2    1    2 ar
     3    1   23 1
     4    2    3 ar
     5    2   24 1
     6    3    4 ar
     7    4    5 ar
     8    4   22 1
     9    5    9 1
    10    5    6 ar
    11    6    7 1
    12    7    8 1
    13    7   10 1
    14    8    9 2
    15    8   25 1
    16   10   11 1
    17   10   16 1
    18   10   12 1
    19   12   13 2
    20   12   26 1
    21   13   14 1
    22   13   20 1
    23   14   15 1
    24   14   16 1
    25   14   19 1
    26   16   17 1
    27   16   18 1
    28   18   27 1
    29   19   28 1
    30   20   21 1
    31   20   29 1
    32   20   30 1
    33   21   31 1
    34   22   32 1
    35   22   33 1
@<TRIPOS>MOLECULE
ZINC29241832
   33    35     0     0     0
SMALL
USER_CHARGES
(1R,2S,5S)-5-(4-aminoimidazo[4,5-c]pyridin-1-yl)-3-(hydroxymethyl)cyclopent-3-ene-1,2-diol
@<TRIPOS>ATOM
      1 C1         -3.6674    1.8443    2.1930 C.ar      1 <0>        -0.2363
      2 C2         -4.9438    1.6546    2.6430 C.ar      1 <0>         0.1604
      3 N1         -5.3209    0.5107    3.1917 N.ar      1 <0>        -0.5689
      4 C3         -4.4923   -0.5097    3.3368 C.ar      1 <0>         0.4853
      5 C4         -3.1628   -0.4002    2.9018 C.ar      1 <0>        -0.0697
      6 C5         -2.7450    0.8077    2.3165 C.ar      1 <0>         0.1256
      7 N2         -1.4211    0.6364    1.9905 N.pl3     1 <0>        -0.4792
      8 C6         -1.0717   -0.6268    2.3634 C.2       1 <0>         0.2345
      9 N3         -2.0911   -1.2304    2.9022 N.2       1 <0>        -0.4676
     10 C7         -0.5486    1.6263    1.3541 C.3       1 <0>         0.1861
     11 H1         -1.1718    2.5282    1.2637 H         1 <0>         0.1240
     12 C8          0.6860    1.8572    2.1941 C.2       1 <0>        -0.1366
     13 C9          1.7611    1.8758    1.4542 C.2       1 <0>        -0.1153
     14 C10         1.4228    1.6605   -0.0026 C.3       1 <0>         0.1203
     15 H2          2.1647    1.0452   -0.5328 H         1 <0>         0.0715
     16 C11        -0.0127    1.0858    0.0080 C.3       1 <0>         0.0818
     17 H3         -0.1040    0.0013   -0.1515 H         1 <0>         0.0873
     18 O1         -0.7759    1.5917   -1.0891 O.3       1 <0>        -0.5855
     19 O2          1.4570    2.9015   -0.7103 O.3       1 <0>        -0.5792
     20 C12         3.1567    2.0843    1.9835 C.3       1 <0>         0.1351
     21 O3          3.1077    2.2552    3.4014 O.3       1 <0>        -0.6015
     22 N4         -4.9376   -1.6888    3.9197 N.pl3     1 <0>        -0.8567
     23 H4         -3.3779    2.7847    1.7479 H         1 <0>         0.1267
     24 H5         -5.6612    2.4564    2.5486 H         1 <0>         0.1597
     25 H6         -0.0918   -1.0621    2.2339 H         1 <0>         0.2085
     26 H7          0.7645    2.0002    3.2819 H         1 <0>         0.1576
     27 H8         -0.5199    1.2997   -2.1183 H         1 <0>         0.4146
     28 H9          1.2341    2.9269   -1.7872 H         1 <0>         0.4114
     29 H10         3.7756    1.2078    1.7409 H         1 <0>         0.0603
     30 H11         3.5941    2.9813    1.5209 H         1 <0>         0.0633
     31 H12         4.0360    2.4205    3.9679 H         1 <0>         0.4204
     32 H13        -4.2481   -2.5374    4.0402 H         1 <0>         0.4365
     33 H14        -5.9798   -1.7743    4.2609 H         1 <0>         0.4259
@<TRIPOS>BOND
     1    1    6 ar
     2    1    2 ar
     3    1   23 1
     4    2    3 ar
     5    2   24 1
     6    3    4 ar
     7    4    5 ar
     8    4   22 1
     9    5    9 1
    10    5    6 ar
    11    6    7 1
    12    7    8 1
    13    7   10 1
    14    8    9 2
    15    8   25 1
    16   10   11 1
    17   10   16 1
    18   10   12 1
    19   12   13 2
    20   12   26 1
    21   13   14 1
    22   13   20 1
    23   14   15 1
    24   14   16 1
    25   14   19 1
    26   16   17 1
    27   16   18 1
    28   18   27 1
    29   19   28 1
    30   20   21 1
    31   20   29 1
    32   20   30 1
    33   21   31 1
    34   22   32 1
    35   22   33 1
@<TRIPOS>MOLECULE
ZINC01683110
   35    37     0     0     0
SMALL
USER_CHARGES

@<TRIPOS>ATOM
      1 C1         -0.0178    1.4608    0.0101 C.3       1 <0>         0.0858
      2 N1          0.0021   -0.0041    0.0020 N.am      1 <0>        -0.7307
      3 C2          0.5851   -0.6645   -1.0180 C.2       1 <0>         0.5150
      4 O1          1.0933   -0.0461   -1.9292 O.2       1 <0>        -0.5025
      5 C3          0.6055   -2.1713   -1.0263 C.3       1 <0>         0.0318
      6 H1         -0.4062   -2.5682   -0.9422 H         1 <0>         0.1226
      7 C4          1.5005   -2.7114    0.1182 C.3       1 <0>         0.0507
      8 H2          2.3775   -2.0793    0.2574 H         1 <0>         0.0950
      9 C5          1.9044   -4.1068   -0.4169 C.3       1 <0>         0.0831
     10 H3          2.9518   -4.3118   -0.1954 H         1 <0>         0.0900
     11 C6          1.6847   -4.0058   -1.9388 C.3       1 <0>         0.3141
     12 H4          0.9189   -4.7160   -2.2506 H         1 <0>         0.1319
     13 O2          1.2474   -2.6645   -2.2218 O.3       1 <0>        -0.3270
     14 N2          2.9388   -4.2849   -2.6427 N.pl3     1 <0>        -0.4754
     15 C7          3.8437   -3.3616   -3.0753 C.2       1 <0>         0.2663
     16 N3          4.8419   -3.9575   -3.6601 N.2       1 <0>        -0.4588
     17 C8          4.6419   -5.2972   -3.6401 C.ar      1 <0>        -0.1080
     18 C9          3.4209   -5.5237   -2.9822 C.ar      1 <0>         0.3101
     19 N4          2.9940   -6.7723   -2.8248 N.ar      1 <0>        -0.5540
     20 C10         3.7034   -7.7857   -3.2750 C.ar      1 <0>         0.3667
     21 N5          4.8573   -7.6228   -3.8960 N.ar      1 <0>        -0.5907
     22 C11         5.3602   -6.4108   -4.1073 C.ar      1 <0>         0.5098
     23 N6          6.5708   -6.2501   -4.7583 N.pl3     1 <0>        -0.8163
     24 O3          1.0679   -5.1196    0.1458 O.3       1 <0>        -0.5315
     25 O4          0.7592   -2.8258    1.3345 O.3       1 <0>        -0.5363
     26 H5          1.0048    1.8381    0.0023 H         1 <0>         0.0653
     27 H6         -0.5450    1.8219   -0.8730 H         1 <0>         0.0657
     28 H7         -0.5280    1.8123    0.9069 H         1 <0>         0.0830
     29 H8         -0.4044   -0.4986    0.7308 H         1 <0>         0.3997
     30 H9          3.7463   -2.2932   -2.9513 H         1 <0>         0.2250
     31 H10         3.3278   -8.7880   -3.1306 H         1 <0>         0.2070
     32 H11         6.9329   -5.3609   -4.8966 H         1 <0>         0.4196
     33 H12         7.0573   -7.0267   -5.0762 H         1 <0>         0.4114
     34 H13         1.1247   -5.1864    1.1088 H         1 <0>         0.3970
     35 H14         0.4078   -1.9863    1.6614 H         1 <0>         0.3845
@<TRIPOS>BOND
     1    1    2 1
     2    1   26 1
     3    1   27 1
     4    1   28 1
     5    2    3 am
     6    2   29 1
     7    3    4 2
     8    3    5 1
     9    5    6 1
    10    5   13 1
    11    5    7 1
    12    7    8 1
    13    7    9 1
    14    7   25 1
    15    9   10 1
    16    9   11 1
    17    9   24 1
    18   11   12 1
    19   11   13 1
    20   11   14 1
    21   14   18 1
    22   14   15 1
    23   15   16 2
    24   15   30 1
    25   16   17 1
    26   17   22 ar
    27   17   18 ar
    28   18   19 ar
    29   19   20 ar
    30   20   21 ar
    31   20   31 1
    32   21   22 ar
    33   22   23 1
    34   23   32 1
    35   23   33 1
    36   24   34 1
    37   25   35 1
@<TRIPOS>MOLECULE
ZINC29414236
   31    32     0     0     0
SMALL
USER_CHARGES
(Z,2R)-5-(4-aminoimidazo[4,5-c]pyridin-1-yl)pent-3-ene-1,2-diol
@<TRIPOS>ATOM
      1 C1          0.0887    4.3757    0.1132 C.ar      1 <0>        -0.2389
      2 C2          1.3175    3.7778    0.1285 C.ar      1 <0>         0.1610
      3 N1          1.4491    2.4648    0.0256 N.ar      1 <0>        -0.5693
      4 C3          0.4081    1.6584   -0.0968 C.ar      1 <0>         0.4858
      5 C4         -0.8902    2.1896   -0.1263 C.ar      1 <0>        -0.0698
      6 C5         -1.0489    3.5817   -0.0133 C.ar      1 <0>         0.1213
      7 N2         -2.4018    3.8175   -0.0657 N.pl3     1 <0>        -0.4787
      8 C6         -3.0183    2.6112   -0.2130 C.2       1 <0>         0.2366
      9 N3         -2.1321    1.6586   -0.2424 N.2       1 <0>        -0.4687
     10 C7         -3.0587    5.1249    0.0083 C.3       1 <0>         0.1265
     11 C8         -3.0983    5.7456   -1.3644 C.2       1 <0>        -0.1631
     12 C9         -4.2340    6.1743   -1.8568 C.2       1 <0>        -0.1248
     13 C10        -5.4641    6.2169   -0.9873 C.3       1 <0>         0.1388
     14 H1         -5.1985    6.0280    0.0633 H         1 <0>         0.0667
     15 C11        -6.4884    5.2040   -1.5027 C.3       1 <0>         0.0551
     16 O1         -7.6052    5.1607   -0.6123 O.3       1 <0>        -0.6056
     17 O2         -6.0299    7.5285   -1.0265 O.3       1 <0>        -0.5912
     18 N4          0.6002    0.2872   -0.2019 N.pl3     1 <0>        -0.8562
     19 H2          0.0008    5.4488    0.1976 H         1 <0>         0.1274
     20 H3          2.2013    4.3907    0.2264 H         1 <0>         0.1596
     21 H4         -4.0860    2.4663   -0.2866 H         1 <0>         0.2106
     22 H5         -4.0850    4.9988    0.3835 H         1 <0>         0.1094
     23 H6         -2.4967    5.7795    0.6907 H         1 <0>         0.1033
     24 H7         -2.1736    5.8387   -1.9529 H         1 <0>         0.1302
     25 H8         -4.2898    6.5032   -2.9050 H         1 <0>         0.1294
     26 H9         -6.8295    5.5048   -2.5043 H         1 <0>         0.0553
     27 H10        -6.0241    4.2083   -1.5572 H         1 <0>         0.0491
     28 H11        -8.4482    4.4853   -0.8199 H         1 <0>         0.4176
     29 H12        -6.9391    7.7528   -0.4494 H         1 <0>         0.4192
     30 H13        -0.2659   -0.3833   -0.3037 H         1 <0>         0.4369
     31 H14         1.6184   -0.1285   -0.1834 H         1 <0>         0.4264
@<TRIPOS>BOND
     1    1    6 ar
     2    1    2 ar
     3    1   19 1
     4    2    3 ar
     5    2   20 1
     6    3    4 ar
     7    4    5 ar
     8    4   18 1
     9    5    9 1
    10    5    6 ar
    11    6    7 1
    12    7    8 1
    13    7   10 1
    14    8    9 2
    15    8   21 1
    16   10   11 1
    17   10   22 1
    18   10   23 1
    19   11   12 2
    20   11   24 1
    21   12   13 1
    22   12   25 1
    23   13   14 1
    24   13   15 1
    25   13   17 1
    26   15   16 1
    27   15   26 1
    28   15   27 1
    29   16   28 1
    30   17   29 1
    31   18   30 1
    32   18   31 1
@<TRIPOS>MOLECULE
ZINC13308113
   28    29     0     0     0
SMALL
USER_CHARGES
9-(3-methylbut-2-enyl)purin-6-amine
@<TRIPOS>ATOM
      1 C1          5.1097    2.9460   -1.1001 C.3       1 <0>        -0.1304
      2 C2          4.7237    1.7717   -1.9621 C.2       1 <0>        -0.0952
      3 C3          4.2199    0.6940   -1.4136 C.2       1 <0>        -0.2000
      4 C4          3.9151    0.6717    0.0621 C.3       1 <0>         0.1427
      5 N1          2.5140    0.2951    0.2657 N.pl3     1 <0>        -0.4673
      6 C5          1.4645    1.1497    0.4282 C.2       1 <0>         0.2623
      7 N2          0.3623    0.4757    0.5847 N.2       1 <0>        -0.4574
      8 C6          0.6336   -0.8506    0.5326 C.ar      1 <0>        -0.0708
      9 C7          2.0175   -0.9824    0.3273 C.ar      1 <0>         0.2906
     10 N3          2.5440   -2.1992    0.2375 N.ar      1 <0>        -0.5367
     11 C8          1.7833   -3.2687    0.3398 C.ar      1 <0>         0.3449
     12 N4          0.4791   -3.1950    0.5328 N.ar      1 <0>        -0.5762
     13 C9         -0.1364   -2.0214    0.6348 C.ar      1 <0>         0.4471
     14 N5         -1.5037   -1.9543    0.8375 N.pl3     1 <0>        -0.7441
     15 C10         4.9174    1.8371   -3.4552 C.3       1 <0>        -0.1236
     16 H1          5.8011    2.6158   -0.3248 H         1 <0>         0.0713
     17 H2          5.5902    3.7063   -1.7157 H         1 <0>         0.0694
     18 H3          4.2168    3.3651   -0.6361 H         1 <0>         0.0709
     19 H4          4.0229   -0.1784   -2.0190 H         1 <0>         0.1158
     20 H5          4.0904    1.6611    0.4843 H         1 <0>         0.1058
     21 H6          4.5617   -0.0538    0.5557 H         1 <0>         0.1020
     22 H7          1.5370    2.2273    0.4270 H         1 <0>         0.2236
     23 H8          2.2430   -4.2429    0.2626 H         1 <0>         0.2056
     24 H9         -1.6904   -1.4753    1.6952 H         1 <0>         0.3695
     25 H10        -2.0244   -2.7697    0.9064 H         1 <0>         0.3733
     26 H11         3.9552    1.7140   -3.9522 H         1 <0>         0.0697
     27 H12         5.3443    2.8033   -3.7242 H         1 <0>         0.0669
     28 H13         5.5930    1.0414   -3.7692 H         1 <0>         0.0702
@<TRIPOS>BOND
     1    1    2 1
     2    1   16 1
     3    1   17 1
     4    1   18 1
     5    2    3 2
     6    2   15 1
     7    3    4 1
     8    3   19 1
     9    4    5 1
    10    4   20 1
    11    4   21 1
    12    5    9 1
    13    5    6 1
    14    6    7 2
    15    6   22 1
    16    7    8 1
    17    8   13 ar
    18    8    9 ar
    19    9   10 ar
    20   10   11 ar
    21   11   12 ar
    22   11   23 1
    23   12   13 ar
    24   13   14 1
    25   14   24 1
    26   14   25 1
    27   15   26 1
    28   15   27 1
    29   15   28 1
@<TRIPOS>MOLECULE
ZINC29464408
   29    30     0     0     0
SMALL
USER_CHARGES
(Z)-4-(6-aminopurin-9-yl)-2-methyl-but-2-en-1-ol
@<TRIPOS>ATOM
      1 C1         -2.0354    3.7715    3.4277 C.3       1 <0>        -0.1182
      2 C2         -1.7469    3.6026    1.9582 C.2       1 <0>        -0.0961
      3 C3         -1.7496    2.4068    1.4234 C.2       1 <0>        -0.1781
      4 C4         -1.2969    2.2176   -0.0015 C.3       1 <0>         0.1342
      5 N1         -0.2660    1.1779   -0.0524 N.pl3     1 <0>        -0.4669
      6 C5          1.0824    1.3776   -0.0363 C.2       1 <0>         0.2464
      7 N2          1.7019    0.2349   -0.0999 N.2       1 <0>        -0.4625
      8 C6          0.7931   -0.7679   -0.1607 C.ar      1 <0>        -0.1172
      9 C7         -0.4805   -0.1749   -0.1310 C.ar      1 <0>         0.3023
     10 N3         -1.5566   -0.9531   -0.1794 N.ar      1 <0>        -0.5650
     11 C8         -1.4354   -2.2617   -0.2551 C.ar      1 <0>         0.3659
     12 N4         -0.2608   -2.8641   -0.2858 N.ar      1 <0>        -0.6002
     13 C9          0.8709   -2.1685   -0.2415 C.ar      1 <0>         0.5145
     14 N5          2.0973   -2.8088   -0.2746 N.pl3     1 <0>        -0.8410
     15 C10        -1.4553    4.8094    1.1040 C.3       1 <0>         0.1085
     16 O1         -2.5063    5.7657    1.2559 O.3       1 <0>        -0.5934
     17 H1         -1.9885    4.8387    3.6903 H         1 <0>         0.0700
     18 H2         -1.2884    3.2164    4.0142 H         1 <0>         0.0681
     19 H3         -3.0398    3.3827    3.6512 H         1 <0>         0.0707
     20 H4         -2.0823    1.5407    2.0144 H         1 <0>         0.1254
     21 H5         -2.1538    1.9150   -0.6213 H         1 <0>         0.1051
     22 H6         -0.8837    3.1627   -0.3835 H         1 <0>         0.1084
     23 H7          1.5653    2.3420    0.0209 H         1 <0>         0.2194
     24 H8         -2.3302   -2.8653   -0.2932 H         1 <0>         0.2025
     25 H9          2.1434   -3.9060   -0.3379 H         1 <0>         0.4319
     26 H10         3.0261   -2.2205   -0.2376 H         1 <0>         0.4420
     27 H11        -0.5020    5.2593    1.4182 H         1 <0>         0.0545
     28 H12        -1.3868    4.5043    0.0494 H         1 <0>         0.0543
     29 H13        -2.4676    6.7175    0.7058 H         1 <0>         0.4145
@<TRIPOS>BOND
     1    1    2 1
     2    1   17 1
     3    1   18 1
     4    1   19 1
     5    2    3 2
     6    2   15 1
     7    3    4 1
     8    3   20 1
     9    4    5 1
    10    4   21 1
    11    4   22 1
    12    5    9 1
    13    5    6 1
    14    6    7 2
    15    6   23 1
    16    7    8 1
    17    8   13 ar
    18    8    9 ar
    19    9   10 ar
    20   10   11 ar
    21   11   12 ar
    22   11   24 1
    23   12   13 ar
    24   13   14 1
    25   14   25 1
    26   14   26 1
    27   15   16 1
    28   15   27 1
    29   15   28 1
    30   16   29 1
@<TRIPOS>MOLECULE
ZINC29411711
   30    31     0     0     0
SMALL
USER_CHARGES
(Z,2R)-5-(6-aminopurin-9-yl)pent-3-ene-1,2-diol
@<TRIPOS>ATOM
      1 C1         -0.1595   -0.3864    0.1180 C.ar      1 <0>         0.3667
      2 N1         -0.3438    0.9188    0.0366 N.ar      1 <0>        -0.6001
      3 C2          0.6827    1.7517   -0.0984 C.ar      1 <0>         0.5151
      4 C3          1.9796    1.2128   -0.1533 C.ar      1 <0>        -0.1169
      5 C4          2.1226   -0.1819   -0.0628 C.ar      1 <0>         0.3018
      6 N2          1.0358   -0.9354    0.0708 N.ar      1 <0>        -0.5651
      7 N3          3.4696   -0.4300   -0.1429 N.pl3     1 <0>        -0.4668
      8 C5          4.0992    0.7717   -0.2756 C.2       1 <0>         0.2464
      9 N4          3.2233    1.7342   -0.2815 N.2       1 <0>        -0.4613
     10 C6          4.1132   -1.7452   -0.0946 C.3       1 <0>         0.1281
     11 C7          4.1205   -2.3518   -1.4741 C.2       1 <0>        -0.1571
     12 C8          5.2421   -2.7877   -1.9920 C.2       1 <0>        -0.1277
     13 C9          6.4875   -2.8529   -1.1460 C.3       1 <0>         0.1392
     14 H1          6.2435   -2.6722   -0.0887 H         1 <0>         0.0667
     15 C10         7.5132   -1.8458   -1.6700 C.3       1 <0>         0.0552
     16 O1          8.6468   -1.8241   -0.8001 O.3       1 <0>        -0.6055
     17 O2          7.0379   -4.1701   -1.2092 O.3       1 <0>        -0.5909
     18 N5          0.4796    3.1180   -0.1833 N.pl3     1 <0>        -0.8408
     19 H2         -1.0219   -1.0274    0.2271 H         1 <0>         0.2029
     20 H3          5.1674    0.9054   -0.3630 H         1 <0>         0.2184
     21 H4          5.1476   -1.6343    0.2627 H         1 <0>         0.1098
     22 H5          3.5567   -2.4008    0.5913 H         1 <0>         0.1082
     23 H6          3.1841   -2.4286   -2.0462 H         1 <0>         0.1300
     24 H7          5.2748   -3.1061   -3.0444 H         1 <0>         0.1292
     25 H8          7.8323   -2.1397   -2.6809 H         1 <0>         0.0552
     26 H9          7.0590   -0.8446   -1.7055 H         1 <0>         0.0491
     27 H10         9.4933   -1.1558   -1.0164 H         1 <0>         0.4171
     28 H11         7.9550   -4.4103   -0.6514 H         1 <0>         0.4188
     29 H12         1.3387    3.7959   -0.2949 H         1 <0>         0.4421
     30 H13        -0.5409    3.5261   -0.1392 H         1 <0>         0.4321
@<TRIPOS>BOND
     1    1    6 ar
     2    1    2 ar
     3    1   19 1
     4    2    3 ar
     5    3    4 ar
     6    3   18 1
     7    4    9 1
     8    4    5 ar
     9    5    6 ar
    10    5    7 1
    11    7    8 1
    12    7   10 1
    13    8    9 2
    14    8   20 1
    15   10   11 1
    16   10   21 1
    17   10   22 1
    18   11   12 2
    19   11   23 1
    20   12   13 1
    21   12   24 1
    22   13   14 1
    23   13   15 1
    24   13   17 1
    25   15   16 1
    26   15   25 1
    27   15   26 1
    28   16   27 1
    29   17   28 1
    30   18   29 1
    31   18   30 1
@<TRIPOS>MOLECULE
ZINC29463466
   26    27     0     0     0
SMALL
USER_CHARGES
(Z)-4-(6-aminopurin-9-yl)but-2-en-1-ol
@<TRIPOS>ATOM
      1 C1         -0.2722   -0.8105    0.2566 C.ar      1 <0>         0.3663
      2 N1         -0.5020    0.4892    0.3028 N.ar      1 <0>        -0.6003
      3 C2          0.4959    1.3661    0.2697 C.ar      1 <0>         0.5149
      4 C3          1.8119    0.8801    0.1838 C.ar      1 <0>        -0.1170
      5 C4          2.0034   -0.5109    0.1369 C.ar      1 <0>         0.3018
      6 N2          0.9425   -1.3108    0.1756 N.ar      1 <0>        -0.5652
      7 N3          3.3594   -0.7034    0.0559 N.pl3     1 <0>        -0.4674
      8 C5          3.9474    0.5264    0.0549 C.2       1 <0>         0.2464
      9 N4          3.0378    1.4540    0.1300 N.2       1 <0>        -0.4621
     10 C6          4.0489   -1.9940   -0.0163 C.3       1 <0>         0.1315
     11 C7          4.0971   -2.4583   -1.4491 C.2       1 <0>        -0.1721
     12 C8          5.2427   -2.7874   -1.9928 C.2       1 <0>        -0.1295
     13 C9          6.4875   -2.8529   -1.1460 C.3       1 <0>         0.1026
     14 O1          7.2248   -4.0324   -1.4734 O.3       1 <0>        -0.5970
     15 N5          0.2452    2.7262    0.3182 N.pl3     1 <0>        -0.8408
     16 H1         -1.1125   -1.4883    0.2861 H         1 <0>         0.2027
     17 H2          5.0112    0.7046   -0.0000 H         1 <0>         0.2198
     18 H3          5.0736   -1.8842    0.3682 H         1 <0>         0.1079
     19 H4          3.5067   -2.7339    0.5909 H         1 <0>         0.1063
     20 H5          3.1704   -2.5209   -2.0385 H         1 <0>         0.1263
     21 H6          5.2960   -3.0159   -3.0675 H         1 <0>         0.1265
     22 H7          7.1094   -1.9663   -1.3391 H         1 <0>         0.0557
     23 H8          6.2067   -2.8793   -0.0828 H         1 <0>         0.0533
     24 H9          8.1694   -4.2523   -0.9545 H         1 <0>         0.4153
     25 H10         1.0809    3.4409    0.2900 H         1 <0>         0.4421
     26 H11        -0.7898    3.0926    0.3850 H         1 <0>         0.4321
@<TRIPOS>BOND
     1    1    6 ar
     2    1    2 ar
     3    1   16 1
     4    2    3 ar
     5    3    4 ar
     6    3   15 1
     7    4    9 1
     8    4    5 ar
     9    5    6 ar
    10    5    7 1
    11    7    8 1
    12    7   10 1
    13    8    9 2
    14    8   17 1
    15   10   11 1
    16   10   18 1
    17   10   19 1
    18   11   12 2
    19   11   20 1
    20   12   13 1
    21   12   21 1
    22   13   14 1
    23   13   22 1
    24   13   23 1
    25   14   24 1
    26   15   25 1
    27   15   26 1
@<TRIPOS>MOLECULE
ZINC00370772
   26    27     0     0     0
SMALL
USER_CHARGES
(2S)-3-(6-aminopurin-9-yl)propane-1,2-diol
@<TRIPOS>ATOM
      1 C1          0.0021   -0.0041    0.0020 C.ar      1 <0>         0.3494
      2 N1         -0.0158    1.3165    0.0093 N.ar      1 <0>        -0.5507
      3 C2          1.1114    2.0201    0.0023 C.ar      1 <0>         0.4564
      4 C3          2.3337    1.3264   -0.0131 C.ar      1 <0>        -0.1069
      5 C4          2.2991   -0.0781   -0.0208 C.ar      1 <0>         0.3065
      6 N2          1.1220   -0.6954   -0.0128 N.ar      1 <0>        -0.5346
      7 N3          3.6082   -0.4886   -0.0358 N.pl3     1 <0>        -0.4690
      8 C5          4.3872    0.6300   -0.0370 C.2       1 <0>         0.2613
      9 N4          3.6375    1.6938   -0.0237 N.2       1 <0>        -0.4658
     10 C6          4.0819   -1.8748   -0.0483 C.3       1 <0>         0.0810
     11 C7          4.1138   -2.3899   -1.4887 C.3       1 <0>         0.0918
     12 H1          4.7164   -1.7191   -2.1011 H         1 <0>         0.1100
     13 C8          4.7251   -3.7922   -1.5154 C.3       1 <0>         0.0481
     14 O1          4.8622   -4.2263   -2.8699 O.3       1 <0>        -0.5612
     15 O2          2.7827   -2.4405   -2.0061 O.3       1 <0>        -0.5385
     16 N5          1.0826    3.4037    0.0095 N.pl3     1 <0>        -0.7520
     17 H2         -0.9374   -0.5367    0.0081 H         1 <0>         0.2084
     18 H3          5.4671    0.6331   -0.0475 H         1 <0>         0.2254
     19 H4          5.0849   -1.9199    0.3760 H         1 <0>         0.1115
     20 H5          3.4085   -2.4942    0.5442 H         1 <0>         0.1030
     21 H6          5.7056   -3.7703   -1.0398 H         1 <0>         0.0587
     22 H7          4.0754   -4.4821   -0.9768 H         1 <0>         0.0544
     23 H8          5.2444   -5.1097   -2.9631 H         1 <0>         0.3844
     24 H9          2.1893   -3.0200   -1.5090 H         1 <0>         0.3784
     25 H10         0.5968    3.7312   -0.8009 H         1 <0>         0.3675
     26 H11         1.9123    3.9061    0.0043 H         1 <0>         0.3826
@<TRIPOS>BOND
     1    1    6 ar
     2    1    2 ar
     3    1   17 1
     4    2    3 ar
     5    3    4 ar
     6    3   16 1
     7    4    9 1
     8    4    5 ar
     9    5    6 ar
    10    5    7 1
    11    7    8 1
    12    7   10 1
    13    8    9 2
    14    8   18 1
    15   10   11 1
    16   10   19 1
    17   10   20 1
    18   11   12 1
    19   11   13 1
    20   11   15 1
    21   13   14 1
    22   13   21 1
    23   13   22 1
    24   14   23 1
    25   15   24 1
    26   16   25 1
    27   16   26 1
@<TRIPOS>MOLECULE
ZINC29467598
   27    28     0     0     0
SMALL
USER_CHARGES
(Z)-4-(4-aminoimidazo[4,5-c]pyridin-1-yl)but-2-en-1-ol
@<TRIPOS>ATOM
      1 C1          0.0727   -3.7817    0.3455 C.ar      1 <0>        -0.2388
      2 C2          0.4854   -5.0594    0.0909 C.ar      1 <0>         0.1607
      3 N1          0.1419   -5.6884   -1.0219 N.ar      1 <0>        -0.5694
      4 C3         -0.6152   -5.1232   -1.9473 C.ar      1 <0>         0.4856
      5 C4         -1.0827   -3.8128   -1.7661 C.ar      1 <0>        -0.0699
      6 C5         -0.7227   -3.1276   -0.5926 C.ar      1 <0>         0.1212
      7 N2         -1.3128   -1.8893   -0.6770 N.pl3     1 <0>        -0.4794
      8 C6         -1.9879   -1.8415   -1.8598 C.2       1 <0>         0.2364
      9 N3         -1.8521   -2.9686   -2.4962 N.2       1 <0>        -0.4694
     10 C7         -1.2268   -0.8170    0.3174 C.3       1 <0>         0.1300
     11 C8          0.0314   -0.0197    0.0889 C.2       1 <0>        -0.1777
     12 C9         -0.0328    1.2823   -0.0412 C.2       1 <0>        -0.1267
     13 C10        -1.3385    1.9989    0.1879 C.3       1 <0>         0.1019
     14 O1         -1.1078    3.1696    0.9742 O.3       1 <0>        -0.5972
     15 N4         -0.9469   -5.8263   -3.0980 N.pl3     1 <0>        -0.8563
     16 H1          0.3632   -3.2843    1.2590 H         1 <0>         0.1271
     17 H2          1.1062   -5.5673    0.8140 H         1 <0>         0.1594
     18 H3         -2.5531   -0.9932   -2.2164 H         1 <0>         0.2120
     19 H4         -2.1016   -0.1570    0.2215 H         1 <0>         0.1076
     20 H5         -1.2059   -1.2538    1.3268 H         1 <0>         0.1013
     21 H6          1.0037   -0.5309    0.0313 H         1 <0>         0.1264
     22 H7          0.8664    1.8524   -0.3177 H         1 <0>         0.1268
     23 H8         -1.7732    2.2874   -0.7805 H         1 <0>         0.0560
     24 H9         -2.0345    1.3323    0.7182 H         1 <0>         0.0534
     25 H10        -1.9489    3.8247    1.2451 H         1 <0>         0.4158
     26 H11        -1.5766   -5.3560   -3.8676 H         1 <0>         0.4369
     27 H12        -0.5799   -6.8535   -3.2399 H         1 <0>         0.4264
@<TRIPOS>BOND
     1    1    6 ar
     2    1    2 ar
     3    1   16 1
     4    2    3 ar
     5    2   17 1
     6    3    4 ar
     7    4    5 ar
     8    4   15 1
     9    5    9 1
    10    5    6 ar
    11    6    7 1
    12    7    8 1
    13    7   10 1
    14    8    9 2
    15    8   18 1
    16   10   11 1
    17   10   19 1
    18   10   20 1
    19   11   12 2
    20   11   21 1
    21   12   13 1
    22   12   22 1
    23   13   14 1
    24   13   23 1
    25   13   24 1
    26   14   25 1
    27   15   26 1
    28   15   27 1
@<TRIPOS>MOLECULE
ZINC01610264
   30    31     0     0     0
SMALL
USER_CHARGES
2-[2-(6-aminopurin-9-yl)ethylidene]propane-1,3-diol
@<TRIPOS>ATOM
      1 C1          1.3920   -3.0775    0.2246 C.ar      1 <0>         0.3462
      2 N1          0.0755   -2.9759    0.2528 N.ar      1 <0>        -0.5757
      3 C2         -0.5242   -1.7907    0.2145 C.ar      1 <0>         0.4477
      4 C3          0.2758   -0.6374    0.1427 C.ar      1 <0>        -0.0706
      5 C4          1.6711   -0.7987    0.1152 C.ar      1 <0>         0.2924
      6 N2          2.1805   -2.0257    0.1576 N.ar      1 <0>        -0.5356
      7 N3          2.1969    0.4666    0.0447 N.pl3     1 <0>        -0.4678
      8 C5          1.1527    1.3427    0.0311 C.2       1 <0>         0.2611
      9 N4          0.0265    0.6931    0.0886 N.2       1 <0>        -0.4555
     10 C6          3.6195    0.8125   -0.0072 C.3       1 <0>         0.1323
     11 C7          4.1006    0.7472   -1.4338 C.2       1 <0>        -0.1459
     12 C8          4.7233    1.7713   -1.9626 C.2       1 <0>        -0.1154
     13 C9          5.1096    2.9454   -1.1004 C.3       1 <0>         0.1052
     14 O1          6.5053    3.2106   -1.2544 O.3       1 <0>        -0.5652
     15 C10         5.0534    1.7753   -3.4330 C.3       1 <0>         0.1153
     16 O2          4.5885    0.5625   -4.0288 O.3       1 <0>        -0.5729
     17 N5         -1.9044   -1.6943    0.2450 N.pl3     1 <0>        -0.7440
     18 H1          1.8383   -4.0604    0.2573 H         1 <0>         0.2061
     19 H2          1.2462    2.4175   -0.0202 H         1 <0>         0.2238
     20 H3          3.7623    1.8219    0.3786 H         1 <0>         0.1085
     21 H4          4.1872    0.1077    0.6003 H         1 <0>         0.1070
     22 H5          3.9320   -0.1439   -2.0203 H         1 <0>         0.1365
     23 H6          4.5376    3.8224   -1.4033 H         1 <0>         0.0605
     24 H7          4.8965    2.7153   -0.0565 H         1 <0>         0.0629
     25 H8          6.8246    3.9557   -0.7271 H         1 <0>         0.3862
     26 H9          4.5672    2.6251   -3.9122 H         1 <0>         0.0612
     27 H10         6.1328    1.8535   -3.5629 H         1 <0>         0.0667
     28 H11         4.7674    0.4962   -4.9768 H         1 <0>         0.3863
     29 H12        -2.1839   -1.1648    1.0459 H         1 <0>         0.3694
     30 H13        -2.4457   -2.4977    0.2946 H         1 <0>         0.3734
@<TRIPOS>BOND
     1    1    6 ar
     2    1    2 ar
     3    1   18 1
     4    2    3 ar
     5    3    4 ar
     6    3   17 1
     7    4    9 1
     8    4    5 ar
     9    5    6 ar
    10    5    7 1
    11    7    8 1
    12    7   10 1
    13    8    9 2
    14    8   19 1
    15   10   11 1
    16   10   20 1
    17   10   21 1
    18   11   12 2
    19   11   22 1
    20   12   13 1
    21   12   15 1
    22   13   14 1
    23   13   23 1
    24   13   24 1
    25   14   25 1
    26   15   16 1
    27   15   26 1
    28   15   27 1
    29   16   28 1
    30   17   29 1
    31   17   30 1
@<TRIPOS>MOLECULE
ZINC03832327
   34    36     0     0     0
SMALL
USER_CHARGES
3-(6-aminopurin-9-yl)-5-(hydroxymethyl)cyclopentane-1,2-diol
@<TRIPOS>ATOM
      1 C1         -1.0919    6.5517   -3.9219 C.ar      1 <0>         0.3478
      2 N1         -1.0790    6.4312   -5.2371 N.ar      1 <0>        -0.5756
      3 C2         -0.7281    5.2897   -5.8201 C.ar      1 <0>         0.4485
      4 C3         -0.3680    4.2038   -5.0037 C.ar      1 <0>        -0.0720
      5 C4         -0.4037    4.3810   -3.6105 C.ar      1 <0>         0.2985
      6 N2         -0.7623    5.5626   -3.1186 N.ar      1 <0>        -0.5355
      7 N3         -0.0080    3.1850   -3.0669 N.pl3     1 <0>        -0.4622
      8 C5          0.2430    2.3303   -4.0987 C.2       1 <0>         0.2536
      9 N4          0.0312    2.9300   -5.2342 N.2       1 <0>        -0.4510
     10 C6          0.1159    2.8805   -1.6393 C.3       1 <0>         0.1477
     11 H1         -0.2026    3.7302   -1.0355 H         1 <0>         0.1298
     12 C7          1.5683    2.4720   -1.2892 C.3       1 <0>        -0.1238
     13 C8          1.4256    1.6325   -0.0028 C.3       1 <0>        -0.0844
     14 H2          1.5932    2.2597    0.8728 H         1 <0>         0.1055
     15 C9         -0.0127    1.0858    0.0080 C.3       1 <0>         0.0838
     16 H3          0.0021   -0.0041    0.0020 H         1 <0>         0.0746
     17 C10        -0.6938    1.6121   -1.2722 C.3       1 <0>         0.0569
     18 H4         -0.6280    0.8731   -2.0707 H         1 <0>         0.0770
     19 O1         -2.0581    1.9478   -1.0110 O.3       1 <0>        -0.5446
     20 O2         -0.7077    1.5592    1.1634 O.3       1 <0>        -0.5433
     21 C11         2.4261    0.4751   -0.0186 C.3       1 <0>         0.0825
     22 O3          2.3423   -0.2438    1.2136 O.3       1 <0>        -0.5685
     23 N5         -0.7181    5.1728   -7.1990 N.pl3     1 <0>        -0.7437
     24 H5         -1.3836    7.4974   -3.4895 H         1 <0>         0.2066
     25 H6          0.5697    1.3067   -3.9900 H         1 <0>         0.2207
     26 H7          2.1786    3.3556   -1.1023 H         1 <0>         0.0936
     27 H8          1.9995    1.8719   -2.0904 H         1 <0>         0.0855
     28 H9         -2.5983    1.2004   -0.7202 H         1 <0>         0.3815
     29 H10        -1.6244    1.2573    1.2221 H         1 <0>         0.3782
     30 H11         2.1939   -0.1946   -0.8466 H         1 <0>         0.0496
     31 H12         3.4351    0.8687   -0.1416 H         1 <0>         0.0559
     32 H13         2.9502   -0.9934    1.2737 H         1 <0>         0.3837
     33 H14         0.2051    4.9436   -7.5074 H         1 <0>         0.3694
     34 H15        -0.9687    5.9295   -7.7517 H         1 <0>         0.3737
@<TRIPOS>BOND
     1    1    6 ar
     2    1    2 ar
     3    1   24 1
     4    2    3 ar
     5    3    4 ar
     6    3   23 1
     7    4    9 1
     8    4    5 ar
     9    5    6 ar
    10    5    7 1
    11    7    8 1
    12    7   10 1
    13    8    9 2
    14    8   25 1
    15   10   11 1
    16   10   17 1
    17   10   12 1
    18   12   13 1
    19   12   26 1
    20   12   27 1
    21   13   14 1
    22   13   15 1
    23   13   21 1
    24   15   16 1
    25   15   17 1
    26   15   20 1
    27   17   18 1
    28   17   19 1
    29   19   28 1
    30   20   29 1
    31   21   22 1
    32   21   30 1
    33   21   31 1
    34   22   32 1
    35   23   33 1
    36   23   34 1
@<TRIPOS>MOLECULE
ZINC29465697
   31    32     0     0     0
SMALL
USER_CHARGES
2-[2-(4-aminoimidazo[4,5-c]pyridin-1-yl)ethylidene]propane-1,3-diol
@<TRIPOS>ATOM
      1 C1          0.9774    2.6669   -0.1844 C.ar      1 <0>        -0.2368
      2 C2         -0.2839    2.1441   -0.2425 C.ar      1 <0>         0.1597
      3 N1         -0.4906    0.8368   -0.2594 N.ar      1 <0>        -0.5693
      4 C3          0.5026   -0.0354   -0.2213 C.ar      1 <0>         0.4851
      5 C4          1.8298    0.4158   -0.1607 C.ar      1 <0>        -0.0695
      6 C5          2.0679    1.8011   -0.1420 C.ar      1 <0>         0.1225
      7 N2          3.4323    1.9534   -0.0816 N.pl3     1 <0>        -0.4778
      8 C6          3.9794    0.7055   -0.0652 C.2       1 <0>         0.2363
      9 N3          3.0397   -0.1936   -0.1116 N.2       1 <0>        -0.4697
     10 C7          4.1633    3.2224   -0.0428 C.3       1 <0>         0.1293
     11 C8          4.2450    3.7118    1.3801 C.2       1 <0>        -0.1523
     12 C9          5.4061    4.0260    1.8991 C.2       1 <0>        -0.1134
     13 C10         5.5122    4.3512    3.3667 C.3       1 <0>         0.1248
     14 O1          4.2218    4.2488    3.9719 O.3       1 <0>        -0.6025
     15 C11         6.6356    4.0622    1.0284 C.3       1 <0>         0.1145
     16 O2          7.2823    5.3286    1.1699 O.3       1 <0>        -0.5953
     17 N4          0.2322   -1.3974   -0.2408 N.pl3     1 <0>        -0.8568
     18 H1          1.1267    3.7365   -0.1718 H         1 <0>         0.1269
     19 H2         -1.1311    2.8128   -0.2800 H         1 <0>         0.1592
     20 H3          5.0375    0.4938   -0.0203 H         1 <0>         0.2112
     21 H4          5.1789    3.0727   -0.4379 H         1 <0>         0.1072
     22 H5          3.6370    3.9677   -0.6572 H         1 <0>         0.1015
     23 H6          3.3297    3.8052    1.9830 H         1 <0>         0.1386
     24 H7          6.2012    3.6431    3.8503 H         1 <0>         0.0559
     25 H8          5.8941    5.3756    3.4886 H         1 <0>         0.0618
     26 H9          4.1005    4.4516    5.0462 H         1 <0>         0.4161
     27 H10         7.3254    3.2620    1.3346 H         1 <0>         0.0551
     28 H11         6.3454    3.9140   -0.0222 H         1 <0>         0.0594
     29 H12         8.2031    5.5418    0.6072 H         1 <0>         0.4161
     30 H13         1.0586   -2.1227   -0.2091 H         1 <0>         0.4365
     31 H14        -0.8084   -1.7509   -0.2879 H         1 <0>         0.4259
@<TRIPOS>BOND
     1    1    6 ar
     2    1    2 ar
     3    1   18 1
     4    2    3 ar
     5    2   19 1
     6    3    4 ar
     7    4    5 ar
     8    4   17 1
     9    5    9 1
    10    5    6 ar
    11    6    7 1
    12    7    8 1
    13    7   10 1
    14    8    9 2
    15    8   20 1
    16   10   11 1
    17   10   21 1
    18   10   22 1
    19   11   12 2
    20   11   23 1
    21   12   13 1
    22   12   15 1
    23   13   14 1
    24   13   24 1
    25   13   25 1
    26   14   26 1
    27   15   16 1
    28   15   27 1
    29   15   28 1
    30   16   29 1
    31   17   30 1
    32   17   31 1
@<TRIPOS>MOLECULE
ZINC05163034
   30    32     0     0     0
SMALL
USER_CHARGES
(2S,3S,4R,5R)-5-(6-aminopurin-9-yl)-3,4-dihydroxy-tetrahydrofuran-2-carboxylic acid
@<TRIPOS>ATOM
      1 C1         -0.0126    1.0758    0.0080 C.ar      1 <0>         0.3330
      2 N1         -1.1788    1.6956    0.0170 N.ar      1 <0>        -0.5779
      3 C2         -1.2529    3.0224    0.0287 C.ar      1 <0>         0.4391
      4 C3         -0.0565    3.7600    0.0219 C.ar      1 <0>        -0.0643
      5 C4          1.1579    3.0539    0.0070 C.ar      1 <0>         0.2978
      6 N2          1.1324    1.7249    0.0005 N.ar      1 <0>        -0.5182
      7 N3          2.1478    4.0038    0.0032 N.pl3     1 <0>        -0.4638
      8 C5          1.5422    5.2250    0.0154 C.2       1 <0>         0.2882
      9 N4          0.2490    5.0798    0.0264 N.2       1 <0>        -0.4667
     10 C6          3.5909    3.7519   -0.0105 C.3       1 <0>         0.3085
     11 H1          3.8304    2.8666    0.5785 H         1 <0>         0.1181
     12 C7          4.1037    3.5951   -1.4648 C.3       1 <0>         0.0771
     13 H2          3.5868    4.2812   -2.1357 H         1 <0>         0.0857
     14 C8          5.5970    3.9788   -1.3252 C.3       1 <0>         0.0664
     15 H3          5.9160    4.5850   -2.1731 H         1 <0>         0.0868
     16 C9          5.6558    4.8001   -0.0226 C.3       1 <0>         0.0095
     17 H4          6.2862    4.2926    0.7074 H         1 <0>         0.0904
     18 O1          4.3123    4.9012    0.4826 O.3       1 <0>        -0.3386
     19 C10         6.2060    6.1739   -0.3074 C.2       1 <0>         0.4680
     20 O2          5.5075    7.1480   -0.1551 O.co2     1 <0>        -0.6078
     21 O3          6.4068    2.8064   -1.2173 O.3       1 <0>        -0.5494
     22 O4          3.9638    2.2451   -1.9120 O.3       1 <0>        -0.5284
     23 N5         -2.4795    3.6629    0.0433 N.pl3     1 <0>        -0.7448
     24 H5          0.0021   -0.0041    0.0020 H         1 <0>         0.2028
     25 H6          2.0593    6.1732    0.0154 H         1 <0>         0.2322
     26 H7          7.3522    2.9883   -1.1275 H         1 <0>         0.3881
     27 H8          4.2712    2.0966   -2.8168 H         1 <0>         0.3825
     28 H9         -2.5493    4.2306    0.8636 H         1 <0>         0.3670
     29 H10        -3.2982    3.1427    0.0479 H         1 <0>         0.3691
     30 O5          7.4721    6.3154   -0.7303 O.co2     1 <0>        -0.7504
@<TRIPOS>BOND
     1    1    6 ar
     2    1    2 ar
     3    1   24 1
     4    2    3 ar
     5    3    4 ar
     6    3   23 1
     7    4    9 1
     8    4    5 ar
     9    5    6 ar
    10    5    7 1
    11    7    8 1
    12    7   10 1
    13    8    9 2
    14    8   25 1
    15   10   11 1
    16   10   18 1
    17   10   12 1
    18   12   13 1
    19   12   14 1
    20   12   22 1
    21   14   15 1
    22   14   16 1
    23   14   21 1
    24   16   17 1
    25   16   18 1
    26   16   19 1
    27   19   20 2
    28   19   30 1
    29   21   26 1
    30   22   27 1
    31   23   28 1
    32   23   29 1
