@<TRIPOS>MOLECULE
ZINC03819138
   53    55     0     0     0
SMALL
USER_CHARGES
2-[4-chloro-3-[(4-ethoxyphenyl)methyl]phenyl]-6-(hydroxymethyl)tetrahydropyran-3,4,5-triol
@<TRIPOS>ATOM
      1 C1         -0.0187    1.5258    0.0104 C.3       1 <0>        -0.1531
      2 C2          0.0021   -0.0041    0.0020 C.3       1 <0>         0.0543
      3 O1          0.6709   -0.4649   -1.1737 O.3       1 <0>        -0.3170
      4 C3          0.7768   -1.8100   -1.3361 C.ar      1 <0>         0.1297
      5 C4          0.2527   -2.6686   -0.3807 C.ar      1 <0>        -0.2083
      6 C5          0.3569   -4.0356   -0.5508 C.ar      1 <0>        -0.0705
      7 C6          0.9921   -4.5482   -1.6669 C.ar      1 <0>        -0.1179
      8 C7          1.5202   -3.6945   -2.6177 C.ar      1 <0>        -0.0727
      9 C8          1.4140   -2.3268   -2.4548 C.ar      1 <0>        -0.1515
     10 C9          1.1094   -6.0397   -1.8470 C.3       1 <0>        -0.0392
     11 C10         2.3855   -6.5241   -1.2084 C.ar      1 <0>        -0.0671
     12 C11         2.3541   -7.1035    0.0463 C.ar      1 <0>        -0.0744
     13 C12         3.5239   -7.5521    0.6302 C.ar      1 <0>        -0.0675
     14 C13         4.7274   -7.4120   -0.0357 C.ar      1 <0>        -0.0847
     15 C14         4.7608   -6.8282   -1.2878 C.ar      1 <0>        -0.1101
     16 C15         3.5894   -6.3837   -1.8751 C.ar      1 <0>        -0.0231
     17 Cl1         3.6305   -5.6507   -3.4482 Cl        1 <0>        -0.0639
     18 C16         3.4882   -8.1884    1.9958 C.3       1 <0>         0.1396
     19 H1          2.5674   -7.9044    2.5052 H         1 <0>         0.0821
     20 C17         3.5429   -9.7114    1.8509 C.3       1 <0>         0.0969
     21 H2          4.4437   -9.9934    1.3058 H         1 <0>         0.0749
     22 C18         3.5670  -10.3485    3.2438 C.3       1 <0>         0.0383
     23 H3          2.6439  -10.1076    3.7709 H         1 <0>         0.0787
     24 C19         4.7627   -9.7955    4.0254 C.3       1 <0>         0.0486
     25 H4          5.6882  -10.0792    3.5242 H         1 <0>         0.0797
     26 C20         4.6609   -8.2692    4.0862 C.3       1 <0>         0.0987
     27 H5          3.7554   -7.9864    4.6231 H         1 <0>         0.0804
     28 O2          4.6116   -7.7431    2.7585 O.3       1 <0>        -0.3417
     29 C21         5.8828   -7.7047    4.8138 C.3       1 <0>         0.0898
     30 O3          5.7325   -6.2925    4.9722 O.3       1 <0>        -0.5653
     31 O4          4.7539  -10.3280    5.3514 O.3       1 <0>        -0.5522
     32 O5          3.6910  -11.7667    3.1206 O.3       1 <0>        -0.5572
     33 O6          2.3903  -10.1651    1.1383 O.3       1 <0>        -0.5476
     34 H6          1.0039    1.9031    0.0027 H         1 <0>         0.0666
     35 H7         -0.5459    1.8868   -0.8726 H         1 <0>         0.0665
     36 H8         -0.5289    1.8773    0.9072 H         1 <0>         0.0788
     37 H9          0.5293   -0.3651    0.8851 H         1 <0>         0.0617
     38 H10        -1.0205   -0.3814    0.0098 H         1 <0>         0.0617
     39 H11        -0.2399   -2.2687    0.4932 H         1 <0>         0.1267
     40 H12        -0.0548   -4.7045    0.1905 H         1 <0>         0.1233
     41 H13         2.0159   -4.0973   -3.4886 H         1 <0>         0.1332
     42 H14         1.8270   -1.6604   -3.1976 H         1 <0>         0.1294
     43 H15         0.2580   -6.5307   -1.3756 H         1 <0>         0.0862
     44 H16         1.1225   -6.2773   -2.9108 H         1 <0>         0.0883
     45 H17         1.4148   -7.2091    0.5688 H         1 <0>         0.1324
     46 H18         5.6416   -7.7593    0.4226 H         1 <0>         0.1338
     47 H19         5.7011   -6.7186   -1.8077 H         1 <0>         0.1353
     48 H20         5.9704   -8.1730    5.7941 H         1 <0>         0.0737
     49 H21         6.7803   -7.9115    4.2308 H         1 <0>         0.0550
     50 H22         6.4722   -5.8668    5.4267 H         1 <0>         0.3840
     51 H23         4.8157  -11.2923    5.3885 H         1 <0>         0.3831
     52 H24         3.7187  -12.2341    3.9667 H         1 <0>         0.3833
     53 H25         2.3592  -11.1230    1.0096 H         1 <0>         0.3906
@<TRIPOS>BOND
     1    1    2 1
     2    1   34 1
     3    1   35 1
     4    1   36 1
     5    2    3 1
     6    2   37 1
     7    2   38 1
     8    3    4 1
     9    4    9 ar
    10    4    5 ar
    11    5    6 ar
    12    5   39 1
    13    6    7 ar
    14    6   40 1
    15    7    8 ar
    16    7   10 1
    17    8    9 ar
    18    8   41 1
    19    9   42 1
    20   10   11 1
    21   10   43 1
    22   10   44 1
    23   11   16 ar
    24   11   12 ar
    25   12   13 ar
    26   12   45 1
    27   13   14 ar
    28   13   18 1
    29   14   15 ar
    30   14   46 1
    31   15   16 ar
    32   15   47 1
    33   16   17 1
    34   18   19 1
    35   18   28 1
    36   18   20 1
    37   20   21 1
    38   20   22 1
    39   20   33 1
    40   22   23 1
    41   22   24 1
    42   22   32 1
    43   24   25 1
    44   24   26 1
    45   24   31 1
    46   26   27 1
    47   26   28 1
    48   26   29 1
    49   29   30 1
    50   29   48 1
    51   29   49 1
    52   30   50 1
    53   31   51 1
    54   32   52 1
    55   33   53 1
