@<TRIPOS>MOLECULE
ZINC01039775
   47    50     0     0     0
SMALL
USER_CHARGES
4-[[5-[(4-chlorophenyl)methylsulfanyl]-4-methyl-1,2,4-triazol-3-yl]methyl]-6-(trifluoromethyl)-1,4-benzothiazin-3-one
@<TRIPOS>ATOM
      1 C1         -0.0899    5.1176   -2.5629 C.3       1 <0>         0.0763
      2 N1         -1.5237    5.1992   -2.8521 N.pl3     1 <0>        -0.4466
      3 C2         -2.5472    5.2506   -1.9465 C.2       1 <0>         0.1504
      4 N2         -3.6593    5.3215   -2.6217 N.2       1 <0>        -0.2643
      5 N3         -3.4112    5.3137   -3.8828 N.2       1 <0>        -0.2836
      6 C3         -2.1158    5.2366   -4.0819 C.2       1 <0>         0.1587
      7 S1         -1.2961    5.1960   -5.6411 S.3       1 <0>         0.0166
      8 C4         -2.7240    5.2891   -6.7494 C.3       1 <0>        -0.0625
      9 C5         -2.2515    5.2687   -8.1803 C.ar      1 <0>        -0.0814
     10 C6         -1.9677    6.4549   -8.8311 C.ar      1 <0>        -0.0847
     11 C7         -1.5289    6.4365  -10.1416 C.ar      1 <0>        -0.1095
     12 C8         -1.3844    5.2314  -10.8056 C.ar      1 <0>        -0.0254
     13 C9         -1.6740    4.0450  -10.1555 C.ar      1 <0>        -0.1096
     14 C10        -2.1074    4.0643   -8.8432 C.ar      1 <0>        -0.0850
     15 Cl1        -0.8395    5.2079  -12.4537 Cl        1 <0>        -0.0636
     16 C11        -2.4131    5.2349   -0.4456 C.3       1 <0>         0.1850
     17 N4         -2.4527    3.8511    0.0337 N.am      1 <0>        -0.5367
     18 C12        -3.7042    3.3318    0.3537 C.ar      1 <0>         0.1502
     19 C13        -4.8452    3.9135   -0.1881 C.ar      1 <0>        -0.0837
     20 C14        -6.0949    3.4149    0.1228 C.ar      1 <0>        -0.1471
     21 C15        -6.2263    2.3347    0.9764 C.ar      1 <0>        -0.0738
     22 C16        -5.1003    1.7458    1.5221 C.ar      1 <0>        -0.0623
     23 C17        -3.8449    2.2435    1.2160 C.ar      1 <0>        -0.1023
     24 S2         -2.3992    1.4909    1.8926 S.3       1 <0>        -0.0589
     25 C18        -1.1529    1.7934    0.6034 C.3       1 <0>        -0.1307
     26 C19        -1.2893    3.2119    0.1216 C.2       1 <0>         0.5247
     27 O1         -0.2832    3.8055   -0.2052 O.2       1 <0>        -0.5079
     28 C20        -7.3241    4.0526   -0.4717 C.3       1 <0>         0.5099
     29 F1         -8.4642    3.3823   -0.0155 F         1 <0>        -0.1749
     30 F2         -7.3864    5.3955   -0.0846 F         1 <0>        -0.1724
     31 F3         -7.2628    3.9719   -1.8671 F         1 <0>        -0.1677
     32 H1          0.2086    4.0713   -2.4974 H         1 <0>         0.0896
     33 H2          0.4700    5.6059   -3.3605 H         1 <0>         0.0905
     34 H3          0.1185    5.6149   -1.6156 H         1 <0>         0.1038
     35 H4         -3.3788    4.4362   -6.5708 H         1 <0>         0.1103
     36 H5         -3.2710    6.2128   -6.5605 H         1 <0>         0.1110
     37 H6         -2.0847    7.3958   -8.3140 H         1 <0>         0.1374
     38 H7         -1.3030    7.3630  -10.6486 H         1 <0>         0.1386
     39 H8         -1.5612    3.1039  -10.6733 H         1 <0>         0.1384
     40 H9         -2.3331    3.1382   -8.3355 H         1 <0>         0.1368
     41 H10        -3.2347    5.7968   -0.0015 H         1 <0>         0.1280
     42 H11        -1.4651    5.6911   -0.1607 H         1 <0>         0.1243
     43 H12        -4.7536    4.7582   -0.8549 H         1 <0>         0.1644
     44 H13        -7.2071    1.9514    1.2163 H         1 <0>         0.1521
     45 H14        -5.2001    0.9023    2.1891 H         1 <0>         0.1524
     46 H15        -1.3139    1.1078   -0.2285 H         1 <0>         0.1286
     47 H16        -0.1556    1.6421    1.0166 H         1 <0>         0.1567
@<TRIPOS>BOND
     1    1    2 1
     2    1   32 1
     3    1   33 1
     4    1   34 1
     5    2    6 1
     6    2    3 1
     7    3    4 2
     8    3   16 1
     9    4    5 1
    10    5    6 2
    11    6    7 1
    12    7    8 1
    13    8    9 1
    14    8   35 1
    15    8   36 1
    16    9   14 ar
    17    9   10 ar
    18   10   11 ar
    19   10   37 1
    20   11   12 ar
    21   11   38 1
    22   12   13 ar
    23   12   15 1
    24   13   14 ar
    25   13   39 1
    26   14   40 1
    27   16   17 1
    28   16   41 1
    29   16   42 1
    30   17   26 am
    31   17   18 1
    32   18   23 ar
    33   18   19 ar
    34   19   20 ar
    35   19   43 1
    36   20   21 ar
    37   20   28 1
    38   21   22 ar
    39   21   44 1
    40   22   23 ar
    41   22   45 1
    42   23   24 1
    43   24   25 1
    44   25   26 1
    45   25   46 1
    46   25   47 1
    47   26   27 2
    48   28   29 1
    49   28   30 1
    50   28   31 1
@<TRIPOS>MOLECULE
ZINC68197809
   55    58     0     0     0
SMALL
USER_CHARGES

@<TRIPOS>ATOM
      1 C1         -0.0187    1.5258    0.0104 C.3       1 <0>        -0.1529
      2 C2          0.0021   -0.0041    0.0020 C.3       1 <0>         0.0542
      3 O1          0.6709   -0.4649   -1.1737 O.3       1 <0>        -0.3173
      4 C3          0.7768   -1.8100   -1.3361 C.ar      1 <0>         0.1296
      5 C4          0.2427   -2.6687   -0.3864 C.ar      1 <0>        -0.2075
      6 C5          0.3511   -4.0357   -0.5541 C.ar      1 <0>        -0.0716
      7 C6          0.9917   -4.5482   -1.6671 C.ar      1 <0>        -0.1173
      8 C7          1.5253   -3.6944   -2.6148 C.ar      1 <0>        -0.0717
      9 C8          1.4140   -2.3268   -2.4548 C.ar      1 <0>        -0.1526
     10 C9          1.1090   -6.0397   -1.8472 C.3       1 <0>        -0.0392
     11 C10        -0.0856   -6.5489   -2.6119 C.ar      1 <0>        -0.0708
     12 C11         0.0208   -6.8134   -3.9645 C.ar      1 <0>        -0.0742
     13 C12        -1.0748   -7.2804   -4.6660 C.ar      1 <0>        -0.0687
     14 C13        -2.2777   -7.4832   -4.0153 C.ar      1 <0>        -0.0593
     15 C14        -2.3854   -7.2192   -2.6631 C.ar      1 <0>        -0.1122
     16 C15        -1.2873   -6.7571   -1.9592 C.ar      1 <0>        -0.0181
     17 Cl1        -1.4200   -6.4314   -0.2591 Cl        1 <0>        -0.0633
     18 C16        -0.9582   -7.5681   -6.1406 C.3       1 <0>         0.3127
     19 C17        -1.2859   -6.3244   -6.9813 C.3       1 <0>         0.0488
     20 H1         -0.5257   -5.5610   -6.8159 H         1 <0>         0.0857
     21 C18        -1.3036   -6.7190   -8.4621 C.3       1 <0>         0.0360
     22 H2         -2.1556   -7.3710   -8.6547 H         1 <0>         0.0890
     23 C19        -0.0054   -7.4587   -8.8045 C.3       1 <0>         0.1014
     24 H3          0.8362   -6.7687   -8.7432 H         1 <0>         0.0835
     25 C20         0.1881   -8.6003   -7.7930 C.3       1 <0>         0.0867
     26 O2          0.3778   -7.9911   -6.4917 O.3       1 <0>        -0.3325
     27 C21        -1.1702   -9.3226   -7.6329 C.3       1 <0>         0.0282
     28 O3         -1.8291   -8.6437   -6.5366 O.3       1 <0>        -0.3557
     29 C22         1.3325   -9.5395   -8.1792 C.3       1 <0>         0.1050
     30 O4          1.3791  -10.6354   -7.2632 O.3       1 <0>        -0.5636
     31 O5         -0.0922   -7.9935  -10.1268 O.3       1 <0>        -0.5506
     32 O6         -1.4107   -5.5436   -9.2677 O.3       1 <0>        -0.5570
     33 O7         -2.5664   -5.8148   -6.6035 O.3       1 <0>        -0.5369
     34 H4          1.0039    1.9031    0.0027 H         1 <0>         0.0666
     35 H5         -0.5459    1.8868   -0.8726 H         1 <0>         0.0664
     36 H6         -0.5289    1.8773    0.9072 H         1 <0>         0.0790
     37 H7          0.5293   -0.3651    0.8851 H         1 <0>         0.0620
     38 H8         -1.0205   -0.3814    0.0098 H         1 <0>         0.0617
     39 H9         -0.2572   -2.2689    0.4835 H         1 <0>         0.1263
     40 H10        -0.0645   -4.7046    0.1850 H         1 <0>         0.1296
     41 H11         2.0255   -4.0972   -3.4831 H         1 <0>         0.1272
     42 H12         1.8270   -1.6604   -3.1976 H         1 <0>         0.1295
     43 H13         2.0194   -6.2683   -2.4013 H         1 <0>         0.0870
     44 H14         1.1475   -6.5218   -0.8703 H         1 <0>         0.0885
     45 H15         0.9602   -6.6548   -4.4733 H         1 <0>         0.1357
     46 H16        -3.1335   -7.8478   -4.5640 H         1 <0>         0.1393
     47 H17        -3.3252   -7.3774   -2.1550 H         1 <0>         0.1380
     48 H18        -1.7537   -9.2402   -8.5499 H         1 <0>         0.0955
     49 H19        -1.0143  -10.3700   -7.3746 H         1 <0>         0.1029
     50 H20         1.1681   -9.9165   -9.1887 H         1 <0>         0.0828
     51 H21         2.2765   -8.9958   -8.1437 H         1 <0>         0.0643
     52 H22         2.0826  -11.2726   -7.4479 H         1 <0>         0.3885
     53 H23        -0.2280   -7.3258  -10.8130 H         1 <0>         0.3954
     54 H24        -2.2092   -5.0242   -9.1016 H         1 <0>         0.3858
     55 H25        -2.8373   -5.0277   -7.0956 H         1 <0>         0.3800
@<TRIPOS>BOND
     1    1    2 1
     2    1   34 1
     3    1   35 1
     4    1   36 1
     5    2    3 1
     6    2   37 1
     7    2   38 1
     8    3    4 1
     9    4    9 ar
    10    4    5 ar
    11    5    6 ar
    12    5   39 1
    13    6    7 ar
    14    6   40 1
    15    7    8 ar
    16    7   10 1
    17    8    9 ar
    18    8   41 1
    19    9   42 1
    20   10   11 1
    21   10   43 1
    22   10   44 1
    23   11   16 ar
    24   11   12 ar
    25   12   13 ar
    26   12   45 1
    27   13   14 ar
    28   13   18 1
    29   14   15 ar
    30   14   46 1
    31   15   16 ar
    32   15   47 1
    33   16   17 1
    34   18   26 1
    35   18   28 1
    36   18   19 1
    37   19   20 1
    38   19   21 1
    39   19   33 1
    40   21   22 1
    41   21   23 1
    42   21   32 1
    43   23   24 1
    44   23   25 1
    45   23   31 1
    46   25   26 1
    47   25   27 1
    48   25   29 1
    49   27   28 1
    50   27   48 1
    51   27   49 1
    52   29   30 1
    53   29   50 1
    54   29   51 1
    55   30   52 1
    56   31   53 1
    57   32   54 1
    58   33   55 1
@<TRIPOS>MOLECULE
ZINC03819138
   53    55     0     0     0
SMALL
USER_CHARGES
2-[4-chloro-3-[(4-ethoxyphenyl)methyl]phenyl]-6-(hydroxymethyl)tetrahydropyran-3,4,5-triol
@<TRIPOS>ATOM
      1 C1         -0.0187    1.5258    0.0104 C.3       1 <0>        -0.1531
      2 C2          0.0021   -0.0041    0.0020 C.3       1 <0>         0.0543
      3 O1          0.6709   -0.4649   -1.1737 O.3       1 <0>        -0.3170
      4 C3          0.7768   -1.8100   -1.3361 C.ar      1 <0>         0.1297
      5 C4          0.2527   -2.6686   -0.3807 C.ar      1 <0>        -0.2083
      6 C5          0.3569   -4.0356   -0.5508 C.ar      1 <0>        -0.0705
      7 C6          0.9921   -4.5482   -1.6669 C.ar      1 <0>        -0.1179
      8 C7          1.5202   -3.6945   -2.6177 C.ar      1 <0>        -0.0727
      9 C8          1.4140   -2.3268   -2.4548 C.ar      1 <0>        -0.1515
     10 C9          1.1094   -6.0397   -1.8470 C.3       1 <0>        -0.0392
     11 C10         2.3855   -6.5241   -1.2084 C.ar      1 <0>        -0.0671
     12 C11         2.3541   -7.1035    0.0463 C.ar      1 <0>        -0.0744
     13 C12         3.5239   -7.5521    0.6302 C.ar      1 <0>        -0.0675
     14 C13         4.7274   -7.4120   -0.0357 C.ar      1 <0>        -0.0847
     15 C14         4.7608   -6.8282   -1.2878 C.ar      1 <0>        -0.1101
     16 C15         3.5894   -6.3837   -1.8751 C.ar      1 <0>        -0.0231
     17 Cl1         3.6305   -5.6507   -3.4482 Cl        1 <0>        -0.0639
     18 C16         3.4882   -8.1884    1.9958 C.3       1 <0>         0.1396
     19 H1          2.5674   -7.9044    2.5052 H         1 <0>         0.0821
     20 C17         3.5429   -9.7114    1.8509 C.3       1 <0>         0.0969
     21 H2          4.4437   -9.9934    1.3058 H         1 <0>         0.0749
     22 C18         3.5670  -10.3485    3.2438 C.3       1 <0>         0.0383
     23 H3          2.6439  -10.1076    3.7709 H         1 <0>         0.0787
     24 C19         4.7627   -9.7955    4.0254 C.3       1 <0>         0.0486
     25 H4          5.6882  -10.0792    3.5242 H         1 <0>         0.0797
     26 C20         4.6609   -8.2692    4.0862 C.3       1 <0>         0.0987
     27 H5          3.7554   -7.9864    4.6231 H         1 <0>         0.0804
     28 O2          4.6116   -7.7431    2.7585 O.3       1 <0>        -0.3417
     29 C21         5.8828   -7.7047    4.8138 C.3       1 <0>         0.0898
     30 O3          5.7325   -6.2925    4.9722 O.3       1 <0>        -0.5653
     31 O4          4.7539  -10.3280    5.3514 O.3       1 <0>        -0.5522
     32 O5          3.6910  -11.7667    3.1206 O.3       1 <0>        -0.5572
     33 O6          2.3903  -10.1651    1.1383 O.3       1 <0>        -0.5476
     34 H6          1.0039    1.9031    0.0027 H         1 <0>         0.0666
     35 H7         -0.5459    1.8868   -0.8726 H         1 <0>         0.0665
     36 H8         -0.5289    1.8773    0.9072 H         1 <0>         0.0788
     37 H9          0.5293   -0.3651    0.8851 H         1 <0>         0.0617
     38 H10        -1.0205   -0.3814    0.0098 H         1 <0>         0.0617
     39 H11        -0.2399   -2.2687    0.4932 H         1 <0>         0.1267
     40 H12        -0.0548   -4.7045    0.1905 H         1 <0>         0.1233
     41 H13         2.0159   -4.0973   -3.4886 H         1 <0>         0.1332
     42 H14         1.8270   -1.6604   -3.1976 H         1 <0>         0.1294
     43 H15         0.2580   -6.5307   -1.3756 H         1 <0>         0.0862
     44 H16         1.1225   -6.2773   -2.9108 H         1 <0>         0.0883
     45 H17         1.4148   -7.2091    0.5688 H         1 <0>         0.1324
     46 H18         5.6416   -7.7593    0.4226 H         1 <0>         0.1338
     47 H19         5.7011   -6.7186   -1.8077 H         1 <0>         0.1353
     48 H20         5.9704   -8.1730    5.7941 H         1 <0>         0.0737
     49 H21         6.7803   -7.9115    4.2308 H         1 <0>         0.0550
     50 H22         6.4722   -5.8668    5.4267 H         1 <0>         0.3840
     51 H23         4.8157  -11.2923    5.3885 H         1 <0>         0.3831
     52 H24         3.7187  -12.2341    3.9667 H         1 <0>         0.3833
     53 H25         2.3592  -11.1230    1.0096 H         1 <0>         0.3906
@<TRIPOS>BOND
     1    1    2 1
     2    1   34 1
     3    1   35 1
     4    1   36 1
     5    2    3 1
     6    2   37 1
     7    2   38 1
     8    3    4 1
     9    4    9 ar
    10    4    5 ar
    11    5    6 ar
    12    5   39 1
    13    6    7 ar
    14    6   40 1
    15    7    8 ar
    16    7   10 1
    17    8    9 ar
    18    8   41 1
    19    9   42 1
    20   10   11 1
    21   10   43 1
    22   10   44 1
    23   11   16 ar
    24   11   12 ar
    25   12   13 ar
    26   12   45 1
    27   13   14 ar
    28   13   18 1
    29   14   15 ar
    30   14   46 1
    31   15   16 ar
    32   15   47 1
    33   16   17 1
    34   18   19 1
    35   18   28 1
    36   18   20 1
    37   20   21 1
    38   20   22 1
    39   20   33 1
    40   22   23 1
    41   22   24 1
    42   22   32 1
    43   24   25 1
    44   24   26 1
    45   24   31 1
    46   26   27 1
    47   26   28 1
    48   26   29 1
    49   29   30 1
    50   29   48 1
    51   29   49 1
    52   30   50 1
    53   31   51 1
    54   32   52 1
    55   33   53 1
