@<TRIPOS>MOLECULE
ZINC01606984
   64    67     0     0     0
SMALL
USER_CHARGES

@<TRIPOS>ATOM
      1 C1         -0.2117    3.7516    1.9274 C.3       1 <0>        -0.0568
      2 N1         -0.4020    2.3066    1.7432 N.4       1 <0>        -0.2681
      3 C2         -1.8081    1.9617    1.9942 C.3       1 <0>        -0.0446
      4 C3         -2.1777    2.3481    3.4285 C.3       1 <0>         0.0371
      5 O1         -1.3016    1.6767    4.3382 O.3       1 <0>        -0.3645
      6 C4          0.0825    1.9624    4.1184 C.3       1 <0>         0.3228
      7 C5          0.4563    1.5753    2.6853 C.3       1 <0>        -0.0077
      8 C6          0.9203    1.1699    5.0885 C.ar      1 <0>        -0.1329
      9 C7          2.1321    1.6744    5.5246 C.ar      1 <0>        -0.0834
     10 C8          2.9031    0.9530    6.4134 C.ar      1 <0>        -0.1069
     11 C9          2.4588   -0.2857    6.8714 C.ar      1 <0>        -0.0276
     12 C10         1.2373   -0.7891    6.4287 C.ar      1 <0>        -0.1083
     13 C11         0.4719   -0.0568    5.5439 C.ar      1 <0>        -0.0750
     14 C12         3.2837   -1.0661    7.8266 C.ar      1 <0>        -0.0277
     15 C13         4.5027   -0.5602    8.2734 C.ar      1 <0>        -0.1082
     16 C14         5.2657   -1.2901    9.1622 C.ar      1 <0>        -0.0751
     17 C15         4.8224   -2.5218    9.6092 C.ar      1 <0>        -0.1328
     18 C16         3.6131   -3.0287    9.1689 C.ar      1 <0>        -0.0836
     19 C17         2.8393   -2.3047    8.2846 C.ar      1 <0>        -0.1068
     20 C18         5.6604   -3.3145   10.5789 C.3       1 <0>         0.3228
     21 C19         6.6192   -4.2214    9.8034 C.3       1 <0>        -0.0077
     22 N2          7.4745   -4.9498   10.7505 N.4       1 <0>        -0.2682
     23 C20         8.2465   -3.9890   11.5506 C.3       1 <0>        -0.0446
     24 C21         7.2846   -3.0826   12.3228 C.3       1 <0>         0.0371
     25 O2          6.4172   -2.4196   11.3988 O.3       1 <0>        -0.3644
     26 C22         8.3956   -5.8211   10.0085 C.3       1 <0>        -0.0468
     27 C23         6.6368   -5.7660   11.6393 C.3       1 <0>        -0.0569
     28 O3          4.8091   -4.1128   11.4035 O.3       1 <0>        -0.5618
     29 O4          0.3184    3.3584    4.3125 O.3       1 <0>        -0.5618
     30 C24        -0.0449    1.9371    0.3670 C.3       1 <0>        -0.0468
     31 H1          0.8543    3.9767    1.9575 H         1 <0>         0.1238
     32 H2         -0.6730    4.2875    1.0979 H         1 <0>         0.1177
     33 H3         -0.6753    4.0626    2.8636 H         1 <0>         0.1435
     34 H4         -2.4458    2.5038    1.2958 H         1 <0>         0.1447
     35 H5         -1.9493    0.8894    1.8586 H         1 <0>         0.1372
     36 H6         -2.0751    3.4261    3.5530 H         1 <0>         0.0901
     37 H7         -3.2075    2.0539    3.6308 H         1 <0>         0.1447
     38 H8          0.3143    0.5032    2.5495 H         1 <0>         0.1469
     39 H9          1.4996    1.8306    2.5001 H         1 <0>         0.1456
     40 H10         2.4757    2.6345    5.1687 H         1 <0>         0.1391
     41 H11         3.8493    1.3477    6.7530 H         1 <0>         0.1364
     42 H12         0.8883   -1.7488    6.7802 H         1 <0>         0.1357
     43 H13        -0.4770   -0.4442    5.2033 H         1 <0>         0.1375
     44 H14         4.8501    0.4010    7.9245 H         1 <0>         0.1357
     45 H15         6.2107   -0.8990    9.5091 H         1 <0>         0.1375
     46 H16         3.2717   -3.9909    9.5211 H         1 <0>         0.1390
     47 H17         1.8933   -2.6996    7.9446 H         1 <0>         0.1364
     48 H18         6.0460   -4.9332    9.2094 H         1 <0>         0.1456
     49 H19         7.2406   -3.6148    9.1446 H         1 <0>         0.1470
     50 H20         8.8813   -4.5284   12.2536 H         1 <0>         0.1447
     51 H21         8.8673   -3.3825   10.8911 H         1 <0>         0.1372
     52 H22         6.6915   -3.6841   13.0116 H         1 <0>         0.0901
     53 H23         7.8541   -2.3414   12.8835 H         1 <0>         0.1446
     54 H24         9.0173   -5.2152    9.3494 H         1 <0>         0.1218
     55 H25         9.0300   -6.3614   10.7112 H         1 <0>         0.1273
     56 H26         7.8228   -6.5332    9.4144 H         1 <0>         0.1243
     57 H27         5.9115   -6.3222   11.0454 H         1 <0>         0.1238
     58 H28         7.2659   -6.4641   12.1916 H         1 <0>         0.1177
     59 H29         6.1115   -5.1174   12.3403 H         1 <0>         0.1436
     60 H30         4.1756   -3.6019   11.9257 H         1 <0>         0.4083
     61 H31         0.0995    3.6746    5.1998 H         1 <0>         0.4083
     62 H32         0.9983    2.1927    0.1812 H         1 <0>         0.1244
     63 H33        -0.1862    0.8649    0.2304 H         1 <0>         0.1218
     64 H34        -0.6819    2.4794   -0.3317 H         1 <0>         0.1273
@<TRIPOS>BOND
     1    1    2 1
     2    1   31 1
     3    1   32 1
     4    1   33 1
     5    2    7 1
     6    2    3 1
     7    2   30 1
     8    3    4 1
     9    3   34 1
    10    3   35 1
    11    4    5 1
    12    4   36 1
    13    4   37 1
    14    5    6 1
    15    6    7 1
    16    6    8 1
    17    6   29 1
    18    7   38 1
    19    7   39 1
    20    8   13 ar
    21    8    9 ar
    22    9   10 ar
    23    9   40 1
    24   10   11 ar
    25   10   41 1
    26   11   12 ar
    27   11   14 1
    28   12   13 ar
    29   12   42 1
    30   13   43 1
    31   14   19 ar
    32   14   15 ar
    33   15   16 ar
    34   15   44 1
    35   16   17 ar
    36   16   45 1
    37   17   18 ar
    38   17   20 1
    39   18   19 ar
    40   18   46 1
    41   19   47 1
    42   20   25 1
    43   20   21 1
    44   20   28 1
    45   21   22 1
    46   21   48 1
    47   21   49 1
    48   22   23 1
    49   22   26 1
    50   22   27 1
    51   23   24 1
    52   23   50 1
    53   23   51 1
    54   24   25 1
    55   24   52 1
    56   24   53 1
    57   26   54 1
    58   26   55 1
    59   26   56 1
    60   27   57 1
    61   27   58 1
    62   27   59 1
    63   28   60 1
    64   29   61 1
    65   30   62 1
    66   30   63 1
    67   30   64 1
@<TRIPOS>MOLECULE
ZINC40955326
   39    41     0     0     0
SMALL
USER_CHARGES

@<TRIPOS>ATOM
      1 C1         -0.0164    1.3593    0.0095 C.2       1 <0>         0.0399
      2 C2          1.1868    2.0698    0.0018 C.2       1 <0>        -0.3047
      3 C3          2.3785    1.4054   -0.0131 C.2       1 <0>         0.4577
      4 N1          2.4113    0.0392   -0.0208 N.pl3     1 <0>        -0.6441
      5 H1          3.2635   -0.4239   -0.0311 H         1 <0>         0.4073
      6 C4          1.2386   -0.6816   -0.0134 C.2       1 <0>         0.5408
      7 N2          1.2715   -1.9997   -0.0204 N.2       1 <0>        -1.0108
      8 S1          2.7258   -2.7916   -0.0380 S.o2      1 <0>         2.6119
      9 O1          3.3342   -2.4958   -1.2876 O.2       1 <0>        -0.9928
     10 O2          3.3575   -2.5083    1.2030 O.2       1 <0>        -0.9928
     11 C5          2.3783   -4.5190   -0.0434 C.ar      1 <0>        -0.6273
     12 C6          2.2480   -5.1994    1.1540 C.ar      1 <0>        -0.0147
     13 C7          1.9758   -6.5523    1.1558 C.ar      1 <0>        -0.1277
     14 C8          1.8318   -7.2332   -0.0520 C.ar      1 <0>         0.0019
     15 C9          1.9638   -6.5422   -1.2555 C.ar      1 <0>        -0.1277
     16 C10         2.2312   -5.1884   -1.2451 C.ar      1 <0>        -0.0148
     17 C11         1.5399   -8.6869   -0.0566 C.ar      1 <0>        -0.0279
     18 C12         1.4033   -9.3741    1.1498 C.ar      1 <0>        -0.1044
     19 C13         1.1322  -10.7237    1.1470 C.ar      1 <0>        -0.0671
     20 C14         0.9935  -11.4054   -0.0652 C.ar      1 <0>        -0.0207
     21 C15         1.1302  -10.7156   -1.2730 C.ar      1 <0>        -0.0671
     22 C16         1.3964   -9.3651   -1.2673 C.ar      1 <0>        -0.1044
     23 C17         0.7120  -12.8095   -0.0696 C.1       1 <0>         0.2487
     24 N3          0.4888  -13.9233   -0.0731 N.1       1 <0>        -0.4079
     25 C18         0.0021   -0.0041    0.0020 C.2       1 <0>        -0.2232
     26 N4          3.5572    2.1170   -0.0210 N.pl3     1 <0>        -0.8485
     27 H2         -0.9579    1.8882    0.0258 H         1 <0>         0.1486
     28 H3          1.1734    3.1497    0.0074 H         1 <0>         0.1508
     29 H4          2.3597   -4.6708    2.0891 H         1 <0>         0.1436
     30 H5          1.8750   -7.0826    2.0913 H         1 <0>         0.1395
     31 H6          1.8536   -7.0647   -2.1943 H         1 <0>         0.1395
     32 H7          2.3296   -4.6512   -2.1768 H         1 <0>         0.1436
     33 H8          1.5105   -8.8470    2.0863 H         1 <0>         0.1400
     34 H9          1.0272  -11.2556    2.0810 H         1 <0>         0.1386
     35 H10         1.0236  -11.2413   -2.2104 H         1 <0>         0.1386
     36 H11         1.4980   -8.8310   -2.2004 H         1 <0>         0.1400
     37 H12        -0.9233   -0.5608    0.0082 H         1 <0>         0.1622
     38 H13         3.5384    3.0868   -0.0159 H         1 <0>         0.4276
     39 H14         4.4065    1.6485   -0.0316 H         1 <0>         0.4078
@<TRIPOS>BOND
     1    1   25 2
     2    1    2 1
     3    1   27 1
     4    2    3 2
     5    2   28 1
     6    3    4 1
     7    3   26 1
     8    4    5 1
     9    4    6 1
    10    6    7 2
    11    6   25 1
    12    7    8 1
    13    8    9 2
    14    8   10 2
    15    8   11 1
    16   11   16 ar
    17   11   12 ar
    18   12   13 ar
    19   12   29 1
    20   13   14 ar
    21   13   30 1
    22   14   15 ar
    23   14   17 1
    24   15   16 ar
    25   15   31 1
    26   16   32 1
    27   17   22 ar
    28   17   18 ar
    29   18   19 ar
    30   18   33 1
    31   19   20 ar
    32   19   34 1
    33   20   21 ar
    34   20   23 1
    35   21   22 ar
    36   21   35 1
    37   22   36 1
    38   23   24 3
    39   25   37 1
    40   26   38 1
    41   26   39 1
