@<TRIPOS>MOLECULE
ZINC68197809
   55    58     0     0     0
SMALL
USER_CHARGES

@<TRIPOS>ATOM
      1 C1         -0.0187    1.5258    0.0104 C.3       1 <0>        -0.1529
      2 C2          0.0021   -0.0041    0.0020 C.3       1 <0>         0.0542
      3 O1          0.6709   -0.4649   -1.1737 O.3       1 <0>        -0.3173
      4 C3          0.7768   -1.8100   -1.3361 C.ar      1 <0>         0.1296
      5 C4          0.2427   -2.6687   -0.3864 C.ar      1 <0>        -0.2075
      6 C5          0.3511   -4.0357   -0.5541 C.ar      1 <0>        -0.0716
      7 C6          0.9917   -4.5482   -1.6671 C.ar      1 <0>        -0.1173
      8 C7          1.5253   -3.6944   -2.6148 C.ar      1 <0>        -0.0717
      9 C8          1.4140   -2.3268   -2.4548 C.ar      1 <0>        -0.1526
     10 C9          1.1090   -6.0397   -1.8472 C.3       1 <0>        -0.0392
     11 C10        -0.0856   -6.5489   -2.6119 C.ar      1 <0>        -0.0708
     12 C11         0.0208   -6.8134   -3.9645 C.ar      1 <0>        -0.0742
     13 C12        -1.0748   -7.2804   -4.6660 C.ar      1 <0>        -0.0687
     14 C13        -2.2777   -7.4832   -4.0153 C.ar      1 <0>        -0.0593
     15 C14        -2.3854   -7.2192   -2.6631 C.ar      1 <0>        -0.1122
     16 C15        -1.2873   -6.7571   -1.9592 C.ar      1 <0>        -0.0181
     17 Cl1        -1.4200   -6.4314   -0.2591 Cl        1 <0>        -0.0633
     18 C16        -0.9582   -7.5681   -6.1406 C.3       1 <0>         0.3127
     19 C17        -1.2859   -6.3244   -6.9813 C.3       1 <0>         0.0488
     20 H1         -0.5257   -5.5610   -6.8159 H         1 <0>         0.0857
     21 C18        -1.3036   -6.7190   -8.4621 C.3       1 <0>         0.0360
     22 H2         -2.1556   -7.3710   -8.6547 H         1 <0>         0.0890
     23 C19        -0.0054   -7.4587   -8.8045 C.3       1 <0>         0.1014
     24 H3          0.8362   -6.7687   -8.7432 H         1 <0>         0.0835
     25 C20         0.1881   -8.6003   -7.7930 C.3       1 <0>         0.0867
     26 O2          0.3778   -7.9911   -6.4917 O.3       1 <0>        -0.3325
     27 C21        -1.1702   -9.3226   -7.6329 C.3       1 <0>         0.0282
     28 O3         -1.8291   -8.6437   -6.5366 O.3       1 <0>        -0.3557
     29 C22         1.3325   -9.5395   -8.1792 C.3       1 <0>         0.1050
     30 O4          1.3791  -10.6354   -7.2632 O.3       1 <0>        -0.5636
     31 O5         -0.0922   -7.9935  -10.1268 O.3       1 <0>        -0.5506
     32 O6         -1.4107   -5.5436   -9.2677 O.3       1 <0>        -0.5570
     33 O7         -2.5664   -5.8148   -6.6035 O.3       1 <0>        -0.5369
     34 H4          1.0039    1.9031    0.0027 H         1 <0>         0.0666
     35 H5         -0.5459    1.8868   -0.8726 H         1 <0>         0.0664
     36 H6         -0.5289    1.8773    0.9072 H         1 <0>         0.0790
     37 H7          0.5293   -0.3651    0.8851 H         1 <0>         0.0620
     38 H8         -1.0205   -0.3814    0.0098 H         1 <0>         0.0617
     39 H9         -0.2572   -2.2689    0.4835 H         1 <0>         0.1263
     40 H10        -0.0645   -4.7046    0.1850 H         1 <0>         0.1296
     41 H11         2.0255   -4.0972   -3.4831 H         1 <0>         0.1272
     42 H12         1.8270   -1.6604   -3.1976 H         1 <0>         0.1295
     43 H13         2.0194   -6.2683   -2.4013 H         1 <0>         0.0870
     44 H14         1.1475   -6.5218   -0.8703 H         1 <0>         0.0885
     45 H15         0.9602   -6.6548   -4.4733 H         1 <0>         0.1357
     46 H16        -3.1335   -7.8478   -4.5640 H         1 <0>         0.1393
     47 H17        -3.3252   -7.3774   -2.1550 H         1 <0>         0.1380
     48 H18        -1.7537   -9.2402   -8.5499 H         1 <0>         0.0955
     49 H19        -1.0143  -10.3700   -7.3746 H         1 <0>         0.1029
     50 H20         1.1681   -9.9165   -9.1887 H         1 <0>         0.0828
     51 H21         2.2765   -8.9958   -8.1437 H         1 <0>         0.0643
     52 H22         2.0826  -11.2726   -7.4479 H         1 <0>         0.3885
     53 H23        -0.2280   -7.3258  -10.8130 H         1 <0>         0.3954
     54 H24        -2.2092   -5.0242   -9.1016 H         1 <0>         0.3858
     55 H25        -2.8373   -5.0277   -7.0956 H         1 <0>         0.3800
@<TRIPOS>BOND
     1    1    2 1
     2    1   34 1
     3    1   35 1
     4    1   36 1
     5    2    3 1
     6    2   37 1
     7    2   38 1
     8    3    4 1
     9    4    9 ar
    10    4    5 ar
    11    5    6 ar
    12    5   39 1
    13    6    7 ar
    14    6   40 1
    15    7    8 ar
    16    7   10 1
    17    8    9 ar
    18    8   41 1
    19    9   42 1
    20   10   11 1
    21   10   43 1
    22   10   44 1
    23   11   16 ar
    24   11   12 ar
    25   12   13 ar
    26   12   45 1
    27   13   14 ar
    28   13   18 1
    29   14   15 ar
    30   14   46 1
    31   15   16 ar
    32   15   47 1
    33   16   17 1
    34   18   26 1
    35   18   28 1
    36   18   19 1
    37   19   20 1
    38   19   21 1
    39   19   33 1
    40   21   22 1
    41   21   23 1
    42   21   32 1
    43   23   24 1
    44   23   25 1
    45   23   31 1
    46   25   26 1
    47   25   27 1
    48   25   29 1
    49   27   28 1
    50   27   48 1
    51   27   49 1
    52   29   30 1
    53   29   50 1
    54   29   51 1
    55   30   52 1
    56   31   53 1
    57   32   54 1
    58   33   55 1
@<TRIPOS>MOLECULE
ZINC03875408
   55    57     0     0     0
SMALL
USER_CHARGES

@<TRIPOS>ATOM
      1 C1         -0.0167    1.3784    0.0096 C.ar      1 <0>        -0.0985
      2 C2          1.1695    2.0865    0.0021 C.ar      1 <0>        -0.1418
      3 C3          2.3802    1.4093   -0.0131 C.ar      1 <0>         0.0997
      4 C4          2.3963    0.0221   -0.0206 C.ar      1 <0>        -0.1429
      5 C5          1.2074   -0.6814   -0.0130 C.ar      1 <0>        -0.1009
      6 C6          0.0021   -0.0041    0.0020 C.ar      1 <0>        -0.0890
      7 C7         -1.2934   -0.7740    0.0107 C.3       1 <0>        -0.0740
      8 C8         -1.7461   -1.0268   -1.4288 C.3       1 <0>        -0.1470
      9 C9         -3.0415   -1.7967   -1.4201 C.2       1 <0>         0.4003
     10 O1         -3.5528   -2.1124   -0.3655 O.2       1 <0>        -0.4431
     11 C10        -3.6821   -2.1633   -2.6814 C.ar      1 <0>        -0.2419
     12 C11        -3.0901   -1.8044   -3.9072 C.ar      1 <0>         0.2081
     13 C12        -3.7036   -2.1555   -5.0944 C.ar      1 <0>        -0.2186
     14 C13        -4.9010   -2.8605   -5.0811 C.ar      1 <0>         0.2000
     15 C14        -5.4934   -3.2188   -3.8767 C.ar      1 <0>        -0.2385
     16 C15        -4.8920   -2.8823   -2.6785 C.ar      1 <0>         0.2154
     17 O2         -5.4688   -3.2388   -1.5041 O.3       1 <0>        -0.2615
     18 C16        -6.6959   -3.9672   -1.5787 C.3       1 <0>         0.2189
     19 H1         -6.5547   -4.8552   -2.1948 H         1 <0>         0.0786
     20 C17        -7.1276   -4.3858   -0.1708 C.3       1 <0>         0.0637
     21 H2         -7.2296   -3.5008    0.4572 H         1 <0>         0.0891
     22 C18        -8.4731   -5.1132   -0.2529 C.3       1 <0>         0.0865
     23 H3         -8.3597   -6.0246   -0.8399 H         1 <0>         0.0785
     24 C19        -9.4975   -4.1944   -0.9258 C.3       1 <0>         0.0894
     25 H4         -9.6474   -3.3055   -0.3131 H         1 <0>         0.0819
     26 C20        -8.9743   -3.7831   -2.3046 C.3       1 <0>         0.1090
     27 H5         -8.8631   -4.6688   -2.9302 H         1 <0>         0.0835
     28 O3         -7.7064   -3.1402   -2.1593 O.3       1 <0>        -0.3707
     29 C21        -9.9645   -2.8174   -2.9587 C.3       1 <0>         0.0899
     30 O4         -9.5355   -2.5248   -4.2900 O.3       1 <0>        -0.5644
     31 O5        -10.7381   -4.8885   -1.0720 O.3       1 <0>        -0.5491
     32 O6         -8.9183   -5.4449    1.0639 O.3       1 <0>        -0.5531
     33 O7         -6.1450   -5.2587    0.3901 O.3       1 <0>        -0.5542
     34 O8         -5.4958   -3.2007   -6.2521 O.3       1 <0>        -0.4888
     35 O9         -1.9217   -1.1160   -3.9227 O.3       1 <0>        -0.4825
     36 O10         3.5484    2.1036   -0.0209 O.3       1 <0>        -0.5007
     37 H6         -0.9594    1.9052    0.0259 H         1 <0>         0.1267
     38 H7          1.1543    3.1664    0.0076 H         1 <0>         0.1284
     39 H8          3.3375   -0.5074   -0.0328 H         1 <0>         0.1280
     40 H9          1.2194   -1.7613   -0.0189 H         1 <0>         0.1261
     41 H10        -1.1460   -1.7274    0.5180 H         1 <0>         0.0778
     42 H11        -2.0553   -0.1973    0.5352 H         1 <0>         0.0786
     43 H12        -1.8934   -0.0734   -1.9361 H         1 <0>         0.1101
     44 H13        -0.9842   -1.6035   -1.9533 H         1 <0>         0.0946
     45 H14        -3.2512   -1.8809   -6.0358 H         1 <0>         0.1457
     46 H15        -6.4243   -3.7663   -3.8766 H         1 <0>         0.1474
     47 H16       -10.9532   -3.2753   -2.9880 H         1 <0>         0.0792
     48 H17       -10.0084   -1.8948   -2.3801 H         1 <0>         0.0575
     49 H18       -10.1175   -1.9168   -4.7661 H         1 <0>         0.3856
     50 H19       -11.1251   -5.1826   -0.2361 H         1 <0>         0.3959
     51 H20        -8.3127   -6.0207    1.5504 H         1 <0>         0.3964
     52 H21        -5.2659   -4.8633    0.4675 H         1 <0>         0.3987
     53 H22        -5.2201   -4.0606   -6.5980 H         1 <0>         0.4002
     54 H23        -1.1345   -1.6775   -3.9334 H         1 <0>         0.4007
     55 H24         3.8951    2.3001    0.8601 H         1 <0>         0.3908
@<TRIPOS>BOND
     1    1    6 ar
     2    1    2 ar
     3    1   37 1
     4    2    3 ar
     5    2   38 1
     6    3    4 ar
     7    3   36 1
     8    4    5 ar
     9    4   39 1
    10    5    6 ar
    11    5   40 1
    12    6    7 1
    13    7    8 1
    14    7   41 1
    15    7   42 1
    16    8    9 1
    17    8   43 1
    18    8   44 1
    19    9   10 2
    20    9   11 1
    21   11   16 ar
    22   11   12 ar
    23   12   13 ar
    24   12   35 1
    25   13   14 ar
    26   13   45 1
    27   14   15 ar
    28   14   34 1
    29   15   16 ar
    30   15   46 1
    31   16   17 1
    32   17   18 1
    33   18   19 1
    34   18   28 1
    35   18   20 1
    36   20   21 1
    37   20   22 1
    38   20   33 1
    39   22   23 1
    40   22   24 1
    41   22   32 1
    42   24   25 1
    43   24   26 1
    44   24   31 1
    45   26   27 1
    46   26   28 1
    47   26   29 1
    48   29   30 1
    49   29   47 1
    50   29   48 1
    51   30   49 1
    52   31   50 1
    53   32   51 1
    54   33   52 1
    55   34   53 1
    56   35   54 1
    57   36   55 1
@<TRIPOS>MOLECULE
ZINC03819138
   53    55     0     0     0
SMALL
USER_CHARGES
2-[4-chloro-3-[(4-ethoxyphenyl)methyl]phenyl]-6-(hydroxymethyl)tetrahydropyran-3,4,5-triol
@<TRIPOS>ATOM
      1 C1         -0.0187    1.5258    0.0104 C.3       1 <0>        -0.1531
      2 C2          0.0021   -0.0041    0.0020 C.3       1 <0>         0.0543
      3 O1          0.6709   -0.4649   -1.1737 O.3       1 <0>        -0.3170
      4 C3          0.7768   -1.8100   -1.3361 C.ar      1 <0>         0.1297
      5 C4          0.2527   -2.6686   -0.3807 C.ar      1 <0>        -0.2083
      6 C5          0.3569   -4.0356   -0.5508 C.ar      1 <0>        -0.0705
      7 C6          0.9921   -4.5482   -1.6669 C.ar      1 <0>        -0.1179
      8 C7          1.5202   -3.6945   -2.6177 C.ar      1 <0>        -0.0727
      9 C8          1.4140   -2.3268   -2.4548 C.ar      1 <0>        -0.1515
     10 C9          1.1094   -6.0397   -1.8470 C.3       1 <0>        -0.0392
     11 C10         2.3855   -6.5241   -1.2084 C.ar      1 <0>        -0.0671
     12 C11         2.3541   -7.1035    0.0463 C.ar      1 <0>        -0.0744
     13 C12         3.5239   -7.5521    0.6302 C.ar      1 <0>        -0.0675
     14 C13         4.7274   -7.4120   -0.0357 C.ar      1 <0>        -0.0847
     15 C14         4.7608   -6.8282   -1.2878 C.ar      1 <0>        -0.1101
     16 C15         3.5894   -6.3837   -1.8751 C.ar      1 <0>        -0.0231
     17 Cl1         3.6305   -5.6507   -3.4482 Cl        1 <0>        -0.0639
     18 C16         3.4882   -8.1884    1.9958 C.3       1 <0>         0.1396
     19 H1          2.5674   -7.9044    2.5052 H         1 <0>         0.0821
     20 C17         3.5429   -9.7114    1.8509 C.3       1 <0>         0.0969
     21 H2          4.4437   -9.9934    1.3058 H         1 <0>         0.0749
     22 C18         3.5670  -10.3485    3.2438 C.3       1 <0>         0.0383
     23 H3          2.6439  -10.1076    3.7709 H         1 <0>         0.0787
     24 C19         4.7627   -9.7955    4.0254 C.3       1 <0>         0.0486
     25 H4          5.6882  -10.0792    3.5242 H         1 <0>         0.0797
     26 C20         4.6609   -8.2692    4.0862 C.3       1 <0>         0.0987
     27 H5          3.7554   -7.9864    4.6231 H         1 <0>         0.0804
     28 O2          4.6116   -7.7431    2.7585 O.3       1 <0>        -0.3417
     29 C21         5.8828   -7.7047    4.8138 C.3       1 <0>         0.0898
     30 O3          5.7325   -6.2925    4.9722 O.3       1 <0>        -0.5653
     31 O4          4.7539  -10.3280    5.3514 O.3       1 <0>        -0.5522
     32 O5          3.6910  -11.7667    3.1206 O.3       1 <0>        -0.5572
     33 O6          2.3903  -10.1651    1.1383 O.3       1 <0>        -0.5476
     34 H6          1.0039    1.9031    0.0027 H         1 <0>         0.0666
     35 H7         -0.5459    1.8868   -0.8726 H         1 <0>         0.0665
     36 H8         -0.5289    1.8773    0.9072 H         1 <0>         0.0788
     37 H9          0.5293   -0.3651    0.8851 H         1 <0>         0.0617
     38 H10        -1.0205   -0.3814    0.0098 H         1 <0>         0.0617
     39 H11        -0.2399   -2.2687    0.4932 H         1 <0>         0.1267
     40 H12        -0.0548   -4.7045    0.1905 H         1 <0>         0.1233
     41 H13         2.0159   -4.0973   -3.4886 H         1 <0>         0.1332
     42 H14         1.8270   -1.6604   -3.1976 H         1 <0>         0.1294
     43 H15         0.2580   -6.5307   -1.3756 H         1 <0>         0.0862
     44 H16         1.1225   -6.2773   -2.9108 H         1 <0>         0.0883
     45 H17         1.4148   -7.2091    0.5688 H         1 <0>         0.1324
     46 H18         5.6416   -7.7593    0.4226 H         1 <0>         0.1338
     47 H19         5.7011   -6.7186   -1.8077 H         1 <0>         0.1353
     48 H20         5.9704   -8.1730    5.7941 H         1 <0>         0.0737
     49 H21         6.7803   -7.9115    4.2308 H         1 <0>         0.0550
     50 H22         6.4722   -5.8668    5.4267 H         1 <0>         0.3840
     51 H23         4.8157  -11.2923    5.3885 H         1 <0>         0.3831
     52 H24         3.7187  -12.2341    3.9667 H         1 <0>         0.3833
     53 H25         2.3592  -11.1230    1.0096 H         1 <0>         0.3906
@<TRIPOS>BOND
     1    1    2 1
     2    1   34 1
     3    1   35 1
     4    1   36 1
     5    2    3 1
     6    2   37 1
     7    2   38 1
     8    3    4 1
     9    4    9 ar
    10    4    5 ar
    11    5    6 ar
    12    5   39 1
    13    6    7 ar
    14    6   40 1
    15    7    8 ar
    16    7   10 1
    17    8    9 ar
    18    8   41 1
    19    9   42 1
    20   10   11 1
    21   10   43 1
    22   10   44 1
    23   11   16 ar
    24   11   12 ar
    25   12   13 ar
    26   12   45 1
    27   13   14 ar
    28   13   18 1
    29   14   15 ar
    30   14   46 1
    31   15   16 ar
    32   15   47 1
    33   16   17 1
    34   18   19 1
    35   18   28 1
    36   18   20 1
    37   20   21 1
    38   20   22 1
    39   20   33 1
    40   22   23 1
    41   22   24 1
    42   22   32 1
    43   24   25 1
    44   24   26 1
    45   24   31 1
    46   26   27 1
    47   26   28 1
    48   26   29 1
    49   29   30 1
    50   29   48 1
    51   29   49 1
    52   30   50 1
    53   31   51 1
    54   32   52 1
    55   33   53 1
