@<TRIPOS>MOLECULE
ZINC01566370
   24    23     0     0     0
SMALL
USER_CHARGES
3-hydroxypropyl-trimethyl-ammonium
@<TRIPOS>ATOM
      1 C1          1.6748    5.6062    1.2157 C.3       1 <0>        -0.0523
      2 N1          2.3981    5.1891    0.0070 N.4       1 <0>        -0.2701
      3 C2          3.7319    5.8048   -0.0024 C.3       1 <0>        -0.0448
      4 C3          1.6519    5.6191   -1.1830 C.3       1 <0>        -0.0523
      5 C4          2.5340    3.7264   -0.0021 C.3       1 <0>        -0.0053
      6 C5          1.1449    3.0852    0.0077 C.3       1 <0>        -0.1544
      7 C6          1.2864    1.5618   -0.0018 C.3       1 <0>         0.0795
      8 O1         -0.0110    0.9628    0.0073 O.3       1 <0>        -0.5713
      9 H1          2.2285    5.2872    2.0987 H         1 <0>         0.1226
     10 H2          1.5740    6.6915    1.2225 H         1 <0>         0.1238
     11 H3          0.6852    5.1493    1.2227 H         1 <0>         0.1241
     12 H4          4.2686    5.4954   -0.8992 H         1 <0>         0.1220
     13 H5          3.6311    6.8901    0.0044 H         1 <0>         0.1238
     14 H6          4.2855    5.4858    0.8806 H         1 <0>         0.1219
     15 H7          0.6623    5.1622   -1.1761 H         1 <0>         0.1241
     16 H8          1.5511    6.7044   -1.1763 H         1 <0>         0.1239
     17 H9          2.1886    5.3096   -2.0799 H         1 <0>         0.1226
     18 H10         3.0877    3.4074    0.8809 H         1 <0>         0.1308
     19 H11         3.0707    3.4170   -0.8989 H         1 <0>         0.1308
     20 H12         0.5912    3.4042   -0.8753 H         1 <0>         0.0952
     21 H13         0.6082    3.3946    0.9045 H         1 <0>         0.0952
     22 H14         1.8401    1.2428    0.8812 H         1 <0>         0.0563
     23 H15         1.8231    1.2523   -0.8987 H         1 <0>         0.0563
     24 H16         0.0021   -0.0041    0.0020 H         1 <0>         0.3976
@<TRIPOS>BOND
     1    1    2 1
     2    1    9 1
     3    1   10 1
     4    1   11 1
     5    2    3 1
     6    2    4 1
     7    2    5 1
     8    3   12 1
     9    3   13 1
    10    3   14 1
    11    4   15 1
    12    4   16 1
    13    4   17 1
    14    5    6 1
    15    5   18 1
    16    5   19 1
    17    6    7 1
    18    6   20 1
    19    6   21 1
    20    7    8 1
    21    7   22 1
    22    7   23 1
    23    8   24 1
@<TRIPOS>MOLECULE
ZINC03171364
   24    25     0     0     0
SMALL
USER_CHARGES
1-methyl-1-azoniabicyclo[2.2.2]octan-5-one
@<TRIPOS>ATOM
      1 C1         -0.1001    5.1166    0.1140 C.3       1 <0>        -0.0484
      2 N1         -0.0767    3.6478    0.1045 N.4       1 <0>        -0.2615
      3 C2          1.3167    3.2001    0.0941 C.3       1 <0>        -0.0117
      4 C3          1.4064    1.6775   -0.0024 C.3       1 <0>        -0.1381
      5 C4         -0.0127    1.0858    0.0080 C.3       1 <0>        -0.1289
      6 C5         -0.7525    1.6556   -1.2152 C.3       1 <0>        -0.1315
      7 C6         -0.7805    3.1744   -1.0883 C.3       1 <0>        -0.0139
      8 C7         -0.7108    1.6379    1.2466 C.2       1 <0>         0.3480
      9 O1         -1.1738    0.9293    2.1080 O.2       1 <0>        -0.3792
     10 C8         -0.7613    3.1564    1.3122 C.3       1 <0>        -0.0342
     11 H1          0.4030    5.4937   -0.7764 H         1 <0>         0.1285
     12 H2         -1.1334    5.4635    0.1218 H         1 <0>         0.1265
     13 H3          0.4127    5.4824    1.0035 H         1 <0>         0.1260
     14 H4          1.8048    3.5295    1.0113 H         1 <0>         0.1323
     15 H5          1.8280    3.6431   -0.7606 H         1 <0>         0.1383
     16 H6          1.9682    1.2912    0.8481 H         1 <0>         0.1071
     17 H7          1.9101    1.3994   -0.9281 H         1 <0>         0.1165
     18 H8          0.0424    0.0874   -0.0001 H         1 <0>         0.1260
     19 H9         -0.2316    1.3608   -2.1261 H         1 <0>         0.1177
     20 H10        -1.7721    1.2708   -1.2363 H         1 <0>         0.1075
     21 H11        -1.8141    3.5185   -1.0531 H         1 <0>         0.1343
     22 H12        -0.2981    3.5866   -1.9745 H         1 <0>         0.1359
     23 H13        -0.2916    3.5009    2.1250 H         1 <0>         0.1400
     24 H14        -1.7970    3.4960    1.3194 H         1 <0>         0.1626
@<TRIPOS>BOND
     1    1    2 1
     2    1   11 1
     3    1   12 1
     4    1   13 1
     5    2    7 1
     6    2   10 1
     7    2    3 1
     8    3    4 1
     9    3   14 1
    10    3   15 1
    11    4    5 1
    12    4   16 1
    13    4   17 1
    14    5    6 1
    15    5    8 1
    16    5   18 1
    17    6    7 1
    18    6   19 1
    19    6   20 1
    20    7   21 1
    21    7   22 1
    22    8    9 2
    23    8   10 1
    24   10   23 1
    25   10   24 1
@<TRIPOS>MOLECULE
ZINC03079337
   21    20     0     0     0
SMALL
USER_CHARGES

@<TRIPOS>ATOM
      1 C1          0.5353    1.3276   -0.0083 C.3       1 <0>        -0.0523
      2 N1          0.0196   -0.0467    0.0486 N.4       1 <0>        -0.2694
      3 C2          0.5077   -0.7028    1.2690 C.3       1 <0>        -0.0445
      4 C3         -1.4491   -0.0184    0.0619 C.3       1 <0>        -0.0461
      5 C4          0.4843   -0.7933   -1.1281 C.3       1 <0>        -0.0051
      6 C5          2.0106   -0.7224   -1.2069 C.3       1 <0>         0.0444
      7 O1          2.5782   -1.4500   -0.1158 O.3       1 <0>        -0.5744
      8 H1          1.6251    1.3065   -0.0182 H         1 <0>         0.1223
      9 H2          0.1731    1.8144   -0.9138 H         1 <0>         0.1210
     10 H3          0.1905    1.8815    0.8648 H         1 <0>         0.1233
     11 H4          0.0233   -0.2590    2.1387 H         1 <0>         0.1126
     12 H5          0.2753   -1.7669    1.2272 H         1 <0>         0.1183
     13 H6          1.5867   -0.5693    1.3464 H         1 <0>         0.1382
     14 H7         -1.8113    0.4684   -0.8436 H         1 <0>         0.1204
     15 H8         -1.8318   -1.0382    0.1042 H         1 <0>         0.1213
     16 H9         -1.7939    0.5355    0.9350 H         1 <0>         0.1225
     17 H10         0.1727   -1.8345   -1.0442 H         1 <0>         0.1353
     18 H11         0.0533   -0.3566   -2.0290 H         1 <0>         0.1398
     19 H12         2.3464   -1.1581   -2.1480 H         1 <0>         0.0943
     20 H13         2.3292    0.3186   -1.1543 H         1 <0>         0.0737
     21 H14         3.5451   -1.4478   -0.1023 H         1 <0>         0.4045
@<TRIPOS>BOND
     1    1    2 1
     2    1    8 1
     3    1    9 1
     4    1   10 1
     5    2    3 1
     6    2    4 1
     7    2    5 1
     8    3   11 1
     9    3   12 1
    10    3   13 1
    11    4   14 1
    12    4   15 1
    13    4   16 1
    14    5    6 1
    15    5   17 1
    16    5   18 1
    17    6    7 1
    18    6   19 1
    19    6   20 1
    20    7   21 1
