@<TRIPOS>MOLECULE
ZINC22454217
   64    67     0     0     0
SMALL
USER_CHARGES

@<TRIPOS>ATOM
      1 C1         -0.0167    1.3792    0.0096 C.ar      1 <0>        -0.1105
      2 C2          1.1683    2.0931    0.0021 C.ar      1 <0>        -0.1181
      3 C3          2.3774    1.4286   -0.0134 C.ar      1 <0>        -0.1048
      4 C4          2.4032    0.0335   -0.0212 C.ar      1 <0>        -0.0729
      5 C5          1.2045   -0.6806   -0.0131 C.ar      1 <0>        -0.1105
      6 C6          0.0021   -0.0041    0.0020 C.ar      1 <0>        -0.1190
      7 C7          3.6950   -0.6848   -0.0384 C.2       1 <0>        -0.0906
      8 C8          3.7162   -2.0103   -0.0457 C.2       1 <0>        -0.1638
      9 C9          5.0332   -2.7426   -0.0633 C.3       1 <0>         0.0886
     10 N1          5.0868   -3.6810    1.0657 N.3       1 <0>        -0.5350
     11 C10         5.1095   -2.9621    2.3475 C.3       1 <0>         0.0250
     12 C11         5.1049   -3.9732    3.4961 C.3       1 <0>        -0.0021
     13 N2          6.2803   -4.8469    3.3842 N.4       1 <0>        -0.3860
     14 C12         6.2308   -5.5764    2.1103 C.3       1 <0>        -0.0074
     15 C13         6.2448   -4.5786    0.9501 C.3       1 <0>         0.0273
     16 C14         6.2851   -5.8056    4.4972 C.3       1 <0>        -0.0009
     17 C15         7.5715   -6.6328    4.4522 C.3       1 <0>         0.0269
     18 O1          8.6946   -5.7799    4.6831 O.3       1 <0>        -0.3835
     19 C16         9.9527   -6.4571    4.6617 C.3       1 <0>         0.1916
     20 C17        10.5002   -6.4557    3.2576 C.ar      1 <0>        -0.1342
     21 C18        10.3778   -5.3264    2.4697 C.ar      1 <0>        -0.0735
     22 C19        10.8798   -5.3237    1.1822 C.ar      1 <0>        -0.1563
     23 C20        11.5056   -6.4527    0.6814 C.ar      1 <0>         0.1143
     24 C21        11.6276   -7.5832    1.4714 C.ar      1 <0>        -0.1475
     25 C22        11.1295   -7.5818    2.7605 C.ar      1 <0>        -0.0734
     26 F1         11.9964   -6.4515   -0.5773 F         1 <0>        -0.1314
     27 C23        10.9187   -5.7514    5.5782 C.ar      1 <0>        -0.1092
     28 C24        10.8687   -4.3759    5.7074 C.ar      1 <0>        -0.0629
     29 C25        11.7537   -3.7277    6.5479 C.ar      1 <0>        -0.1556
     30 C26        12.6907   -4.4565    7.2608 C.ar      1 <0>         0.1143
     31 C27        12.7398   -5.8340    7.1305 C.ar      1 <0>        -0.1493
     32 C28        11.8503   -6.4806    6.2934 C.ar      1 <0>        -0.0737
     33 F2         13.5566   -3.8238    8.0824 F         1 <0>        -0.1319
     34 H1         -0.9604    1.9041    0.0260 H         1 <0>         0.1261
     35 H2          1.1469    3.1729    0.0082 H         1 <0>         0.1269
     36 H3          3.3018    1.9870   -0.0200 H         1 <0>         0.1241
     37 H4          1.2178   -1.7605   -0.0194 H         1 <0>         0.1237
     38 H5         -0.9265   -0.5556    0.0079 H         1 <0>         0.1258
     39 H6          4.6214   -0.1298   -0.0450 H         1 <0>         0.1176
     40 H7          2.7898   -2.5653   -0.0392 H         1 <0>         0.1246
     41 H8          5.1300   -3.2938   -0.9987 H         1 <0>         0.0978
     42 H9          5.8492   -2.0250    0.0217 H         1 <0>         0.0512
     43 H10         6.0096   -2.3501    2.4053 H         1 <0>         0.0600
     44 H11         4.2295   -2.3232    2.4218 H         1 <0>         0.1257
     45 H12         5.1361   -3.4423    4.4476 H         1 <0>         0.1361
     46 H13         4.1981   -4.5759    3.4460 H         1 <0>         0.1385
     47 H14         7.0968   -6.2340    2.0343 H         1 <0>         0.1339
     48 H15         5.3182   -6.1709    2.0672 H         1 <0>         0.1392
     49 H16         6.1930   -5.1191    0.0050 H         1 <0>         0.1237
     50 H17         7.1636   -3.9932    0.9849 H         1 <0>         0.0608
     51 H18         6.2335   -5.2653    5.4425 H         1 <0>         0.1415
     52 H19         5.4239   -6.4680    4.4099 H         1 <0>         0.1457
     53 H20         7.5355   -7.4028    5.2230 H         1 <0>         0.1023
     54 H21         7.6672   -7.1027    3.4734 H         1 <0>         0.0779
     55 H22         9.8178   -7.4851    4.9980 H         1 <0>         0.0920
     56 H23         9.8893   -4.4460    2.8604 H         1 <0>         0.1286
     57 H24        10.7837   -4.4415    0.5667 H         1 <0>         0.1382
     58 H25        12.1153   -8.4646    1.0817 H         1 <0>         0.1431
     59 H26        11.2285   -8.4619    3.3785 H         1 <0>         0.1369
     60 H27        10.1380   -3.8077    5.1510 H         1 <0>         0.1309
     61 H28        11.7147   -2.6531    6.6485 H         1 <0>         0.1394
     62 H29        13.4704   -6.4034    7.6858 H         1 <0>         0.1429
     63 H30        11.8855   -7.5555    6.1951 H         1 <0>         0.1355
     64 H31         7.1194   -4.2876    3.4189 H         1 <0>         0.4255
@<TRIPOS>BOND
     1    1    6 ar
     2    1    2 ar
     3    1   34 1
     4    2    3 ar
     5    2   35 1
     6    3    4 ar
     7    3   36 1
     8    4    5 ar
     9    4    7 1
    10    5    6 ar
    11    5   37 1
    12    6   38 1
    13    7    8 2
    14    7   39 1
    15    8    9 1
    16    8   40 1
    17    9   10 1
    18    9   41 1
    19    9   42 1
    20   10   15 1
    21   10   11 1
    22   11   12 1
    23   11   43 1
    24   11   44 1
    25   12   13 1
    26   12   45 1
    27   12   46 1
    28   13   14 1
    29   13   16 1
    30   13   64 1
    31   14   15 1
    32   14   47 1
    33   14   48 1
    34   15   49 1
    35   15   50 1
    36   16   17 1
    37   16   51 1
    38   16   52 1
    39   17   18 1
    40   17   53 1
    41   17   54 1
    42   18   19 1
    43   19   20 1
    44   19   27 1
    45   19   55 1
    46   20   25 ar
    47   20   21 ar
    48   21   22 ar
    49   21   56 1
    50   22   23 ar
    51   22   57 1
    52   23   24 ar
    53   23   26 1
    54   24   25 ar
    55   24   58 1
    56   25   59 1
    57   27   32 ar
    58   27   28 ar
    59   28   29 ar
    60   28   60 1
    61   29   30 ar
    62   29   61 1
    63   30   31 ar
    64   30   33 1
    65   31   32 ar
    66   31   62 1
    67   32   63 1
@<TRIPOS>MOLECULE
ZINC22454217
   64    67     0     0     0
SMALL
USER_CHARGES

@<TRIPOS>ATOM
      1 C1         -0.0167    1.3792    0.0096 C.ar      1 <0>        -0.0947
      2 C2          1.1683    2.0931    0.0021 C.ar      1 <0>        -0.1191
      3 C3          2.3774    1.4286   -0.0134 C.ar      1 <0>        -0.0898
      4 C4          2.4032    0.0335   -0.0212 C.ar      1 <0>        -0.0993
      5 C5          1.2045   -0.6806   -0.0131 C.ar      1 <0>        -0.1001
      6 C6          0.0021   -0.0041    0.0020 C.ar      1 <0>        -0.1213
      7 C7          3.6950   -0.6848   -0.0384 C.2       1 <0>        -0.0157
      8 C8          3.7162   -2.0103   -0.0457 C.2       1 <0>        -0.2511
      9 C9          5.0332   -2.7426   -0.0633 C.3       1 <0>         0.0386
     10 N1          5.0868   -3.6810    1.0657 N.4       1 <0>        -0.3846
     11 C10         5.0750   -2.9294    2.3276 C.3       1 <0>        -0.0011
     12 C11         5.1117   -3.9071    3.5043 C.3       1 <0>         0.0278
     13 N2          6.3261   -4.7303    3.4157 N.3       1 <0>        -0.5276
     14 C12         6.3640   -5.4697    2.1461 C.3       1 <0>         0.0215
     15 C13         6.3169   -4.4791    0.9807 C.3       1 <0>        -0.0015
     16 C14         6.4268   -5.6449    4.5608 C.3       1 <0>         0.0576
     17 C15         7.8088   -6.3012    4.5694 C.3       1 <0>         0.0611
     18 O1          8.8081   -5.3045    4.7926 O.3       1 <0>        -0.3548
     19 C16        10.1426   -5.8150    4.8190 C.3       1 <0>         0.1801
     20 C17        10.7185   -5.7877    3.4267 C.ar      1 <0>        -0.1229
     21 C18        10.4718   -4.7088    2.5982 C.ar      1 <0>        -0.0609
     22 C19        10.9998   -4.6824    1.3214 C.ar      1 <0>        -0.1619
     23 C20        11.7762   -5.7370    0.8719 C.ar      1 <0>         0.1057
     24 C21        12.0226   -6.8171    1.7025 C.ar      1 <0>        -0.1525
     25 C22        11.4979   -6.8388    2.9809 C.ar      1 <0>        -0.0774
     26 F1         12.2925   -5.7125   -0.3763 F         1 <0>        -0.1365
     27 C23        10.9886   -4.9627    5.7294 C.ar      1 <0>        -0.1018
     28 C24        10.7605   -3.6016    5.8103 C.ar      1 <0>        -0.0595
     29 C25        11.5354   -2.8190    6.6452 C.ar      1 <0>        -0.1571
     30 C26        12.5405   -3.3987    7.4008 C.ar      1 <0>         0.1082
     31 C27        12.7680   -4.7620    7.3189 C.ar      1 <0>        -0.1519
     32 C28        11.9884   -5.5434    6.4873 C.ar      1 <0>        -0.0775
     33 F2         13.2990   -2.6346    8.2169 F         1 <0>        -0.1353
     34 H1         -0.9604    1.9041    0.0260 H         1 <0>         0.1308
     35 H2          1.1469    3.1729    0.0082 H         1 <0>         0.1319
     36 H3          3.3018    1.9870   -0.0200 H         1 <0>         0.1292
     37 H4          1.2178   -1.7605   -0.0194 H         1 <0>         0.1232
     38 H5         -0.9265   -0.5556    0.0079 H         1 <0>         0.1297
     39 H6          4.6214   -0.1298   -0.0450 H         1 <0>         0.1303
     40 H7          2.7898   -2.5653   -0.0392 H         1 <0>         0.1361
     41 H8          5.1300   -3.2938   -0.9987 H         1 <0>         0.1360
     42 H9          5.8492   -2.0250    0.0217 H         1 <0>         0.1300
     43 H10         5.9471   -2.2769    2.3701 H         1 <0>         0.1362
     44 H11         4.1679   -2.3275    2.3836 H         1 <0>         0.1349
     45 H12         5.1181   -3.3492    4.4407 H         1 <0>         0.1234
     46 H13         4.2327   -4.5507    3.4699 H         1 <0>         0.0586
     47 H14         7.2839   -6.0519    2.0916 H         1 <0>         0.1232
     48 H15         5.5056   -6.1391    2.0894 H         1 <0>         0.0593
     49 H16         6.3305   -5.0263    0.0380 H         1 <0>         0.1343
     50 H17         7.1826   -3.8187    1.0300 H         1 <0>         0.1378
     51 H18         6.2842   -5.0860    5.4858 H         1 <0>         0.0995
     52 H19         5.6594   -6.4147    4.4796 H         1 <0>         0.0625
     53 H20         7.8530   -7.0447    5.3652 H         1 <0>         0.0651
     54 H21         7.9869   -6.7856    3.6093 H         1 <0>         0.0528
     55 H22        10.1320   -6.8407    5.1877 H         1 <0>         0.0815
     56 H23         9.8658   -3.8864    2.9489 H         1 <0>         0.1363
     57 H24        10.8066   -3.8396    0.6742 H         1 <0>         0.1337
     58 H25        12.6278   -7.6404    1.3529 H         1 <0>         0.1391
     59 H26        11.6937   -7.6791    3.6305 H         1 <0>         0.1337
     60 H27         9.9767   -3.1496    5.2206 H         1 <0>         0.1358
     61 H28        11.3573   -1.7556    6.7080 H         1 <0>         0.1372
     62 H29        13.5519   -5.2152    7.9075 H         1 <0>         0.1401
     63 H30        12.1627   -6.6075    6.4266 H         1 <0>         0.1333
     64 H31         4.2856   -4.2935    1.0320 H         1 <0>         0.4197
@<TRIPOS>BOND
     1    1    6 ar
     2    1    2 ar
     3    1   34 1
     4    2    3 ar
     5    2   35 1
     6    3    4 ar
     7    3   36 1
     8    4    5 ar
     9    4    7 1
    10    5    6 ar
    11    5   37 1
    12    6   38 1
    13    7    8 2
    14    7   39 1
    15    8    9 1
    16    8   40 1
    17    9   10 1
    18    9   41 1
    19    9   42 1
    20   10   15 1
    21   10   11 1
    22   10   64 1
    23   11   12 1
    24   11   43 1
    25   11   44 1
    26   12   13 1
    27   12   45 1
    28   12   46 1
    29   13   14 1
    30   13   16 1
    31   14   15 1
    32   14   47 1
    33   14   48 1
    34   15   49 1
    35   15   50 1
    36   16   17 1
    37   16   51 1
    38   16   52 1
    39   17   18 1
    40   17   53 1
    41   17   54 1
    42   18   19 1
    43   19   20 1
    44   19   27 1
    45   19   55 1
    46   20   25 ar
    47   20   21 ar
    48   21   22 ar
    49   21   56 1
    50   22   23 ar
    51   22   57 1
    52   23   24 ar
    53   23   26 1
    54   24   25 ar
    55   24   58 1
    56   25   59 1
    57   27   32 ar
    58   27   28 ar
    59   28   29 ar
    60   28   60 1
    61   29   30 ar
    62   29   61 1
    63   30   31 ar
    64   30   33 1
    65   31   32 ar
    66   31   62 1
    67   32   63 1
@<TRIPOS>MOLECULE
ZINC13610039
   32    33     0     0     0
SMALL
USER_CHARGES
4-(3,4-dichlorophenyl)-1-methyl-piperidine-4-carbonitrile
@<TRIPOS>ATOM
      1 C1         -6.3852    5.0496    1.5314 C.3       1 <0>        -0.0433
      2 C2         -5.0359    3.6067    0.1323 C.3       1 <0>        -0.0066
      3 C3         -3.7043    2.8564    0.0546 C.3       1 <0>        -0.1426
      4 C4         -2.5542    3.8673    0.0457 C.3       1 <0>         0.0894
      5 C5         -2.6391    4.7381    1.3024 C.3       1 <0>        -0.1372
      6 C6         -4.0022    5.4326    1.3447 C.3       1 <0>        -0.0070
      7 C7         -2.6569    4.7188   -1.1506 C.1       1 <0>         0.1780
      8 N1         -2.7362    5.3759   -2.0739 N.1       1 <0>        -0.3708
      9 C8         -1.2383    3.1330    0.0297 C.ar      1 <0>        -0.0893
     10 C9         -1.2187    1.7505    0.0173 C.ar      1 <0>        -0.0915
     11 C10        -0.0126    1.0758    0.0080 C.ar      1 <0>        -0.0901
     12 C11         1.1760    1.7838    0.0004 C.ar      1 <0>        -0.0185
     13 C12         1.1563    3.1681    0.0076 C.ar      1 <0>        -0.0278
     14 C13        -0.0519    3.8418    0.0222 C.ar      1 <0>        -0.0841
     15 Cl1         2.6468    4.0579   -0.0025 Cl        1 <0>        -0.0266
     16 Cl2         2.6913    0.9369   -0.0186 Cl        1 <0>        -0.0250
     17 H1         -7.1486    4.2754    1.6083 H         1 <0>         0.1257
     18 H2         -6.3819    5.6484    2.4422 H         1 <0>         0.1256
     19 H3         -6.6021    5.6900    0.6764 H         1 <0>         0.1228
     20 H4         -5.1404    4.2523   -0.7397 H         1 <0>         0.1287
     21 H5         -5.8562    2.8893    0.1534 H         1 <0>         0.1437
     22 H6         -3.6739    2.2627   -0.8590 H         1 <0>         0.1286
     23 H7         -3.6053    2.2002    0.9193 H         1 <0>         0.1200
     24 H8         -2.5229    4.1123    2.1872 H         1 <0>         0.1186
     25 H9         -1.8481    5.4877    1.2797 H         1 <0>         0.1252
     26 H10        -4.1115    6.0697    0.4671 H         1 <0>         0.1286
     27 H11        -4.0717    6.0412    2.2463 H         1 <0>         0.1434
     28 H12        -2.1464    1.1975    0.0187 H         1 <0>         0.1479
     29 H13         0.0021   -0.0041    0.0020 H         1 <0>         0.1536
     30 H14        -0.0680    4.9217    0.0274 H         1 <0>         0.1435
     31 N2         -5.0649    4.4051    1.3761 N.4       1 <0>        -0.3954
     32 H15        -4.9020    3.7819    2.1757 H         1 <0>         0.4326
@<TRIPOS>BOND
     1    1   17 1
     2    1   18 1
     3    1   19 1
     4    1   31 1
     5    2    3 1
     6    2   20 1
     7    2   21 1
     8    2   31 1
     9    3    4 1
    10    3   22 1
    11    3   23 1
    12    4    5 1
    13    4    7 1
    14    4    9 1
    15    5    6 1
    16    5   24 1
    17    5   25 1
    18    6   26 1
    19    6   27 1
    20    6   31 1
    21    7    8 3
    22    9   14 ar
    23    9   10 ar
    24   10   11 ar
    25   10   28 1
    26   11   12 ar
    27   11   29 1
    28   12   13 ar
    29   12   16 1
    30   13   14 ar
    31   13   15 1
    32   14   30 1
    33   31   32 1
@<TRIPOS>MOLECULE
ZINC13776229
   58    61     0     0     0
SMALL
USER_CHARGES

@<TRIPOS>ATOM
      1 C1         -0.0187    1.5258    0.0104 C.3       1 <0>        -0.1585
      2 C2          0.0021   -0.0041    0.0020 C.3       1 <0>        -0.1208
      3 C3          0.7182   -0.4975   -1.2568 C.3       1 <0>        -0.1457
      4 C4          0.7390   -2.0273   -1.2652 C.3       1 <0>        -0.0053
      5 N1          1.4265   -2.5011   -2.4738 N.4       1 <0>        -0.3951
      6 C5          0.5944   -2.2526   -3.6811 C.3       1 <0>         0.0350
      7 H1          0.1580   -1.2538   -3.6829 H         1 <0>         0.1446
      8 C6         -0.4825   -3.3610   -3.6348 C.3       1 <0>        -0.1411
      9 C7          0.1606   -4.5033   -2.8211 C.3       1 <0>        -0.1345
     10 C8          1.5678   -3.9813   -2.4497 C.3       1 <0>         0.0355
     11 H2          1.9004   -4.3482   -1.4787 H         1 <0>         0.1478
     12 C9          2.5273   -4.3660   -3.5873 C.3       1 <0>        -0.1364
     13 C10         1.8857   -3.9890   -4.9257 C.3       1 <0>         0.0772
     14 C11         1.4876   -2.4964   -4.9081 C.3       1 <0>        -0.1644
     15 O1          0.7256   -4.7952   -5.1406 O.3       1 <0>        -0.3517
     16 C12         0.4422   -5.0506   -6.5177 C.3       1 <0>         0.1739
     17 C13         1.1464   -6.3108   -6.9503 C.ar      1 <0>        -0.1325
     18 C14         1.1927   -7.4018   -6.1025 C.ar      1 <0>        -0.0632
     19 C15         1.8378   -8.5581   -6.4983 C.ar      1 <0>        -0.1554
     20 C16         2.4379   -8.6236   -7.7443 C.ar      1 <0>         0.1125
     21 C17         2.3909   -7.5303   -8.5925 C.ar      1 <0>        -0.1516
     22 C18         1.7407   -6.3768   -8.1967 C.ar      1 <0>        -0.0774
     23 F1          3.0692   -9.7534   -8.1321 F         1 <0>        -0.1332
     24 C19        -1.0442   -5.2172   -6.7022 C.ar      1 <0>        -0.1061
     25 C20        -1.8003   -5.8156   -5.7116 C.ar      1 <0>        -0.0676
     26 C21        -3.1635   -5.9685   -5.8794 C.ar      1 <0>        -0.1545
     27 C22        -3.7719   -5.5220   -7.0403 C.ar      1 <0>         0.1122
     28 C23        -3.0136   -4.9228   -8.0318 C.ar      1 <0>        -0.1493
     29 C24        -1.6514   -4.7663   -7.8594 C.ar      1 <0>        -0.0758
     30 F2         -5.1044   -5.6714   -7.2057 F         1 <0>        -0.1330
     31 H3          1.0039    1.9031    0.0027 H         1 <0>         0.0588
     32 H4         -0.5459    1.8868   -0.8726 H         1 <0>         0.0585
     33 H5         -0.5289    1.8773    0.9072 H         1 <0>         0.0666
     34 H6          0.5293   -0.3651    0.8851 H         1 <0>         0.0727
     35 H7         -1.0205   -0.3814    0.0098 H         1 <0>         0.0724
     36 H8          0.1910   -0.1364   -2.1398 H         1 <0>         0.0831
     37 H9          1.7408   -0.1202   -1.2645 H         1 <0>         0.0840
     38 H10         1.2661   -2.3884   -0.3821 H         1 <0>         0.1267
     39 H11        -0.2836   -2.4046   -1.2575 H         1 <0>         0.1283
     40 H12        -1.3799   -2.9973   -3.1342 H         1 <0>         0.0832
     41 H13        -0.7207   -3.7008   -4.6427 H         1 <0>         0.1350
     42 H14        -0.4205   -4.7012   -1.9204 H         1 <0>         0.0872
     43 H15         0.2387   -5.4047   -3.4290 H         1 <0>         0.1315
     44 H16         3.4679   -3.8281   -3.4690 H         1 <0>         0.0994
     45 H17         2.7128   -5.4397   -3.5610 H         1 <0>         0.1205
     46 H18         2.5998   -4.1606   -5.7312 H         1 <0>         0.0948
     47 H19         0.9338   -2.2573   -5.8160 H         1 <0>         0.1134
     48 H20         2.3757   -1.8678   -4.8438 H         1 <0>         0.0980
     49 H21         0.7917   -4.2134   -7.1219 H         1 <0>         0.0867
     50 H22         0.7248   -7.3504   -5.1305 H         1 <0>         0.1333
     51 H23         1.8741   -9.4102   -5.8357 H         1 <0>         0.1386
     52 H24         2.8589   -7.5801   -9.5646 H         1 <0>         0.1403
     53 H25         1.7001   -5.5254   -8.8599 H         1 <0>         0.1329
     54 H26        -1.3255   -6.1640   -4.8063 H         1 <0>         0.1347
     55 H27        -3.7540   -6.4363   -5.1056 H         1 <0>         0.1389
     56 H28        -3.4871   -4.5745   -8.9378 H         1 <0>         0.1413
     57 H29        -1.0603   -4.2949   -8.6307 H         1 <0>         0.1342
     58 H30         2.3292   -2.0595   -2.5649 H         1 <0>         0.4195
@<TRIPOS>BOND
     1    1    2 1
     2    1   31 1
     3    1   32 1
     4    1   33 1
     5    2    3 1
     6    2   34 1
     7    2   35 1
     8    3    4 1
     9    3   36 1
    10    3   37 1
    11    4    5 1
    12    4   38 1
    13    4   39 1
    14    5   10 1
    15    5    6 1
    16    5   58 1
    17    6    7 1
    18    6   14 1
    19    6    8 1
    20    8    9 1
    21    8   40 1
    22    8   41 1
    23    9   10 1
    24    9   42 1
    25    9   43 1
    26   10   11 1
    27   10   12 1
    28   12   13 1
    29   12   44 1
    30   12   45 1
    31   13   14 1
    32   13   15 1
    33   13   46 1
    34   14   47 1
    35   14   48 1
    36   15   16 1
    37   16   17 1
    38   16   24 1
    39   16   49 1
    40   17   22 ar
    41   17   18 ar
    42   18   19 ar
    43   18   50 1
    44   19   20 ar
    45   19   51 1
    46   20   21 ar
    47   20   23 1
    48   21   22 ar
    49   21   52 1
    50   22   53 1
    51   24   29 ar
    52   24   25 ar
    53   25   26 ar
    54   25   54 1
    55   26   27 ar
    56   26   55 1
    57   27   28 ar
    58   27   30 1
    59   28   29 ar
    60   28   56 1
    61   29   57 1
@<TRIPOS>MOLECULE
ZINC01536779
   41    43     0     0     0
SMALL
USER_CHARGES

@<TRIPOS>ATOM
      1 C1         -0.7400    0.9331    0.2776 C.3       1 <0>        -0.0476
      2 N1         -0.4844   -0.5066    0.1362 N.4       1 <0>        -0.5085
      3 C2          0.3213   -0.7448   -1.0688 C.3       1 <0>        -0.0132
      4 C3          0.5875   -2.2442   -1.2161 C.3       1 <0>        -0.1420
      5 C4          1.4267   -2.4924   -2.4711 C.3       1 <0>         0.1856
      6 H1          2.3354   -1.8921   -2.4252 H         1 <0>         0.1031
      7 C5          1.7925   -3.9522   -2.5503 C.2       1 <0>        -0.2178
      8 C6          2.9174   -4.5748   -2.1210 C.2       1 <0>        -0.1229
      9 C7          3.0378   -5.9401   -2.3002 C.2       1 <0>        -0.1690
     10 C8          2.0274   -6.6160   -2.8999 C.2       1 <0>        -0.1537
     11 S1          0.8534   -5.3114   -3.2268 S.3       1 <0>         0.0860
     12 O1          0.6724   -2.1269   -3.6285 O.3       1 <0>        -0.3033
     13 C9          1.3745   -1.7982   -4.7435 C.ar      1 <0>         0.1312
     14 C10         2.7346   -1.9306   -4.7642 C.ar      1 <0>        -0.2054
     15 C11         3.4685   -1.5981   -5.8992 C.ar      1 <0>        -0.0827
     16 C12         2.8540   -1.1319   -7.0215 C.ar      1 <0>        -0.1285
     17 C13         1.4570   -0.9818   -7.0408 C.ar      1 <0>        -0.0223
     18 C14         0.7049   -1.3236   -5.8896 C.ar      1 <0>        -0.0635
     19 C15        -0.6915   -1.1779   -5.9104 C.ar      1 <0>        -0.0959
     20 C16        -1.3040   -0.7161   -7.0351 C.ar      1 <0>        -0.1186
     21 C17        -0.5654   -0.3847   -8.1695 C.ar      1 <0>        -0.1028
     22 C18         0.7904   -0.5031   -8.1819 C.ar      1 <0>        -0.1090
     23 H2          0.2082    1.4637    0.3638 H         1 <0>         0.1241
     24 H3         -1.2800    1.2940   -0.5978 H         1 <0>         0.1247
     25 H4         -1.3378    1.1099    1.1717 H         1 <0>         0.1281
     26 H5          0.0155   -0.8406    0.9465 H         1 <0>         0.4304
     27 H6         -0.2187   -0.3839   -1.9442 H         1 <0>         0.1408
     28 H7          1.2696   -0.2142   -0.9826 H         1 <0>         0.1345
     29 H8          1.1275   -2.6051   -0.3407 H         1 <0>         0.1121
     30 H9         -0.3607   -2.7749   -1.3023 H         1 <0>         0.1048
     31 H10         3.7079   -4.0125   -1.6464 H         1 <0>         0.1341
     32 H11         3.9238   -6.4605   -1.9677 H         1 <0>         0.1404
     33 H12         1.9508   -7.6707   -3.1194 H         1 <0>         0.1916
     34 H13         3.2471   -2.2981   -3.8875 H         1 <0>         0.1267
     35 H14         4.5425   -1.7112   -5.8895 H         1 <0>         0.1280
     36 H15         3.4384   -0.8782   -7.8935 H         1 <0>         0.1327
     37 H16        -1.2767   -1.4311   -5.0388 H         1 <0>         0.1266
     38 H17        -2.3782   -0.6052   -7.0486 H         1 <0>         0.1262
     39 H18        -1.0757   -0.0208   -9.0490 H         1 <0>         0.1287
     40 H19         1.3500   -0.2422   -9.0680 H         1 <0>         0.1339
     41 H20        -1.3622   -0.9977    0.0564 H         1 <0>         0.4321
@<TRIPOS>BOND
     1    1    2 1
     2    1   23 1
     3    1   24 1
     4    1   25 1
     5    2    3 1
     6    2   26 1
     7    2   41 1
     8    3    4 1
     9    3   27 1
    10    3   28 1
    11    4    5 1
    12    4   29 1
    13    4   30 1
    14    5    6 1
    15    5    7 1
    16    5   12 1
    17    7   11 1
    18    7    8 2
    19    8    9 1
    20    8   31 1
    21    9   10 2
    22    9   32 1
    23   10   11 1
    24   10   33 1
    25   12   13 1
    26   13   18 ar
    27   13   14 ar
    28   14   15 ar
    29   14   34 1
    30   15   16 ar
    31   15   35 1
    32   16   17 ar
    33   16   36 1
    34   17   22 ar
    35   17   18 ar
    36   18   19 ar
    37   19   20 ar
    38   19   37 1
    39   20   21 ar
    40   20   38 1
    41   21   22 ar
    42   21   39 1
    43   22   40 1
@<TRIPOS>MOLECULE
ZINC28645396
   37    38     0     0     0
SMALL
USER_CHARGES
methyl (2R)-2-(3,4-dichlorophenyl)-2-[(2R)-2-piperidyl]acetate
@<TRIPOS>ATOM
      1 C1         -5.4193   -2.5077   -0.3551 C.3       1 <0>         0.0267
      2 O1         -5.4854   -1.0615   -0.2443 O.3       1 <0>        -0.3323
      3 C2         -4.3183   -0.4004   -0.1920 C.2       1 <0>         0.4674
      4 O2         -3.2761   -1.0100   -0.2372 O.2       1 <0>        -0.5144
      5 C3         -4.3079    1.1022   -0.0767 C.3       1 <0>        -0.0568
      6 H1         -4.8382    1.3958    0.8412 H         1 <0>         0.1466
      7 C4         -5.0131    1.7020   -1.2658 C.ar      1 <0>        -0.0877
      8 C5         -4.6002    1.3844   -2.5466 C.ar      1 <0>        -0.0940
      9 C6         -5.2496    1.9295   -3.6380 C.ar      1 <0>        -0.0877
     10 C7         -6.3064    2.8022   -3.4492 C.ar      1 <0>        -0.0156
     11 C8         -6.7162    3.1246   -2.1668 C.ar      1 <0>        -0.0289
     12 C9         -6.0686    2.5737   -1.0754 C.ar      1 <0>        -0.0736
     13 Cl1        -8.0424    4.2191   -1.9282 Cl        1 <0>        -0.0237
     14 Cl2        -7.1184    3.4922   -4.8197 Cl        1 <0>        -0.0227
     15 C10        -2.8620    1.6006   -0.0365 C.3       1 <0>         0.0571
     16 H2         -2.2893    1.1943   -0.8832 H         1 <0>         0.1462
     17 C11        -2.8491    3.1306   -0.0643 C.3       1 <0>        -0.1405
     18 C12        -1.4006    3.6260   -0.0036 C.3       1 <0>        -0.1373
     19 C13        -0.7359    3.0780    1.2623 C.3       1 <0>        -0.1499
     20 C14        -0.8101    1.5495    1.2517 C.3       1 <0>        -0.0009
     21 N1         -2.2151    1.1267    1.1938 N.4       1 <0>        -0.5390
     22 H3         -6.4386   -2.9199   -0.3881 H         1 <0>         0.1177
     23 H4         -4.8858   -2.9181    0.5150 H         1 <0>         0.0741
     24 H5         -4.8834   -2.7807   -1.2761 H         1 <0>         0.0750
     25 H6         -3.7722    0.7069   -2.6942 H         1 <0>         0.1374
     26 H7         -4.9292    1.6778   -4.6382 H         1 <0>         0.1531
     27 H8         -6.3876    2.8250   -0.0747 H         1 <0>         0.1507
     28 H9         -3.3207    3.4844   -0.9930 H         1 <0>         0.1145
     29 H10        -3.4072    3.5178    0.8009 H         1 <0>         0.0947
     30 H11        -0.8547    3.2724   -0.8907 H         1 <0>         0.0828
     31 H12        -1.3898    4.7257    0.0194 H         1 <0>         0.0981
     32 H13         0.3170    3.3953    1.2903 H         1 <0>         0.1128
     33 H14        -1.2594    3.4658    2.1486 H         1 <0>         0.0893
     34 H15        -0.2747    1.1625    0.3721 H         1 <0>         0.1282
     35 H16        -0.3460    1.1535    2.1670 H         1 <0>         0.1353
     36 H17        -2.7418    1.5388    2.0671 H         1 <0>         0.4428
     37 H18        -2.2525    0.0279    1.2279 H         1 <0>         0.4544
@<TRIPOS>BOND
     1    1    2 1
     2    1   22 1
     3    1   23 1
     4    1   24 1
     5    2    3 1
     6    3    4 2
     7    3    5 1
     8    5    6 1
     9    5    7 1
    10    5   15 1
    11    7   12 ar
    12    7    8 ar
    13    8    9 ar
    14    8   25 1
    15    9   10 ar
    16    9   26 1
    17   10   11 ar
    18   10   14 1
    19   11   12 ar
    20   11   13 1
    21   12   27 1
    22   15   16 1
    23   15   21 1
    24   15   17 1
    25   17   18 1
    26   17   28 1
    27   17   29 1
    28   18   19 1
    29   18   30 1
    30   18   31 1
    31   19   20 1
    32   19   32 1
    33   19   33 1
    34   20   21 1
    35   20   34 1
    36   20   35 1
    37   21   36 1
    38   21   37 1
@<TRIPOS>MOLECULE
ZINC01530637
   41    42     0     0     0
SMALL
USER_CHARGES

@<TRIPOS>ATOM
      1 C1         -0.4120    1.0349    0.3013 C.3       1 <0>        -0.0488
      2 N1         -0.2330   -0.4168    0.1652 N.4       1 <0>        -0.5073
      3 C2          0.5049   -0.7054   -1.0718 C.3       1 <0>        -0.0229
      4 C3          0.6913   -2.2174   -1.2135 C.3       1 <0>        -0.1675
      5 C4          1.4598   -2.5179   -2.5019 C.3       1 <0>         0.1351
      6 H1          2.3976   -1.9623   -2.5036 H         1 <0>         0.0995
      7 C5          1.7506   -3.9945   -2.5806 C.ar      1 <0>        -0.1149
      8 C6          0.8070   -4.8578   -3.1052 C.ar      1 <0>        -0.0895
      9 C7          1.0737   -6.2123   -3.1773 C.ar      1 <0>        -0.1179
     10 C8          2.2842   -6.7034   -2.7252 C.ar      1 <0>        -0.1006
     11 C9          3.2282   -5.8399   -2.2014 C.ar      1 <0>        -0.1161
     12 C10         2.9632   -4.4849   -2.1333 C.ar      1 <0>        -0.1045
     13 O1          0.6724   -2.1269   -3.6285 O.3       1 <0>        -0.2928
     14 C11         0.8838   -0.8800   -4.1260 C.ar      1 <0>         0.1505
     15 C12         1.8748   -0.0745   -3.5841 C.ar      1 <0>        -0.2338
     16 C13         2.0880    1.1924   -4.0920 C.ar      1 <0>        -0.0253
     17 C14         1.3144    1.6580   -5.1391 C.ar      1 <0>        -0.2127
     18 C15         0.3257    0.8573   -5.6806 C.ar      1 <0>        -0.0216
     19 C16         0.1127   -0.4127   -5.1804 C.ar      1 <0>        -0.1468
     20 C17         1.5488    3.0406   -5.6908 C.3       1 <0>         0.5091
     21 F1          2.4914    2.9774   -6.7227 F         1 <0>        -0.1716
     22 F2          0.3464    3.5542   -6.1884 F         1 <0>        -0.1742
     23 F3          2.0262    3.8739   -4.6735 F         1 <0>        -0.1775
     24 H2          0.5637    1.5193    0.3388 H         1 <0>         0.1248
     25 H3         -0.9730    1.4134   -0.5531 H         1 <0>         0.1241
     26 H4         -0.9595    1.2490    1.2192 H         1 <0>         0.1296
     27 H5          0.2863   -0.7673    0.9561 H         1 <0>         0.4310
     28 H6         -0.0562   -0.3268   -1.9262 H         1 <0>         0.1339
     29 H7          1.4806   -0.2209   -1.0343 H         1 <0>         0.1355
     30 H8          1.2523   -2.5959   -0.3591 H         1 <0>         0.1101
     31 H9         -0.2844   -2.7018   -1.2511 H         1 <0>         0.1053
     32 H10        -0.1388   -4.4741   -3.4583 H         1 <0>         0.1283
     33 H11         0.3362   -6.8868   -3.5865 H         1 <0>         0.1298
     34 H12         2.4924   -7.7616   -2.7809 H         1 <0>         0.1301
     35 H13         4.1738   -6.2237   -1.8480 H         1 <0>         0.1308
     36 H14         3.7021   -3.8099   -1.7275 H         1 <0>         0.1243
     37 H15         2.4789   -0.4374   -2.7657 H         1 <0>         0.1409
     38 H16         2.8594    1.8199   -3.6705 H         1 <0>         0.1434
     39 H17        -0.2775    1.2233   -6.4983 H         1 <0>         0.1498
     40 H18        -0.6567   -1.0394   -5.6066 H         1 <0>         0.1488
     41 H19        -1.1362   -0.8653    0.1305 H         1 <0>         0.4318
@<TRIPOS>BOND
     1    1    2 1
     2    1   24 1
     3    1   25 1
     4    1   26 1
     5    2    3 1
     6    2   27 1
     7    2   41 1
     8    3    4 1
     9    3   28 1
    10    3   29 1
    11    4    5 1
    12    4   30 1
    13    4   31 1
    14    5    6 1
    15    5    7 1
    16    5   13 1
    17    7   12 ar
    18    7    8 ar
    19    8    9 ar
    20    8   32 1
    21    9   10 ar
    22    9   33 1
    23   10   11 ar
    24   10   34 1
    25   11   12 ar
    26   11   35 1
    27   12   36 1
    28   13   14 1
    29   14   19 ar
    30   14   15 ar
    31   15   16 ar
    32   15   37 1
    33   16   17 ar
    34   16   38 1
    35   17   18 ar
    36   17   20 1
    37   18   19 ar
    38   18   39 1
    39   19   40 1
    40   20   21 1
    41   20   22 1
    42   20   23 1
@<TRIPOS>MOLECULE
ZINC01530638
   41    42     0     0     0
SMALL
USER_CHARGES

@<TRIPOS>ATOM
      1 C1         -0.0117    1.2584    0.2941 C.3       1 <0>        -0.0489
      2 N1          0.0187   -0.2059    0.1807 N.4       1 <0>        -0.5073
      3 C2          0.6940   -0.5864   -1.0672 C.3       1 <0>        -0.0223
      4 C3          0.7257   -2.1115   -1.1853 C.3       1 <0>        -0.1659
      5 C4          1.4290   -2.5079   -2.4850 C.3       1 <0>         0.1346
      6 H1          0.9406   -2.0169   -3.3267 H         1 <0>         0.0995
      7 C5          1.3524   -4.0025   -2.6620 C.ar      1 <0>        -0.1166
      8 C6          2.2239   -4.8256   -1.9736 C.ar      1 <0>        -0.0896
      9 C7          2.1536   -6.1966   -2.1360 C.ar      1 <0>        -0.1183
     10 C8          1.2115   -6.7445   -2.9863 C.ar      1 <0>        -0.1002
     11 C9          0.3394   -5.9215   -3.6740 C.ar      1 <0>        -0.1161
     12 C10         0.4069   -4.5507   -3.5084 C.ar      1 <0>        -0.1036
     13 O1          2.7987   -2.1046   -2.4276 O.3       1 <0>        -0.2939
     14 C11         3.1290   -0.9498   -3.0632 C.ar      1 <0>         0.1513
     15 C12         4.4578   -0.5614   -3.1526 C.ar      1 <0>        -0.1453
     16 C13         4.7911    0.6128   -3.7997 C.ar      1 <0>        -0.0215
     17 C14         3.8014    1.4009   -4.3576 C.ar      1 <0>        -0.2121
     18 C15         2.4763    1.0162   -4.2695 C.ar      1 <0>        -0.0254
     19 C16         2.1384   -0.1601   -3.6288 C.ar      1 <0>        -0.2331
     20 C17         4.1677    2.6815   -5.0625 C.3       1 <0>         0.5092
     21 F1          4.3972    2.4189   -6.4174 F         1 <0>        -0.1720
     22 F2          3.1196    3.5994   -4.9365 F         1 <0>        -0.1774
     23 F3          5.3265    3.2150   -4.4881 F         1 <0>        -0.1740
     24 H2          1.0080    1.6436    0.3006 H         1 <0>         0.1243
     25 H3         -0.5529    1.6774   -0.5543 H         1 <0>         0.1247
     26 H4         -0.5127    1.5408    1.2200 H         1 <0>         0.1295
     27 H5          0.5197   -0.5937    0.9660 H         1 <0>         0.4319
     28 H6          0.1528   -0.1675   -1.9155 H         1 <0>         0.1348
     29 H7          1.7136   -0.2013   -1.0606 H         1 <0>         0.1349
     30 H8          1.2669   -2.5305   -0.3370 H         1 <0>         0.1053
     31 H9         -0.2940   -2.4967   -1.1919 H         1 <0>         0.1101
     32 H10         2.9600   -4.3975   -1.3092 H         1 <0>         0.1272
     33 H11         2.8350   -6.8396   -1.5987 H         1 <0>         0.1297
     34 H12         1.1571   -7.8156   -3.1137 H         1 <0>         0.1301
     35 H13        -0.3964   -6.3495   -4.3386 H         1 <0>         0.1308
     36 H14        -0.2770   -3.9079   -4.0428 H         1 <0>         0.1243
     37 H15         5.2311   -1.1763   -2.7163 H         1 <0>         0.1487
     38 H16         5.8254    0.9155   -3.8695 H         1 <0>         0.1498
     39 H17         1.7051    1.6337   -4.7058 H         1 <0>         0.1430
     40 H18         1.1036   -0.4624   -3.5641 H         1 <0>         0.1387
     41 H19        -0.9251   -0.5624    0.1746 H         1 <0>         0.4310
@<TRIPOS>BOND
     1    1    2 1
     2    1   24 1
     3    1   25 1
     4    1   26 1
     5    2    3 1
     6    2   27 1
     7    2   41 1
     8    3    4 1
     9    3   28 1
    10    3   29 1
    11    4    5 1
    12    4   30 1
    13    4   31 1
    14    5    6 1
    15    5    7 1
    16    5   13 1
    17    7   12 ar
    18    7    8 ar
    19    8    9 ar
    20    8   32 1
    21    9   10 ar
    22    9   33 1
    23   10   11 ar
    24   10   34 1
    25   11   12 ar
    26   11   35 1
    27   12   36 1
    28   13   14 1
    29   14   19 ar
    30   14   15 ar
    31   15   16 ar
    32   15   37 1
    33   16   17 ar
    34   16   38 1
    35   17   18 ar
    36   17   20 1
    37   18   19 ar
    38   18   39 1
    39   19   40 1
    40   20   21 1
    41   20   22 1
    42   20   23 1
@<TRIPOS>MOLECULE
ZINC00006156
   34    35     0     0     0
SMALL
USER_CHARGES

@<TRIPOS>ATOM
      1 C1          0.0955    1.5629    0.1074 C.ar      1 <0>        -0.1198
      2 C2          1.3178    2.2081    0.1260 C.ar      1 <0>        -0.1134
      3 C3          2.4879    1.4735    0.0792 C.ar      1 <0>        -0.1131
      4 C4          2.4356    0.0937    0.0144 C.ar      1 <0>        -0.0511
      5 C5          1.2132   -0.5516   -0.0032 C.ar      1 <0>        -0.1222
      6 C6          0.0431    0.1831    0.0421 C.ar      1 <0>        -0.1088
      7 C7          3.7112   -0.7071   -0.0376 C.3       1 <0>        -0.3492
      8 C8          3.8699   -1.4828    1.2447 C.ar      1 <0>        -0.0507
      9 C9          3.0119   -2.5282    1.5308 C.ar      1 <0>        -0.1251
     10 C10         3.1575   -3.2398    2.7070 C.ar      1 <0>        -0.1095
     11 C11         4.1614   -2.9062    3.5968 C.ar      1 <0>        -0.1189
     12 C12         5.0200   -1.8613    3.3103 C.ar      1 <0>        -0.1133
     13 C13         4.8770   -1.1526    2.1321 C.ar      1 <0>        -0.1087
     14 S1          3.6452   -1.8593   -1.4371 S.o       1 <0>         1.3100
     15 O1          4.9135   -2.4789   -1.6007 O.2       1 <0>        -0.8078
     16 C14         3.3033   -0.7952   -2.8659 C.3       1 <0>        -0.4991
     17 C15         3.2221   -1.6385   -4.1122 C.2       1 <0>         0.5459
     18 O2          3.3794   -2.8391   -4.0434 O.2       1 <0>        -0.5352
     19 N1          2.9748   -1.0584   -5.3034 N.am      1 <0>        -0.8480
     20 H1         -0.8186    2.1366    0.1485 H         1 <0>         0.1238
     21 H2          1.3587    3.2861    0.1766 H         1 <0>         0.1233
     22 H3          3.4429    1.9776    0.0930 H         1 <0>         0.1196
     23 H4          1.1723   -1.6296   -0.0546 H         1 <0>         0.1308
     24 H5         -0.9119   -0.3210    0.0280 H         1 <0>         0.1286
     25 H6          4.5586   -0.0329   -0.1617 H         1 <0>         0.1063
     26 H7          2.2276   -2.7889    0.8356 H         1 <0>         0.1290
     27 H8          2.4868   -4.0561    2.9308 H         1 <0>         0.1290
     28 H9          4.2747   -3.4616    4.5161 H         1 <0>         0.1250
     29 H10         5.8040   -1.6005    4.0057 H         1 <0>         0.1245
     30 H11         5.5501   -0.3386    1.9065 H         1 <0>         0.1197
     31 H12         2.3560   -0.2777   -2.7150 H         1 <0>         0.1495
     32 H13         4.1040   -0.0635   -2.9738 H         1 <0>         0.1183
     33 H14         2.8490   -0.0982   -5.3584 H         1 <0>         0.4041
     34 H15         2.9225   -1.6011   -6.1056 H         1 <0>         0.4066
@<TRIPOS>BOND
     1    1    6 ar
     2    1    2 ar
     3    1   20 1
     4    2    3 ar
     5    2   21 1
     6    3    4 ar
     7    3   22 1
     8    4    5 ar
     9    4    7 1
    10    5    6 ar
    11    5   23 1
    12    6   24 1
    13    7    8 1
    14    7   14 1
    15    7   25 1
    16    8   13 ar
    17    8    9 ar
    18    9   10 ar
    19    9   26 1
    20   10   11 ar
    21   10   27 1
    22   11   12 ar
    23   11   28 1
    24   12   13 ar
    25   12   29 1
    26   13   30 1
    27   14   15 2
    28   14   16 1
    29   16   17 1
    30   16   31 1
    31   16   32 1
    32   17   18 2
    33   17   19 am
    34   19   33 1
    35   19   34 1
@<TRIPOS>MOLECULE
ZINC00968360
   49    52     0     0     0
SMALL
USER_CHARGES

@<TRIPOS>ATOM
      1 C1          3.3904   -1.0686    1.3596 C.3       1 <0>        -0.0414
      2 N1          2.2270   -1.8016    0.8426 N.4       1 <0>        -0.3966
      3 C2          1.0087   -0.9500    0.8889 C.3       1 <0>         0.0345
      4 H1          1.1973    0.0598    0.5245 H         1 <0>         0.1466
      5 C3          0.5905   -0.9658    2.3773 C.3       1 <0>        -0.1338
      6 C4          1.1707   -2.2813    2.9369 C.3       1 <0>        -0.1396
      7 C5          1.8867   -2.9409    1.7358 C.3       1 <0>         0.0374
      8 H2          2.7689   -3.5040    2.0404 H         1 <0>         0.1457
      9 C6          0.8579   -3.8095    0.9944 C.3       1 <0>        -0.1626
     10 C7         -0.4211   -2.9937    0.7855 C.3       1 <0>         0.0760
     11 C8         -0.0791   -1.6663    0.0728 C.3       1 <0>        -0.1379
     12 O1         -1.0224   -2.7199    2.0525 O.3       1 <0>        -0.3507
     13 C9         -2.0131   -3.6726    2.4437 C.3       1 <0>         0.1708
     14 C10        -2.1179   -3.6999    3.9468 C.ar      1 <0>        -0.0904
     15 C11        -2.0585   -2.5205    4.6654 C.ar      1 <0>        -0.0943
     16 C12        -2.1546   -2.5456    6.0442 C.ar      1 <0>        -0.1204
     17 C13        -2.3105   -3.7501    6.7043 C.ar      1 <0>        -0.1092
     18 C14        -2.3708   -4.9294    5.9857 C.ar      1 <0>        -0.1151
     19 C15        -2.2790   -4.9039    4.6066 C.ar      1 <0>        -0.1074
     20 C16        -3.3444   -3.2836    1.8544 C.ar      1 <0>        -0.1188
     21 C17        -3.6951   -1.9499    1.7593 C.ar      1 <0>        -0.0957
     22 C18        -4.9163   -1.5931    1.2187 C.ar      1 <0>        -0.1207
     23 C19        -5.7867   -2.5701    0.7728 C.ar      1 <0>        -0.1099
     24 C20        -5.4356   -3.9038    0.8670 C.ar      1 <0>        -0.1159
     25 C21        -4.2126   -4.2604    1.4036 C.ar      1 <0>        -0.1088
     26 H3          4.2470   -1.7403    1.4169 H         1 <0>         0.1198
     27 H4          3.6232   -0.2391    0.6920 H         1 <0>         0.1202
     28 H5          3.1643   -0.6826    2.3536 H         1 <0>         0.1206
     29 H6          1.0175   -0.1101    2.9003 H         1 <0>         0.0864
     30 H7         -0.4958   -0.9622    2.4661 H         1 <0>         0.1317
     31 H8          1.8830   -2.0725    3.7351 H         1 <0>         0.0829
     32 H9          0.3696   -2.9246    3.3009 H         1 <0>         0.1348
     33 H10         1.2621   -4.1087    0.0273 H         1 <0>         0.0958
     34 H11         0.6329   -4.6956    1.5879 H         1 <0>         0.1134
     35 H12        -1.1176   -3.5627    0.1698 H         1 <0>         0.0934
     36 H13        -0.9701   -1.0404    0.0234 H         1 <0>         0.1187
     37 H14         0.2889   -1.8607   -0.9346 H         1 <0>         0.0996
     38 H15        -1.7300   -4.6608    2.0812 H         1 <0>         0.0802
     39 H16        -1.9366   -1.5795    4.1496 H         1 <0>         0.1222
     40 H17        -2.1075   -1.6242    6.6056 H         1 <0>         0.1245
     41 H18        -2.3849   -3.7697    7.7816 H         1 <0>         0.1256
     42 H19        -2.4923   -5.8705    6.5015 H         1 <0>         0.1269
     43 H20        -2.3299   -5.8249    4.0449 H         1 <0>         0.1218
     44 H21        -3.0151   -1.1866    2.1077 H         1 <0>         0.1218
     45 H22        -5.1906   -0.5511    1.1451 H         1 <0>         0.1241
     46 H23        -6.7411   -2.2914    0.3510 H         1 <0>         0.1253
     47 H24        -6.1158   -4.6671    0.5189 H         1 <0>         0.1260
     48 H25        -3.9368   -5.3022    1.4738 H         1 <0>         0.1208
     49 H26         2.4007   -2.1262   -0.0968 H         1 <0>         0.4215
@<TRIPOS>BOND
     1    1    2 1
     2    1   26 1
     3    1   27 1
     4    1   28 1
     5    2    7 1
     6    2    3 1
     7    2   49 1
     8    3    4 1
     9    3   11 1
    10    3    5 1
    11    5    6 1
    12    5   29 1
    13    5   30 1
    14    6    7 1
    15    6   31 1
    16    6   32 1
    17    7    8 1
    18    7    9 1
    19    9   10 1
    20    9   33 1
    21    9   34 1
    22   10   11 1
    23   10   12 1
    24   10   35 1
    25   11   36 1
    26   11   37 1
    27   12   13 1
    28   13   14 1
    29   13   20 1
    30   13   38 1
    31   14   19 ar
    32   14   15 ar
    33   15   16 ar
    34   15   39 1
    35   16   17 ar
    36   16   40 1
    37   17   18 ar
    38   17   41 1
    39   18   19 ar
    40   18   42 1
    41   19   43 1
    42   20   25 ar
    43   20   21 ar
    44   21   22 ar
    45   21   44 1
    46   22   23 ar
    47   22   45 1
    48   23   24 ar
    49   23   46 1
    50   24   25 ar
    51   24   47 1
    52   25   48 1
@<TRIPOS>MOLECULE
ZINC00000310
   44    46     0     0     0
SMALL
USER_CHARGES
(4-fluorophenyl)-[4-(4-fluorophenyl)-4-hydroxy-1-methyl-3-piperidyl]-methanone
@<TRIPOS>ATOM
      1 C1          0.0589    1.2086    2.4247 C.3       1 <0>        -0.0424
      2 C2         -2.0706    1.0383    1.2868 C.3       1 <0>         0.0000
      3 C3         -2.8718    1.5436    0.0848 C.3       1 <0>        -0.1727
      4 C4         -2.1941    1.0772   -1.2067 C.3       1 <0>         0.1874
      5 C5         -0.7525    1.5926   -1.2322 C.3       1 <0>        -0.1340
      6 H1         -0.7560    2.5926   -1.2351 H         1 <0>         0.1158
      7 C6         -0.0127    1.0858    0.0080 C.3       1 <0>         0.0071
      8 C7         -0.0593    1.0894   -2.4721 C.2       1 <0>         0.4028
      9 O1         -0.4449    0.0748   -3.0129 O.2       1 <0>        -0.3844
     10 C8          1.0844    1.8286   -3.0260 C.ar      1 <0>        -0.1924
     11 C9          1.5284    3.0029   -2.4077 C.ar      1 <0>        -0.0574
     12 C10         2.6042    3.6875   -2.9285 C.ar      1 <0>        -0.1624
     13 C11         3.2400    3.2216   -4.0700 C.ar      1 <0>         0.1457
     14 C12         2.8014    2.0614   -4.6911 C.ar      1 <0>        -0.1585
     15 C13         1.7304    1.3641   -4.1773 C.ar      1 <0>        -0.0223
     16 F1          4.2914    3.9006   -4.5788 F         1 <0>        -0.1234
     17 C14        -2.9447    1.6220   -2.3944 C.ar      1 <0>        -0.1408
     18 C15        -2.6044    2.8542   -2.9207 C.ar      1 <0>        -0.0892
     19 C16        -3.2889    3.3526   -4.0129 C.ar      1 <0>        -0.1457
     20 C17        -4.3229    2.6221   -4.5735 C.ar      1 <0>         0.1180
     21 C18        -4.6663    1.3904   -4.0423 C.ar      1 <0>        -0.1439
     22 C19        -3.9769    0.8916   -2.9534 C.ar      1 <0>        -0.0673
     23 F2         -4.9958    3.1104   -5.6383 F         1 <0>        -0.1288
     24 O2         -2.1916   -0.3510   -1.2558 O.3       1 <0>        -0.5298
     25 H2          1.0458    1.6693    2.3805 H         1 <0>         0.1244
     26 H3         -0.4721    1.5709    3.3050 H         1 <0>         0.1261
     27 H4          0.1659    0.1256    2.4850 H         1 <0>         0.1262
     28 H5         -2.5425    1.3807    2.2077 H         1 <0>         0.1355
     29 H6         -2.0460   -0.0514    1.2747 H         1 <0>         0.1397
     30 H7         -2.9083    2.6328    0.1037 H         1 <0>         0.1025
     31 H8         -3.8852    1.1447    0.1285 H         1 <0>         0.1234
     32 H9          0.0021   -0.0041    0.0020 H         1 <0>         0.1491
     33 H10         1.0099    1.4629    0.0003 H         1 <0>         0.1382
     34 H11         1.0314    3.3690   -1.5215 H         1 <0>         0.1326
     35 H12         2.9506    4.5915   -2.4497 H         1 <0>         0.1478
     36 H13         3.3010    1.7038   -5.5793 H         1 <0>         0.1504
     37 H14         1.3901    0.4608   -4.6616 H         1 <0>         0.1483
     38 H15        -1.8006    3.4257   -2.4806 H         1 <0>         0.1290
     39 H16        -3.0202    4.3135   -4.4264 H         1 <0>         0.1430
     40 H17        -5.4724    0.8195   -4.4791 H         1 <0>         0.1447
     41 H18        -4.2448   -0.0689   -2.5387 H         1 <0>         0.1347
     42 H19        -3.0739   -0.7465   -1.2430 H         1 <0>         0.3897
     43 N1         -0.7005    1.5892    1.2160 N.4       1 <0>        -0.3942
     44 H20        -0.7555    2.6132    1.1654 H         1 <0>         0.4277
@<TRIPOS>BOND
     1    1   25 1
     2    1   26 1
     3    1   27 1
     4    1   43 1
     5    2    3 1
     6    2   28 1
     7    2   29 1
     8    2   43 1
     9    3    4 1
    10    3   30 1
    11    3   31 1
    12    4    5 1
    13    4   17 1
    14    4   24 1
    15    5    6 1
    16    5    7 1
    17    5    8 1
    18    7   32 1
    19    7   33 1
    20    7   43 1
    21    8    9 2
    22    8   10 1
    23   10   15 ar
    24   10   11 ar
    25   11   12 ar
    26   11   34 1
    27   12   13 ar
    28   12   35 1
    29   13   14 ar
    30   13   16 1
    31   14   15 ar
    32   14   36 1
    33   15   37 1
    34   17   22 ar
    35   17   18 ar
    36   18   19 ar
    37   18   38 1
    38   19   20 ar
    39   19   39 1
    40   20   21 ar
    41   20   23 1
    42   21   22 ar
    43   21   40 1
    44   22   41 1
    45   24   42 1
    46   43   44 1
@<TRIPOS>MOLECULE
ZINC04594154
   44    46     0     0     0
SMALL
USER_CHARGES
(4-fluorophenyl)-[4-(4-fluorophenyl)-4-hydroxy-1-methyl-3-piperidyl]-methanone
@<TRIPOS>ATOM
      1 C1         -2.4237    0.8189    3.5680 C.3       1 <0>        -0.0412
      2 C2         -3.2636    0.1000    1.4144 C.3       1 <0>         0.0047
      3 C3         -2.8606   -0.1919   -0.0328 C.3       1 <0>        -0.1825
      4 C4         -2.3905    1.1046   -0.6980 C.3       1 <0>         0.1960
      5 C5         -1.2252    1.6881    0.1058 C.3       1 <0>        -0.1326
      6 H1         -0.9391    2.5547   -0.3031 H         1 <0>         0.1336
      7 C6         -1.6756    1.9255    1.5490 C.3       1 <0>         0.0132
      8 C7         -0.0701    0.7203    0.0920 C.2       1 <0>         0.4275
      9 O1         -0.0387   -0.1979    0.8837 O.2       1 <0>        -0.4643
     10 C8          1.0158    0.8857   -0.8852 C.ar      1 <0>        -0.2016
     11 C9          0.9798    1.9407   -1.8039 C.ar      1 <0>        -0.0278
     12 C10         2.0038    2.0939   -2.7124 C.ar      1 <0>        -0.1660
     13 C11         3.0625    1.1977   -2.7265 C.ar      1 <0>         0.1615
     14 C12         3.1012    0.1461   -1.8226 C.ar      1 <0>        -0.1673
     15 C13         2.0870   -0.0146   -0.9045 C.ar      1 <0>        -0.0150
     16 F1          4.0606    1.3500   -3.6242 F         1 <0>        -0.1201
     17 C14        -1.9358    0.8128   -2.1048 C.ar      1 <0>        -0.1632
     18 C15        -2.1776    1.7276   -3.1126 C.ar      1 <0>        -0.0642
     19 C16        -1.7560    1.4636   -4.4020 C.ar      1 <0>        -0.1492
     20 C17        -1.1009    0.2774   -4.6863 C.ar      1 <0>         0.1251
     21 C18        -0.8643   -0.6407   -3.6772 C.ar      1 <0>        -0.1473
     22 C19        -1.2822   -0.3721   -2.3876 C.ar      1 <0>        -0.0763
     23 F2         -0.6932    0.0157   -5.9475 F         1 <0>        -0.1282
     24 O2         -3.4674    2.0436   -0.7280 O.3       1 <0>        -0.5423
     25 H2         -3.2204    1.5535    3.6855 H         1 <0>         0.1224
     26 H3         -2.7464   -0.1365    3.9817 H         1 <0>         0.1224
     27 H4         -1.5333    1.1611    4.0956 H         1 <0>         0.1203
     28 H5         -3.5853   -0.8239    1.8952 H         1 <0>         0.1319
     29 H6         -4.0826    0.8191    1.4253 H         1 <0>         0.1360
     30 H7         -2.0508   -0.9215   -0.0450 H         1 <0>         0.1029
     31 H8         -3.7176   -0.5903   -0.5759 H         1 <0>         0.1241
     32 H9         -0.8439    2.3275    2.1276 H         1 <0>         0.1330
     33 H10        -2.5020    2.6361    1.5593 H         1 <0>         0.1503
     34 H11         0.1537    2.6363   -1.7971 H         1 <0>         0.1413
     35 H12         1.9799    2.9107   -3.4186 H         1 <0>         0.1498
     36 H13         3.9285   -0.5480   -1.8386 H         1 <0>         0.1515
     37 H14         2.1183   -0.8337   -0.2013 H         1 <0>         0.1487
     38 H15        -2.6925    2.6508   -2.8915 H         1 <0>         0.1459
     39 H16        -1.9414    2.1802   -5.1884 H         1 <0>         0.1450
     40 H17        -0.3537   -1.5664   -3.8979 H         1 <0>         0.1416
     41 H18        -1.0977   -1.0880   -1.6003 H         1 <0>         0.1291
     42 H19        -4.2411    1.7391   -1.2217 H         1 <0>         0.4014
     43 N1         -2.0923    0.6358    2.1399 N.4       1 <0>        -0.4016
     44 H20        -1.3171   -0.0327    2.0606 H         1 <0>         0.4314
@<TRIPOS>BOND
     1    1   25 1
     2    1   26 1
     3    1   27 1
     4    1   43 1
     5    2    3 1
     6    2   28 1
     7    2   29 1
     8    2   43 1
     9    3    4 1
    10    3   30 1
    11    3   31 1
    12    4    5 1
    13    4   17 1
    14    4   24 1
    15    5    6 1
    16    5    7 1
    17    5    8 1
    18    7   32 1
    19    7   33 1
    20    7   43 1
    21    8    9 2
    22    8   10 1
    23   10   15 ar
    24   10   11 ar
    25   11   12 ar
    26   11   34 1
    27   12   13 ar
    28   12   35 1
    29   13   14 ar
    30   13   16 1
    31   14   15 ar
    32   14   36 1
    33   15   37 1
    34   17   22 ar
    35   17   18 ar
    36   18   19 ar
    37   18   38 1
    38   19   20 ar
    39   19   39 1
    40   20   21 ar
    41   20   23 1
    42   21   22 ar
    43   21   40 1
    44   22   41 1
    45   24   42 1
    46   43   44 1
@<TRIPOS>MOLECULE
ZINC00098212
   44    46     0     0     0
SMALL
USER_CHARGES

@<TRIPOS>ATOM
      1 C1         -0.0178    1.4648    0.0101 C.3       1 <0>        -0.0473
      2 N1          0.0021   -0.0041    0.0020 N.4       1 <0>        -0.3822
      3 C2         -1.3756   -0.5106    0.0035 C.3       1 <0>        -0.0056
      4 C3         -1.3615   -2.0381   -0.0867 C.3       1 <0>        -0.1702
      5 C4         -0.6051   -2.6081    1.1167 C.3       1 <0>         0.1862
      6 C5          0.8066   -2.0155    1.1472 C.3       1 <0>        -0.1440
      7 H1          1.3489   -2.3207    0.2523 H         1 <0>         0.1292
      8 C6          0.7122   -0.4888    1.1916 C.3       1 <0>         0.0036
      9 C7          1.5343   -2.5114    2.3701 C.2       1 <0>         0.4033
     10 O1          0.9081   -2.8648    3.3465 O.2       1 <0>        -0.3883
     11 C8          3.0049   -2.5667    2.3795 C.ar      1 <0>        -0.1771
     12 C9          3.7309   -2.1544    1.2575 C.ar      1 <0>        -0.0889
     13 C10         5.1086   -2.2088    1.2742 C.ar      1 <0>        -0.1269
     14 C11         5.7730   -2.6698    2.3974 C.ar      1 <0>        -0.0783
     15 C12         5.0616   -3.0800    3.5115 C.ar      1 <0>        -0.1223
     16 C13         3.6838   -3.0263    3.5125 C.ar      1 <0>        -0.0547
     17 C14        -0.5196   -4.1076    0.9940 C.ar      1 <0>        -0.1262
     18 C15         0.5542   -4.6879    0.3451 C.ar      1 <0>        -0.1191
     19 C16         0.6326   -6.0635    0.2326 C.ar      1 <0>        -0.1103
     20 C17        -0.3626   -6.8587    0.7693 C.ar      1 <0>        -0.1051
     21 C18        -1.4360   -6.2784    1.4189 C.ar      1 <0>        -0.1086
     22 C19        -1.5122   -4.9031    1.5352 C.ar      1 <0>        -0.0991
     23 O2         -1.2938   -2.2641    2.3206 O.3       1 <0>        -0.5311
     24 H2          1.0047    1.8421    0.0024 H         1 <0>         0.1261
     25 H3         -0.5450    1.8259   -0.8730 H         1 <0>         0.1277
     26 H4         -0.5280    1.8163    0.9069 H         1 <0>         0.1245
     27 H5         -1.8732   -0.2060    0.9241 H         1 <0>         0.1373
     28 H6         -1.9135   -0.1015   -0.8518 H         1 <0>         0.1366
     29 H7         -2.3852   -2.4123   -0.0837 H         1 <0>         0.1217
     30 H8         -0.8642   -2.3438   -1.0072 H         1 <0>         0.1015
     31 H9          1.7157   -0.0637    1.2136 H         1 <0>         0.1388
     32 H10         0.1701   -0.1847    2.0870 H         1 <0>         0.1456
     33 H11         3.2138   -1.7948    0.3802 H         1 <0>         0.1211
     34 H12         5.6707   -1.8911    0.4084 H         1 <0>         0.1333
     35 H13         6.8522   -2.7101    2.4044 H         1 <0>         0.1343
     36 H14         5.5873   -3.4389    4.3841 H         1 <0>         0.1361
     37 H15         3.1302   -3.3425    4.3843 H         1 <0>         0.1365
     38 H16         1.3317   -4.0666   -0.0741 H         1 <0>         0.1182
     39 H17         1.4712   -6.5168   -0.2750 H         1 <0>         0.1286
     40 H18        -0.3017   -7.9333    0.6807 H         1 <0>         0.1299
     41 H19        -2.2137   -6.8997    1.8379 H         1 <0>         0.1304
     42 H20        -2.3490   -4.4499    2.0460 H         1 <0>         0.1230
     43 H21        -2.1985   -2.6025    2.3666 H         1 <0>         0.3883
     44 H22         0.4767   -0.3284   -0.8272 H         1 <0>         0.4232
@<TRIPOS>BOND
     1    1    2 1
     2    1   24 1
     3    1   25 1
     4    1   26 1
     5    2    8 1
     6    2    3 1
     7    2   44 1
     8    3    4 1
     9    3   27 1
    10    3   28 1
    11    4    5 1
    12    4   29 1
    13    4   30 1
    14    5    6 1
    15    5   17 1
    16    5   23 1
    17    6    7 1
    18    6    8 1
    19    6    9 1
    20    8   31 1
    21    8   32 1
    22    9   10 2
    23    9   11 1
    24   11   16 ar
    25   11   12 ar
    26   12   13 ar
    27   12   33 1
    28   13   14 ar
    29   13   34 1
    30   14   15 ar
    31   14   35 1
    32   15   16 ar
    33   15   36 1
    34   16   37 1
    35   17   22 ar
    36   17   18 ar
    37   18   19 ar
    38   18   38 1
    39   19   20 ar
    40   19   39 1
    41   20   21 ar
    42   20   40 1
    43   21   22 ar
    44   21   41 1
    45   22   42 1
    46   23   43 1
@<TRIPOS>MOLECULE
ZINC04342758
   44    46     0     0     0
SMALL
USER_CHARGES

@<TRIPOS>ATOM
      1 C1          1.0158    1.8859    1.1942 C.3       1 <0>        -0.0475
      2 N1          0.5861    0.5080    0.9208 N.4       1 <0>        -0.3888
      3 C2          0.7953    0.2046   -0.5000 C.3       1 <0>        -0.0001
      4 C3          0.2745   -1.2010   -0.8073 C.3       1 <0>        -0.1959
      5 C4          1.0317   -2.2189    0.0505 C.3       1 <0>         0.1941
      6 C5          0.8677   -1.8493    1.5276 C.3       1 <0>        -0.1438
      7 H1          1.4496   -2.5367    2.1416 H         1 <0>         0.1482
      8 C6          1.3665   -0.4196    1.7484 C.3       1 <0>         0.0076
      9 C7         -0.5869   -1.9405    1.9107 C.2       1 <0>         0.4089
     10 O1         -1.4429   -1.5809    1.1308 O.2       1 <0>        -0.4450
     11 C8         -0.9685   -2.4661    3.2312 C.ar      1 <0>        -0.1879
     12 C9          0.0161   -2.8765    4.1357 C.ar      1 <0>        -0.0725
     13 C10        -0.3494   -3.3674    5.3713 C.ar      1 <0>        -0.1283
     14 C11        -1.6867   -3.4546    5.7173 C.ar      1 <0>        -0.0677
     15 C12        -2.6670   -3.0509    4.8276 C.ar      1 <0>        -0.1286
     16 C13        -2.3173   -2.5524    3.5905 C.ar      1 <0>        -0.0497
     17 C14         0.4706   -3.5968   -0.1895 C.ar      1 <0>        -0.1500
     18 C15         1.2713   -4.7096   -0.0124 C.ar      1 <0>        -0.0943
     19 C16         0.7566   -5.9735   -0.2325 C.ar      1 <0>        -0.1181
     20 C17        -0.5589   -6.1246   -0.6293 C.ar      1 <0>        -0.0999
     21 C18        -1.3599   -5.0118   -0.8055 C.ar      1 <0>        -0.1185
     22 C19        -0.8464   -3.7481   -0.5812 C.ar      1 <0>        -0.1052
     23 O2          2.4179   -2.1987   -0.2961 O.3       1 <0>        -0.5493
     24 H2          2.0747    1.9900    0.9576 H         1 <0>         0.1257
     25 H3          0.4368    2.5757    0.5801 H         1 <0>         0.1266
     26 H4          0.8547    2.1145    2.2477 H         1 <0>         0.1243
     27 H5          0.2584    0.9318   -1.1092 H         1 <0>         0.1333
     28 H6          1.8598    0.2554   -0.7290 H         1 <0>         0.1343
     29 H7         -0.7900   -1.2528   -0.5789 H         1 <0>         0.1338
     30 H8          0.4324   -1.4251   -1.8623 H         1 <0>         0.1162
     31 H9          2.4188   -0.3556    1.4715 H         1 <0>         0.1530
     32 H10         1.2514   -0.1533    2.7991 H         1 <0>         0.1372
     33 H11         1.0600   -2.8095    3.8669 H         1 <0>         0.1311
     34 H12         0.4097   -3.6851    6.0707 H         1 <0>         0.1369
     35 H13        -1.9667   -3.8400    6.6866 H         1 <0>         0.1364
     36 H14        -3.7084   -3.1223    5.1048 H         1 <0>         0.1372
     37 H15        -3.0833   -2.2336    2.8990 H         1 <0>         0.1371
     38 H16         2.2991   -4.5915    0.2976 H         1 <0>         0.1308
     39 H17         1.3824   -6.8429   -0.0949 H         1 <0>         0.1295
     40 H18        -0.9609   -7.1121   -0.8020 H         1 <0>         0.1288
     41 H19        -2.3876   -5.1299   -1.1159 H         1 <0>         0.1278
     42 H20        -1.4732   -2.8789   -0.7153 H         1 <0>         0.1313
     43 H21         2.5953   -2.4179   -1.2210 H         1 <0>         0.3982
     44 H22        -0.3936    0.4121    1.1424 H         1 <0>         0.4228
@<TRIPOS>BOND
     1    1    2 1
     2    1   24 1
     3    1   25 1
     4    1   26 1
     5    2    8 1
     6    2    3 1
     7    2   44 1
     8    3    4 1
     9    3   27 1
    10    3   28 1
    11    4    5 1
    12    4   29 1
    13    4   30 1
    14    5    6 1
    15    5   17 1
    16    5   23 1
    17    6    7 1
    18    6    8 1
    19    6    9 1
    20    8   31 1
    21    8   32 1
    22    9   10 2
    23    9   11 1
    24   11   16 ar
    25   11   12 ar
    26   12   13 ar
    27   12   33 1
    28   13   14 ar
    29   13   34 1
    30   14   15 ar
    31   14   35 1
    32   15   16 ar
    33   15   36 1
    34   16   37 1
    35   17   22 ar
    36   17   18 ar
    37   18   19 ar
    38   18   38 1
    39   19   20 ar
    40   19   39 1
    41   20   21 ar
    42   20   40 1
    43   21   22 ar
    44   21   41 1
    45   22   42 1
    46   23   43 1
@<TRIPOS>MOLECULE
ZINC05934431
   35    36     0     0     0
SMALL
USER_CHARGES
2-phenyl-2-(2-piperidyl)acetamide
@<TRIPOS>ATOM
      1 C1         -6.3070    2.8020   -3.4472 C.ar      1 <0>        -0.0967
      2 C2         -6.7161    3.1234   -2.1665 C.ar      1 <0>        -0.1107
      3 C3         -6.0691    2.5733   -1.0757 C.ar      1 <0>        -0.1014
      4 C4         -5.0132    1.7016   -1.2657 C.ar      1 <0>        -0.1077
      5 C5         -4.6007    1.3843   -2.5463 C.ar      1 <0>        -0.1069
      6 C6         -5.2505    1.9309   -3.6371 C.ar      1 <0>        -0.1092
      7 C7         -4.3079    1.1019   -0.0766 C.3       1 <0>        -0.0856
      8 H1         -4.8205    1.3997    0.8381 H         1 <0>         0.1282
      9 C8         -2.8620    1.6006   -0.0364 C.3       1 <0>         0.0552
     10 H2         -2.3214    1.2173   -0.9018 H         1 <0>         0.1457
     11 C9         -2.8496    3.1307   -0.0643 C.3       1 <0>        -0.1374
     12 C10        -1.4013    3.6265   -0.0035 C.3       1 <0>        -0.1370
     13 C11        -0.7365    3.0788    1.2624 C.3       1 <0>        -0.1477
     14 C12        -0.8101    1.5502    1.2518 C.3       1 <0>        -0.0003
     15 C13        -4.3179   -0.4006   -0.1917 C.2       1 <0>         0.5213
     16 O1         -3.2717   -1.0124   -0.2371 O.2       1 <0>        -0.5544
     17 N1         -5.4896   -1.0646   -0.2442 N.am      1 <0>        -0.8272
     18 H3         -6.8129    3.2311   -4.2994 H         1 <0>         0.1325
     19 H4         -7.5415    3.8039   -2.0180 H         1 <0>         0.1333
     20 H5         -6.3887    2.8244   -0.0751 H         1 <0>         0.1290
     21 H6         -3.7729    0.7066   -2.6947 H         1 <0>         0.1226
     22 H7         -4.9311    1.6796   -4.6377 H         1 <0>         0.1318
     23 H8         -3.3159    3.4817   -0.9849 H         1 <0>         0.1140
     24 H9         -3.4024    3.5148    0.7930 H         1 <0>         0.0896
     25 H10        -1.3891    4.7162    0.0210 H         1 <0>         0.0961
     26 H11        -0.8589    3.2749   -0.8811 H         1 <0>         0.0823
     27 H12        -1.2555    3.4620    2.1410 H         1 <0>         0.0881
     28 H13         0.3070    3.3927    1.2904 H         1 <0>         0.1127
     29 H14        -0.2791    1.1671    0.3804 H         1 <0>         0.1303
     30 H15        -0.3498    1.1582    2.1587 H         1 <0>         0.1328
     31 H16        -6.3264   -0.5753   -0.2079 H         1 <0>         0.4120
     32 H17        -5.4961   -2.0318   -0.3183 H         1 <0>         0.4164
     33 N2         -2.2206    1.1204    1.2024 N.4       1 <0>        -0.5146
     34 H18        -2.2628    0.0949    1.2295 H         1 <0>         0.4385
     35 H19        -2.7199    1.5051    2.0129 H         1 <0>         0.4243
@<TRIPOS>BOND
     1    1    6 ar
     2    1    2 ar
     3    1   18 1
     4    2    3 ar
     5    2   19 1
     6    3    4 ar
     7    3   20 1
     8    4    5 ar
     9    4    7 1
    10    5    6 ar
    11    5   21 1
    12    6   22 1
    13    7    8 1
    14    7    9 1
    15    7   15 1
    16    9   10 1
    17    9   11 1
    18    9   33 1
    19   11   12 1
    20   11   23 1
    21   11   24 1
    22   12   13 1
    23   12   25 1
    24   12   26 1
    25   13   14 1
    26   13   27 1
    27   13   28 1
    28   14   29 1
    29   14   30 1
    30   14   33 1
    31   15   16 2
    32   15   17 am
    33   17   31 1
    34   17   32 1
    35   33   34 1
    36   33   35 1
@<TRIPOS>MOLECULE
ZINC01319785
   47    49     0     0     0
SMALL
USER_CHARGES
ethyl 3-benzoyloxy-8-methyl-8-azabicyclo[3.2.1]octane-2-carboxylate
@<TRIPOS>ATOM
      1 C1          3.9995    4.7104   -3.9821 C.3       1 <0>        -0.1600
      2 C2          2.6475    4.0073   -3.8459 C.3       1 <0>         0.0603
      3 O1          2.1353    4.1996   -2.5009 O.3       1 <0>        -0.3339
      4 C3          0.9485    3.6414   -2.2152 C.2       1 <0>         0.4754
      5 O2          0.3572    3.0129   -3.0610 O.2       1 <0>        -0.5112
      6 C4          0.3535    3.7985   -0.8396 C.3       1 <0>        -0.1077
      7 H1          0.2000    4.8565   -0.6269 H         1 <0>         0.1670
      8 C5         -0.9912    3.0569   -0.7725 C.3       1 <0>         0.0538
      9 H2         -1.7543    3.5340   -1.3875 H         1 <0>         0.1659
     10 C6         -1.4090    2.9688    0.7135 C.3       1 <0>        -0.1406
     11 C7         -0.7571    1.6536    1.2384 C.3       1 <0>        -0.1400
     12 C8         -0.0127    1.0858    0.0080 C.3       1 <0>         0.0253
     13 H3          0.0021   -0.0041    0.0020 H         1 <0>         0.1592
     14 C9         -1.9895    0.9181   -1.4061 C.3       1 <0>        -0.0315
     15 C10         1.4031    1.6841   -0.0023 C.3       1 <0>        -0.1653
     16 C11         1.3029    3.1985    0.2015 C.3       1 <0>         0.0885
     17 H4          2.2910    3.6454    0.0912 H         1 <0>         0.1300
     18 O3          0.7953    3.4741    1.5337 O.3       1 <0>        -0.3351
     19 C12         1.7042    3.6073    2.5190 C.2       1 <0>         0.5048
     20 O4          2.8884    3.4964    2.2721 O.2       1 <0>        -0.4854
     21 C13         1.2608    3.8884    3.8998 C.ar      1 <0>        -0.1389
     22 C14        -0.0993    4.0222    4.1861 C.ar      1 <0>        -0.0679
     23 C15        -0.5067    4.2789    5.4788 C.ar      1 <0>        -0.1307
     24 C16         0.4295    4.4152    6.4884 C.ar      1 <0>        -0.0723
     25 C17         1.7792    4.2895    6.2107 C.ar      1 <0>        -0.1254
     26 C18         2.2002    4.0271    4.9235 C.ar      1 <0>        -0.0496
     27 H5          4.7018    4.2900   -3.2623 H         1 <0>         0.0721
     28 H6          4.3840    4.5661   -4.9917 H         1 <0>         0.0921
     29 H7          3.8760    5.7761   -3.7892 H         1 <0>         0.0733
     30 H8          2.7710    2.9417   -4.0387 H         1 <0>         0.0801
     31 H9          1.9452    4.4278   -4.5657 H         1 <0>         0.0832
     32 H10        -1.0268    3.8268    1.2665 H         1 <0>         0.1318
     33 H11        -2.4942    2.9136    0.7997 H         1 <0>         0.1040
     34 H12        -1.5155    0.9497    1.5811 H         1 <0>         0.0984
     35 H13        -0.0521    1.8731    2.0403 H         1 <0>         0.1217
     36 H14        -2.6302    0.9968   -0.5278 H         1 <0>         0.1187
     37 H15        -2.4995    1.3491   -2.2676 H         1 <0>         0.1250
     38 H16        -1.7688   -0.1312   -1.6019 H         1 <0>         0.1226
     39 H17         1.9907    1.2453    0.8041 H         1 <0>         0.1278
     40 H18         1.8807    1.4754   -0.9596 H         1 <0>         0.1011
     41 H19        -0.8308    3.9204    3.3981 H         1 <0>         0.1338
     42 H20        -1.5587    4.3778    5.7025 H         1 <0>         0.1357
     43 H21         0.1053    4.6202    7.4980 H         1 <0>         0.1358
     44 H22         2.5047    4.3967    7.0035 H         1 <0>         0.1391
     45 H23         3.2539    3.9289    4.7081 H         1 <0>         0.1401
     46 N1         -0.7144    1.6614   -1.1328 N.4       1 <0>        -0.3982
     47 H24        -0.1185    1.6248   -1.9681 H         1 <0>         0.4270
@<TRIPOS>BOND
     1    1    2 1
     2    1   27 1
     3    1   28 1
     4    1   29 1
     5    2    3 1
     6    2   30 1
     7    2   31 1
     8    3    4 1
     9    4    5 2
    10    4    6 1
    11    6    7 1
    12    6   16 1
    13    6    8 1
    14    8    9 1
    15    8   10 1
    16    8   46 1
    17   10   11 1
    18   10   32 1
    19   10   33 1
    20   11   12 1
    21   11   34 1
    22   11   35 1
    23   12   13 1
    24   12   15 1
    25   12   46 1
    26   14   36 1
    27   14   37 1
    28   14   38 1
    29   14   46 1
    30   15   16 1
    31   15   39 1
    32   15   40 1
    33   16   17 1
    34   16   18 1
    35   18   19 1
    36   19   20 2
    37   19   21 1
    38   21   26 ar
    39   21   22 ar
    40   22   23 ar
    41   22   41 1
    42   23   24 ar
    43   23   42 1
    44   24   25 ar
    45   24   43 1
    46   25   26 ar
    47   25   44 1
    48   26   45 1
    49   46   47 1
@<TRIPOS>MOLECULE
ZINC03872127
   47    49     0     0     0
SMALL
USER_CHARGES
ethyl 3-benzoyloxy-8-methyl-8-azabicyclo[3.2.1]octane-2-carboxylate
@<TRIPOS>ATOM
      1 C1          1.4713    1.2435    5.1404 C.3       1 <0>        -0.1576
      2 C2          0.5996    2.1672    4.2873 C.3       1 <0>         0.0656
      3 O1          1.2122    2.3420    2.9825 O.3       1 <0>        -0.3492
      4 C3          0.5682    3.1302    2.1075 C.2       1 <0>         0.4766
      5 O2         -0.4730    3.6567    2.4215 O.2       1 <0>        -0.4845
      6 C4          1.1438    3.3585    0.7336 C.3       1 <0>        -0.1009
      7 H1          2.1273    3.8203    0.8200 H         1 <0>         0.1493
      8 C5          0.2111    4.2800   -0.0664 C.3       1 <0>         0.0454
      9 H2         -0.0324    5.1977    0.4691 H         1 <0>         0.1686
     10 C6         -1.0508    3.4680   -0.4387 C.3       1 <0>        -0.1367
     11 C7         -0.7044    2.7931   -1.7822 C.3       1 <0>        -0.1448
     12 C8          0.7353    3.2588   -2.0997 C.3       1 <0>         0.0300
     13 H3          0.9165    3.3676   -3.1690 H         1 <0>         0.1629
     14 C9          0.1916    5.6336   -2.0920 C.3       1 <0>        -0.0344
     15 C10         1.7065    2.2624   -1.4463 C.3       1 <0>        -0.1582
     16 C11         1.2684    2.0196    0.0008 C.3       1 <0>         0.0839
     17 H4          2.0090    1.3982    0.5044 H         1 <0>         0.1301
     18 O3         -0.0162    1.3429    0.0094 O.3       1 <0>        -0.3402
     19 C12         0.0021   -0.0041    0.0020 C.2       1 <0>         0.5048
     20 O4          1.0621   -0.5970   -0.0113 O.2       1 <0>        -0.4849
     21 C13        -1.2671   -0.7600    0.0101 C.ar      1 <0>        -0.1398
     22 C14        -2.4873   -0.0816    0.0312 C.ar      1 <0>        -0.0678
     23 C15        -3.6687   -0.7938    0.0333 C.ar      1 <0>        -0.1303
     24 C16        -3.6463   -2.1772    0.0257 C.ar      1 <0>        -0.0723
     25 C17        -2.4406   -2.8559    0.0105 C.ar      1 <0>        -0.1255
     26 C18        -1.2518   -2.1562    0.0024 C.ar      1 <0>        -0.0497
     27 H5          1.5630    0.2747    4.6494 H         1 <0>         0.0693
     28 H6          2.4605    1.6855    5.2598 H         1 <0>         0.0708
     29 H7          1.0114    1.1124    6.1199 H         1 <0>         0.0893
     30 H8          0.5078    3.1360    4.7783 H         1 <0>         0.0785
     31 H9         -0.3896    1.7252    4.1679 H         1 <0>         0.0763
     32 H10        -1.2555    2.7150    0.3224 H         1 <0>         0.1284
     33 H11        -1.9079    4.1312   -0.5553 H         1 <0>         0.1006
     34 H12        -1.3907    3.1247   -2.5613 H         1 <0>         0.0963
     35 H13        -0.7387    1.7083   -1.6817 H         1 <0>         0.1215
     36 H14        -0.8684    5.3982   -2.1875 H         1 <0>         0.1207
     37 H15         0.3085    6.5656   -1.5391 H         1 <0>         0.1256
     38 H16         0.6306    5.7420   -3.0838 H         1 <0>         0.1277
     39 H17         2.7154    2.6749   -1.4580 H         1 <0>         0.1130
     40 H18         1.6886    1.3213   -1.9960 H         1 <0>         0.1260
     41 H19        -2.5061    0.9981    0.0418 H         1 <0>         0.1319
     42 H20        -4.6133   -0.2703    0.0452 H         1 <0>         0.1356
     43 H21        -4.5742   -2.7299    0.0320 H         1 <0>         0.1361
     44 H22        -2.4302   -3.9358    0.0046 H         1 <0>         0.1393
     45 H23        -0.3114   -2.6871   -0.0101 H         1 <0>         0.1402
     46 N1          0.8589    4.5135   -1.3524 N.4       1 <0>        -0.3932
     47 H24         1.8492    4.7451   -1.2114 H         1 <0>         0.4261
@<TRIPOS>BOND
     1    1    2 1
     2    1   27 1
     3    1   28 1
     4    1   29 1
     5    2    3 1
     6    2   30 1
     7    2   31 1
     8    3    4 1
     9    4    5 2
    10    4    6 1
    11    6    7 1
    12    6   16 1
    13    6    8 1
    14    8    9 1
    15    8   10 1
    16    8   46 1
    17   10   11 1
    18   10   32 1
    19   10   33 1
    20   11   12 1
    21   11   34 1
    22   11   35 1
    23   12   13 1
    24   12   15 1
    25   12   46 1
    26   14   36 1
    27   14   37 1
    28   14   38 1
    29   14   46 1
    30   15   16 1
    31   15   39 1
    32   15   40 1
    33   16   17 1
    34   16   18 1
    35   18   19 1
    36   19   20 2
    37   19   21 1
    38   21   26 ar
    39   21   22 ar
    40   22   23 ar
    41   22   41 1
    42   23   24 ar
    43   23   42 1
    44   24   25 ar
    45   24   43 1
    46   25   26 ar
    47   25   44 1
    48   26   45 1
    49   46   47 1
@<TRIPOS>MOLECULE
ZINC27408416
   47    49     0     0     0
SMALL
USER_CHARGES
isopropyl (1S,2S,3S,5R)-3-(4-iodophenyl)-8-methyl-8-azabicyclo[3.2.1]octane-2-carboxylate
@<TRIPOS>ATOM
      1 C1         -0.6509    1.4358   -1.2285 C.3       1 <0>        -0.1756
      2 C2          0.1136    0.7575   -0.0899 C.3       1 <0>         0.0835
      3 C3         -0.6238    0.9915    1.2300 C.3       1 <0>        -0.1563
      4 O1          1.4504    1.3177   -0.0034 O.3       1 <0>        -0.3507
      5 C4          2.4092    0.7214   -0.7294 C.2       1 <0>         0.4851
      6 O2          2.1403   -0.2368   -1.4145 O.2       1 <0>        -0.5004
      7 C5          3.8209    1.2472   -0.6900 C.3       1 <0>        -0.1070
      8 H1          3.8653    2.1581   -1.3051 H         1 <0>         0.1431
      9 C6          4.7828    0.1812   -1.2385 C.3       1 <0>         0.0570
     10 H2          4.4644   -0.1623   -2.2338 H         1 <0>         0.1609
     11 C7          4.8896   -0.9460   -0.1857 C.3       1 <0>        -0.2051
     12 C8          6.0401   -0.5095    0.7451 C.3       1 <0>        -0.2088
     13 C9          6.5240    0.8416    0.1700 C.3       1 <0>         0.0446
     14 H3          7.6001    1.0269    0.3028 H         1 <0>         0.1547
     15 N1          6.1413    0.7856   -1.2660 N.4       1 <0>        -0.4063
     16 C10         7.0758   -0.0541   -2.0274 C.3       1 <0>        -0.0502
     17 C11         5.6887    1.9557    0.8209 C.3       1 <0>        -0.1418
     18 C12         4.2087    1.5677    0.7564 C.3       1 <0>        -0.0501
     19 H4          3.5906    2.3965    1.1320 H         1 <0>         0.1350
     20 C13         3.9701    0.3557    1.6196 C.ar      1 <0>        -0.0757
     21 C14         2.9646   -0.5361    1.2960 C.ar      1 <0>        -0.1391
     22 C15         2.7493   -1.6508    2.0844 C.ar      1 <0>        -0.0916
     23 C16         3.5326   -1.8681    3.2031 C.ar      1 <0>        -0.0846
     24 C17         4.5347   -0.9728    3.5298 C.ar      1 <0>        -0.0970
     25 C18         4.7530    0.1390    2.7381 C.ar      1 <0>        -0.1018
     26 I1          3.2019   -3.5538    4.4024 I         1 <0>        -0.0160
     27 H5         -0.1207    1.2675   -2.1775 H         1 <0>         0.0625
     28 H6         -0.7180    2.5161   -1.0325 H         1 <0>         0.0731
     29 H7         -1.6636    1.0114   -1.2940 H         1 <0>         0.0857
     30 H8          0.2342   -0.3182   -0.2855 H         1 <0>         0.0888
     31 H9         -0.0741    0.5038    2.0485 H         1 <0>         0.0676
     32 H10        -1.6365    0.5671    1.1644 H         1 <0>         0.0892
     33 H11        -0.6909    2.0718    1.4260 H         1 <0>         0.0747
     34 H12         3.9368   -1.0322    0.3572 H         1 <0>         0.1647
     35 H13         5.1120   -1.8983   -0.6894 H         1 <0>         0.0968
     36 H14         5.6604   -0.4025    1.7720 H         1 <0>         0.1716
     37 H15         6.8357   -1.2688    0.7256 H         1 <0>         0.0949
     38 H16         8.0706    0.4154   -2.0316 H         1 <0>         0.1261
     39 H17         6.7154   -0.1590   -3.0614 H         1 <0>         0.1234
     40 H18         7.1411   -1.0474   -1.5593 H         1 <0>         0.1177
     41 H19         5.9956    2.0787    1.8700 H         1 <0>         0.1247
     42 H20         5.8498    2.8992    0.2788 H         1 <0>         0.1034
     43 H21         2.3502   -0.3642    0.4246 H         1 <0>         0.1547
     44 H22         1.9664   -2.3497    1.8293 H         1 <0>         0.1380
     45 H23         5.1469   -1.1424    4.4032 H         1 <0>         0.1423
     46 H24         5.5356    0.8383    2.9932 H         1 <0>         0.1472
     47 H25         6.1705    1.7668   -1.7623 H         1 <0>         0.4471
@<TRIPOS>BOND
     1    1    2 1
     2    1   27 1
     3    1   28 1
     4    1   29 1
     5    2    3 1
     6    2    4 1
     7    2   30 1
     8    3   31 1
     9    3   32 1
    10    3   33 1
    11    4    5 1
    12    5    6 2
    13    5    7 1
    14    7    8 1
    15    7   18 1
    16    7    9 1
    17    9   10 1
    18    9   15 1
    19    9   11 1
    20   11   12 1
    21   11   34 1
    22   11   35 1
    23   12   13 1
    24   12   36 1
    25   12   37 1
    26   13   14 1
    27   13   15 1
    28   13   17 1
    29   15   16 1
    30   15   47 1
    31   16   38 1
    32   16   39 1
    33   16   40 1
    34   17   18 1
    35   17   41 1
    36   17   42 1
    37   18   19 1
    38   18   20 1
    39   20   25 ar
    40   20   21 ar
    41   21   22 ar
    42   21   43 1
    43   22   23 ar
    44   22   44 1
    45   23   24 ar
    46   23   26 1
    47   24   25 ar
    48   24   45 1
    49   25   46 1
@<TRIPOS>MOLECULE
ZINC64559770
   57    60     0     0     0
SMALL
USER_CHARGES

@<TRIPOS>ATOM
      1 C1         -0.0178    1.4648    0.0101 C.3       1 <0>        -0.0470
      2 N1          0.0021   -0.0041    0.0020 N.4       1 <0>        -0.3845
      3 C2          0.6815   -0.4760   -1.2105 C.3       1 <0>        -0.0207
      4 C3          0.6339   -2.0045   -1.2642 C.3       1 <0>        -0.1297
      5 C4          1.3359   -2.5754   -0.0287 C.3       1 <0>        -0.0072
      6 C5          0.6658   -2.0178    1.2303 C.3       1 <0>        -0.1353
      7 C6          0.7122   -0.4888    1.1916 C.3       1 <0>        -0.0121
      8 C7          1.2246   -4.0783   -0.0353 C.ar      1 <0>        -0.1111
      9 C8          0.5637   -4.7158   -1.0698 C.ar      1 <0>        -0.1027
     10 C9          0.4588   -6.0919   -1.0809 C.ar      1 <0>        -0.1113
     11 C10         1.0201   -6.8392   -0.0474 C.ar      1 <0>        -0.0149
     12 C11         1.6847   -6.1918    0.9922 C.ar      1 <0>        -0.1089
     13 C12         1.7885   -4.8155    0.9902 C.ar      1 <0>        -0.0883
     14 C13         0.9101   -8.3190   -0.0537 C.ar      1 <0>        -0.0655
     15 C14         0.2501   -8.9667   -1.0960 C.ar      1 <0>        -0.1053
     16 C15         0.1512  -10.3433   -1.0970 C.ar      1 <0>        -0.1173
     17 C16         0.7053  -11.0798   -0.0656 C.ar      1 <0>        -0.1076
     18 C17         1.3611  -10.4420    0.9719 C.ar      1 <0>        -0.1170
     19 C18         1.4714   -9.0662    0.9798 C.ar      1 <0>        -0.1048
     20 C19         2.7889   -2.1761   -0.0452 C.2       1 <0>         0.4679
     21 O1          3.2204   -1.5036   -0.9516 O.2       1 <0>        -0.4977
     22 O2          3.6038   -2.5673    0.9471 O.3       1 <0>        -0.3333
     23 C20         4.9689   -2.1525    0.8672 C.3       1 <0>         0.1099
     24 C21         5.7253   -2.6817    2.0584 C.ar      1 <0>        -0.1090
     25 C22         5.8010   -1.9324    3.2176 C.ar      1 <0>        -0.0960
     26 C23         6.4948   -2.4178    4.3102 C.ar      1 <0>        -0.1211
     27 C24         7.1125   -3.6527    4.2439 C.ar      1 <0>        -0.1006
     28 C25         7.0360   -4.4024    3.0850 C.ar      1 <0>        -0.1188
     29 C26         6.3386   -3.9189    1.9938 C.ar      1 <0>        -0.0923
     30 H1          1.0047    1.8421    0.0024 H         1 <0>         0.1211
     31 H2         -0.5450    1.8259   -0.8730 H         1 <0>         0.1265
     32 H3         -0.5280    1.8163    0.9069 H         1 <0>         0.1256
     33 H4          0.1827   -0.0663   -2.0888 H         1 <0>         0.1386
     34 H5          1.7201   -0.1456   -1.1964 H         1 <0>         0.1456
     35 H6         -0.4044   -2.3361   -1.2786 H         1 <0>         0.1097
     36 H7          1.1404   -2.3531   -2.1643 H         1 <0>         0.1256
     37 H8         -0.3718   -2.3496    1.2677 H         1 <0>         0.1113
     38 H9          1.1951   -2.3758    2.1133 H         1 <0>         0.1277
     39 H10         1.7502   -0.1581    1.1545 H         1 <0>         0.1233
     40 H11         0.2361   -0.0886    2.0867 H         1 <0>         0.1425
     41 H12         0.1288   -4.1356   -1.8702 H         1 <0>         0.1298
     42 H13        -0.0577   -6.5886   -1.8889 H         1 <0>         0.1329
     43 H14         2.1213   -6.7662    1.7959 H         1 <0>         0.1326
     44 H15         2.3075   -4.3130    1.7930 H         1 <0>         0.1352
     45 H16        -0.1835   -8.3925   -1.9014 H         1 <0>         0.1252
     46 H17        -0.3602  -10.8464   -1.9044 H         1 <0>         0.1282
     47 H18         0.6252  -12.1568   -0.0701 H         1 <0>         0.1275
     48 H19         1.7916  -11.0219    1.7749 H         1 <0>         0.1282
     49 H20         1.9876   -8.5695    1.7880 H         1 <0>         0.1256
     50 H21         5.4141   -2.5423   -0.0483 H         1 <0>         0.0826
     51 H22         5.0180   -1.0637    0.8601 H         1 <0>         0.0796
     52 H23         5.3184   -0.9676    3.2694 H         1 <0>         0.1214
     53 H24         6.5545   -1.8321    5.2156 H         1 <0>         0.1284
     54 H25         7.6551   -4.0316    5.0973 H         1 <0>         0.1289
     55 H26         7.5189   -5.3670    3.0331 H         1 <0>         0.1293
     56 H27         6.2757   -4.5062    1.0897 H         1 <0>         0.1243
     57 H28        -0.9449   -0.3523    0.0117 H         1 <0>         0.4249
@<TRIPOS>BOND
     1    1    2 1
     2    1   30 1
     3    1   31 1
     4    1   32 1
     5    2    7 1
     6    2    3 1
     7    2   57 1
     8    3    4 1
     9    3   33 1
    10    3   34 1
    11    4    5 1
    12    4   35 1
    13    4   36 1
    14    5    6 1
    15    5    8 1
    16    5   20 1
    17    6    7 1
    18    6   37 1
    19    6   38 1
    20    7   39 1
    21    7   40 1
    22    8   13 ar
    23    8    9 ar
    24    9   10 ar
    25    9   41 1
    26   10   11 ar
    27   10   42 1
    28   11   12 ar
    29   11   14 1
    30   12   13 ar
    31   12   43 1
    32   13   44 1
    33   14   19 ar
    34   14   15 ar
    35   15   16 ar
    36   15   45 1
    37   16   17 ar
    38   16   46 1
    39   17   18 ar
    40   17   47 1
    41   18   19 ar
    42   18   48 1
    43   19   49 1
    44   20   21 2
    45   20   22 1
    46   22   23 1
    47   23   24 1
    48   23   50 1
    49   23   51 1
    50   24   29 ar
    51   24   25 ar
    52   25   26 ar
    53   25   52 1
    54   26   27 ar
    55   26   53 1
    56   27   28 ar
    57   27   54 1
    58   28   29 ar
    59   28   55 1
    60   29   56 1
@<TRIPOS>MOLECULE
ZINC64560550
   37    38     0     0     0
SMALL
USER_CHARGES

@<TRIPOS>ATOM
      1 C1         -0.0187    1.5258    0.0104 C.3       1 <0>        -0.1573
      2 C2          0.0021   -0.0041    0.0020 C.3       1 <0>         0.0597
      3 O1          0.6709   -0.4649   -1.1737 O.3       1 <0>        -0.3407
      4 C3          0.7755   -1.7935   -1.3341 C.2       1 <0>         0.4659
      5 O2          0.3143   -2.5404   -0.5039 O.2       1 <0>        -0.4927
      6 C4          1.4679   -2.3535   -2.5498 C.3       1 <0>        -0.0096
      7 C5          2.9209   -1.8705   -2.5795 C.3       1 <0>        -0.1382
      8 C6          3.6576   -2.4114   -1.3523 C.3       1 <0>        -0.0116
      9 N1          3.6279   -3.8789   -1.3667 N.4       1 <0>        -0.5048
     10 C7          2.2414   -4.3500   -1.2661 C.3       1 <0>        -0.0203
     11 C8          1.4501   -3.8836   -2.4900 C.3       1 <0>        -0.1324
     12 C9          0.7555   -1.8895   -3.7941 C.ar      1 <0>        -0.0929
     13 C10         0.2053   -2.8154   -4.6611 C.ar      1 <0>        -0.0930
     14 C11        -0.4480   -2.3913   -5.8028 C.ar      1 <0>        -0.0932
     15 C12        -0.5521   -1.0395   -6.0784 C.ar      1 <0>        -0.0185
     16 C13        -0.0017   -0.1124   -5.2099 C.ar      1 <0>        -0.0301
     17 C14         0.6474   -0.5386   -4.0649 C.ar      1 <0>        -0.0772
     18 Cl1        -0.1311    1.5841   -5.5546 Cl        1 <0>        -0.0277
     19 Cl2        -1.3721   -0.5062   -7.5126 Cl        1 <0>        -0.0264
     20 H1          1.0039    1.9031    0.0027 H         1 <0>         0.0694
     21 H2         -0.5459    1.8868   -0.8726 H         1 <0>         0.0717
     22 H3         -0.5289    1.8773    0.9072 H         1 <0>         0.0880
     23 H4          0.5293   -0.3651    0.8851 H         1 <0>         0.0725
     24 H5         -1.0205   -0.3814    0.0098 H         1 <0>         0.0753
     25 H6          3.4068   -2.2336   -3.4851 H         1 <0>         0.1143
     26 H7          2.9425   -0.7808   -2.5660 H         1 <0>         0.1291
     27 H8          4.6924   -2.0692   -1.3702 H         1 <0>         0.1474
     28 H9          3.1711   -2.0475   -0.4473 H         1 <0>         0.1263
     29 H10         4.0343   -4.2140   -2.2273 H         1 <0>         0.4290
     30 H11         2.2305   -5.4389   -1.2203 H         1 <0>         0.1436
     31 H12         1.7851   -3.9447   -0.3629 H         1 <0>         0.1476
     32 H13         0.4205   -4.2329   -2.4125 H         1 <0>         0.1278
     33 H14         1.9055   -4.2885   -3.3937 H         1 <0>         0.1126
     34 H15         0.2865   -3.8707   -4.4463 H         1 <0>         0.1449
     35 H16        -0.8768   -3.1150   -6.4800 H         1 <0>         0.1523
     36 H17         1.0735    0.1843   -3.3850 H         1 <0>         0.1532
     37 H18         4.1598   -4.2327   -0.5857 H         1 <0>         0.4359
@<TRIPOS>BOND
     1    1    2 1
     2    1   20 1
     3    1   21 1
     4    1   22 1
     5    2    3 1
     6    2   23 1
     7    2   24 1
     8    3    4 1
     9    4    5 2
    10    4    6 1
    11    6   11 1
    12    6    7 1
    13    6   12 1
    14    7    8 1
    15    7   25 1
    16    7   26 1
    17    8    9 1
    18    8   27 1
    19    8   28 1
    20    9   10 1
    21    9   29 1
    22    9   37 1
    23   10   11 1
    24   10   30 1
    25   10   31 1
    26   11   32 1
    27   11   33 1
    28   12   17 ar
    29   12   13 ar
    30   13   14 ar
    31   13   34 1
    32   14   15 ar
    33   14   35 1
    34   15   16 ar
    35   15   19 1
    36   16   17 ar
    37   16   18 1
    38   17   36 1
@<TRIPOS>MOLECULE
ZINC03614841
   34    37     0     0     0
SMALL
USER_CHARGES
(5R)-5-(3,4-dichlorophenyl)-2,3-dihydroimidazo[1,2-b]isoindol-5-ol
@<TRIPOS>ATOM
      1 C1          5.4965   -0.9716   -3.8849 C.ar      1 <0>        -0.1027
      2 C2          4.2815   -1.6178   -3.7411 C.ar      1 <0>        -0.0472
      3 C3          3.6173   -1.5914   -2.5269 C.ar      1 <0>        -0.0769
      4 C4          4.1678   -0.9196   -1.4571 C.ar      1 <0>        -0.0844
      5 C5          5.3900   -0.2674   -1.5933 C.ar      1 <0>        -0.1213
      6 C6          6.0555   -0.2968   -2.8187 C.ar      1 <0>        -0.0331
      7 C7          5.7436    0.3683   -0.2935 C.cat     1 <0>         0.5354
      8 C8          6.4473    1.4067    1.6122 C.3       1 <0>         0.0681
      9 C9          5.0942    0.7303    1.9011 C.3       1 <0>         0.0984
     10 N1          4.7496    0.1036    0.6140 N.pl3     1 <0>        -0.5569
     11 C10         3.7121   -0.7058   -0.0367 C.3       1 <0>         0.4646
     12 C11         2.3967    0.0294   -0.0207 C.ar      1 <0>        -0.1280
     13 C12         2.3780    1.4119   -0.0131 C.ar      1 <0>        -0.0819
     14 C13         1.1723    2.0874    0.0021 C.ar      1 <0>        -0.0887
     15 C14        -0.0167    1.3802    0.0096 C.ar      1 <0>        -0.0134
     16 C15         0.0021   -0.0041    0.0020 C.ar      1 <0>        -0.0249
     17 C16         1.2099   -0.6786   -0.0131 C.ar      1 <0>        -0.0741
     18 Cl1        -1.4891   -0.8929    0.0121 Cl        1 <0>        -0.0188
     19 Cl2        -1.5315    2.2282    0.0214 Cl        1 <0>        -0.0193
     20 O1          3.5791   -1.9627    0.6301 O.3       1 <0>        -0.5324
     21 H1          6.0095   -0.9957   -4.8350 H         1 <0>         0.1557
     22 H2          3.8496   -2.1445   -4.5793 H         1 <0>         0.1563
     23 H3          2.6691   -2.0969   -2.4182 H         1 <0>         0.1497
     24 H4          7.0040    0.2070   -2.9329 H         1 <0>         0.1480
     25 H5          6.3727    2.4851    1.7521 H         1 <0>         0.1333
     26 H6          7.2258    0.9924    2.2529 H         1 <0>         0.1332
     27 H7          4.3455    1.4715    2.1808 H         1 <0>         0.1232
     28 H8          5.1970   -0.0241    2.6811 H         1 <0>         0.1262
     29 H9          3.3060    1.9643   -0.0193 H         1 <0>         0.1310
     30 H10         1.1584    3.1673    0.0080 H         1 <0>         0.1544
     31 H11         1.2252   -1.7585   -0.0187 H         1 <0>         0.1486
     32 H12         2.9164   -2.5477    0.2381 H         1 <0>         0.4127
     33 N2          6.7184    1.0906    0.2021 N.pl3     1 <0>        -0.6095
     34 H13         7.5504    1.3919   -0.3186 H         1 <0>         0.4748
@<TRIPOS>BOND
     1    1    6 ar
     2    1    2 ar
     3    1   21 1
     4    2    3 ar
     5    2   22 1
     6    3    4 ar
     7    3   23 1
     8    4   11 1
     9    4    5 ar
    10    5    6 ar
    11    5    7 1
    12    6   24 1
    13    7   10 1
    14    7   33 2
    15    8    9 1
    16    8   25 1
    17    8   26 1
    18    8   33 1
    19    9   10 1
    20    9   27 1
    21    9   28 1
    22   10   11 1
    23   11   12 1
    24   11   20 1
    25   12   17 ar
    26   12   13 ar
    27   13   14 ar
    28   13   29 1
    29   14   15 ar
    30   14   30 1
    31   15   16 ar
    32   15   19 1
    33   16   17 ar
    34   16   18 1
    35   17   31 1
    36   20   32 1
    37   33   34 1
@<TRIPOS>MOLECULE
ZINC03614844
   34    37     0     0     0
SMALL
USER_CHARGES
(5S)-5-(3,4-dichlorophenyl)-2,3-dihydroimidazo[1,2-b]isoindol-5-ol
@<TRIPOS>ATOM
      1 C1          2.4013    0.0408   -0.0198 C.ar      1 <0>        -0.1026
      2 C2          2.3739    1.4241   -0.0117 C.ar      1 <0>        -0.0476
      3 C3          1.1645    2.0973    0.0022 C.ar      1 <0>        -0.0771
      4 C4         -0.0168    1.3878    0.0097 C.ar      1 <0>        -0.0851
      5 C5          0.0021   -0.0041    0.0020 C.ar      1 <0>        -0.1208
      6 C6          1.2231   -0.6780   -0.0128 C.ar      1 <0>        -0.0329
      7 C7         -1.4009   -0.5043    0.0127 C.cat     1 <0>         0.5353
      8 C8         -3.4768   -1.4507    0.0274 C.3       1 <0>         0.0676
      9 C9         -3.6428    0.0804    0.0372 C.3       1 <0>         0.0975
     10 N1         -2.2541    0.5697    0.0266 N.pl3     1 <0>        -0.5585
     11 C10        -1.4642    1.8070    0.0318 C.3       1 <0>         0.4654
     12 C11        -1.7855    2.6214   -1.1948 C.ar      1 <0>        -0.1277
     13 C12        -1.5647    3.9863   -1.1953 C.ar      1 <0>        -0.0779
     14 C13        -1.8590    4.7343   -2.3195 C.ar      1 <0>        -0.0839
     15 C14        -2.3749    4.1175   -3.4452 C.ar      1 <0>        -0.0139
     16 C15        -2.5960    2.7508   -3.4447 C.ar      1 <0>        -0.0287
     17 C16        -2.2956    2.0027   -2.3204 C.ar      1 <0>        -0.0794
     18 Cl1        -3.2433    1.9753   -4.8566 Cl        1 <0>        -0.0252
     19 Cl2        -2.7452    5.0567   -4.8575 Cl        1 <0>        -0.0192
     20 O1         -1.7367    2.5668    1.2110 O.3       1 <0>        -0.5311
     21 H1          3.3482   -0.4785   -0.0313 H         1 <0>         0.1557
     22 H2          3.2994    1.9806   -0.0165 H         1 <0>         0.1563
     23 H3          1.1467    3.1772    0.0079 H         1 <0>         0.1500
     24 H4          1.2465   -1.7577   -0.0192 H         1 <0>         0.1480
     25 H5         -3.9137   -1.8879    0.9252 H         1 <0>         0.1336
     26 H6         -3.9329   -1.8785   -0.8654 H         1 <0>         0.1338
     27 H7         -4.1585    0.4057    0.9408 H         1 <0>         0.1269
     28 H8         -4.1756    0.4154   -0.8528 H         1 <0>         0.1229
     29 H9         -1.1616    4.4681   -0.3167 H         1 <0>         0.1459
     30 H10        -1.6865    5.8005   -2.3191 H         1 <0>         0.1589
     31 H11        -2.4637    0.9359   -2.3209 H         1 <0>         0.1349
     32 H12        -1.2263    3.3854    1.2781 H         1 <0>         0.4128
     33 N2         -2.0213   -1.6587    0.0124 N.pl3     1 <0>        -0.6089
     34 H13        -1.5583   -2.5751    0.0031 H         1 <0>         0.4749
@<TRIPOS>BOND
     1    1    6 ar
     2    1    2 ar
     3    1   21 1
     4    2    3 ar
     5    2   22 1
     6    3    4 ar
     7    3   23 1
     8    4   11 1
     9    4    5 ar
    10    5    6 ar
    11    5    7 1
    12    6   24 1
    13    7   10 1
    14    7   33 2
    15    8    9 1
    16    8   25 1
    17    8   26 1
    18    8   33 1
    19    9   10 1
    20    9   27 1
    21    9   28 1
    22   10   11 1
    23   11   12 1
    24   11   20 1
    25   12   17 ar
    26   12   13 ar
    27   13   14 ar
    28   13   29 1
    29   14   15 ar
    30   14   30 1
    31   15   16 ar
    32   15   19 1
    33   16   17 ar
    34   16   18 1
    35   17   31 1
    36   20   32 1
    37   33   34 1
@<TRIPOS>MOLECULE
ZINC13209889
   31    33     0     0     0
SMALL
USER_CHARGES
(4-chlorophenyl)-[2-(1H-imidazol-2-yl)phenyl]methanone
@<TRIPOS>ATOM
      1 C1         -3.5190   -1.0765    0.1789 C.ar      1 <0>        -0.0976
      2 C2         -3.4098   -2.4322   -0.0878 C.ar      1 <0>        -0.1086
      3 C3         -2.1700   -3.0205   -0.2230 C.ar      1 <0>        -0.0810
      4 C4         -1.0138   -2.2493   -0.0909 C.ar      1 <0>        -0.1122
      5 C5         -1.1254   -0.8709    0.1807 C.ar      1 <0>         0.0166
      6 C6         -2.3887   -0.2977    0.3193 C.ar      1 <0>        -0.1131
      7 C7          0.0872   -0.0408    0.3234 C.2       1 <0>         0.2240
      8 N1          0.1139    1.3151    0.4801 N.pl3     1 <0>        -0.5611
      9 H1         -0.6775    1.9251    0.5187 H         1 <0>         0.4270
     10 C8          1.4275    1.6807    0.5743 C.2       1 <0>        -0.0347
     11 C9          2.1611    0.5511    0.4738 C.2       1 <0>        -0.0192
     12 N2          1.3267   -0.4813    0.3221 N.2       1 <0>        -0.4606
     13 C10         0.3150   -2.8725   -0.2349 C.2       1 <0>         0.4661
     14 O1          0.7718   -3.5462    0.6685 O.2       1 <0>        -0.4333
     15 C11         1.0911   -2.6784   -1.4766 C.ar      1 <0>        -0.1229
     16 C12         0.5971   -1.8544   -2.4910 C.ar      1 <0>        -0.0570
     17 C13         1.3290   -1.6727   -3.6451 C.ar      1 <0>        -0.1230
     18 C14         2.5464   -2.3143   -3.8050 C.ar      1 <0>        -0.0102
     19 C15         3.0390   -3.1372   -2.8053 C.ar      1 <0>        -0.1210
     20 C16         2.3195   -3.3225   -1.6440 C.ar      1 <0>        -0.0472
     21 Cl1         3.4588   -2.0857   -5.2641 Cl        1 <0>        -0.0651
     22 H2         -4.4957   -0.6274    0.2823 H         1 <0>         0.1341
     23 H3         -4.3020   -3.0320   -0.1907 H         1 <0>         0.1355
     24 H4         -2.0934   -4.0775   -0.4308 H         1 <0>         0.1355
     25 H5         -2.4827    0.7570    0.5319 H         1 <0>         0.1252
     26 H6          1.8071    2.6834    0.7044 H         1 <0>         0.1827
     27 H7          3.2389    0.4924    0.5095 H         1 <0>         0.1737
     28 H8         -0.3539   -1.3572   -2.3694 H         1 <0>         0.1308
     29 H9          0.9503   -1.0325   -4.4282 H         1 <0>         0.1357
     30 H10         3.9889   -3.6343   -2.9357 H         1 <0>         0.1391
     31 H11         2.7047   -3.9640   -0.8652 H         1 <0>         0.1421
@<TRIPOS>BOND
     1    1    6 ar
     2    1    2 ar
     3    1   22 1
     4    2    3 ar
     5    2   23 1
     6    3    4 ar
     7    3   24 1
     8    4    5 ar
     9    4   13 1
    10    5    6 ar
    11    5    7 1
    12    6   25 1
    13    7   12 2
    14    7    8 1
    15    8    9 1
    16    8   10 1
    17   10   11 2
    18   10   26 1
    19   11   12 1
    20   11   27 1
    21   13   14 2
    22   13   15 1
    23   15   20 ar
    24   15   16 ar
    25   16   17 ar
    26   16   28 1
    27   17   18 ar
    28   17   29 1
    29   18   19 ar
    30   18   21 1
    31   19   20 ar
    32   19   30 1
    33   20   31 1
@<TRIPOS>MOLECULE
ZINC13603629
   25    25     0     0     0
SMALL
USER_CHARGES
2-amino-5-(2-aminoethyl)benzene-1,4-diol
@<TRIPOS>ATOM
      1 C1         -0.0690   -2.7233    1.9383 C.ar      1 <0>        -0.0683
      2 C2          0.8464   -2.0163    1.1798 C.ar      1 <0>        -0.1856
      3 C3          1.7792   -2.6915    0.4073 C.ar      1 <0>         0.1615
      4 C4          1.8038   -4.0781    0.4024 C.ar      1 <0>        -0.2141
      5 C5          0.8871   -4.7890    1.1620 C.ar      1 <0>         0.2295
      6 C6         -0.0527   -4.1075    1.9327 C.ar      1 <0>         0.0213
      7 O1         -0.9535   -4.8021    2.6797 O.3       1 <0>        -0.4890
      8 N1          0.9059   -6.1883    1.1550 N.pl3     1 <0>        -0.8594
      9 O2          2.6742   -1.9935   -0.3416 O.3       1 <0>        -0.5013
     10 C7          0.8260   -0.5095    1.1880 C.3       1 <0>        -0.0858
     11 C8          0.0021   -0.0041    0.0020 C.3       1 <0>        -0.0019
     12 H1         -0.7970   -2.1948    2.5358 H         1 <0>         0.1355
     13 H2          2.5332   -4.6038   -0.1959 H         1 <0>         0.1376
     14 H3         -1.7760   -5.0067    2.2142 H         1 <0>         0.3868
     15 H4          0.2644   -6.6846    1.6870 H         1 <0>         0.4091
     16 H5          1.5605   -6.6618    0.6181 H         1 <0>         0.4061
     17 H6          3.4982   -1.7877    0.1208 H         1 <0>         0.3984
     18 H7          1.8454   -0.1318    1.1095 H         1 <0>         0.0920
     19 H8          0.3787   -0.1573    2.1176 H         1 <0>         0.0914
     20 H9         -1.0174   -0.3817    0.0806 H         1 <0>         0.1302
     21 H10         0.4494   -0.3563   -0.9275 H         1 <0>         0.1381
     22 H11         0.9191    1.8392    0.0032 H         1 <0>         0.4369
     23 H12        -0.5563    1.8234   -0.7642 H         1 <0>         0.4399
     24 N2         -0.0294    1.4689    0.0323 N.4       1 <0>        -0.6470
     25 H13        -0.4837    1.7790    0.8993 H         1 <0>         0.4381
@<TRIPOS>BOND
     1    1    6 ar
     2    1    2 ar
     3    1   12 1
     4    2    3 ar
     5    2   10 1
     6    3    4 ar
     7    3    9 1
     8    4    5 ar
     9    4   13 1
    10    5    6 ar
    11    5    8 1
    12    6    7 1
    13    7   14 1
    14    8   15 1
    15    8   16 1
    16    9   17 1
    17   10   11 1
    18   10   18 1
    19   10   19 1
    20   11   20 1
    21   11   21 1
    22   11   24 1
    23   22   24 1
    24   23   24 1
    25   24   25 1
@<TRIPOS>MOLECULE
ZINC03614431
   37    40     0     0     0
SMALL
USER_CHARGES
(5R)-5-[4-(trifluoromethyl)phenyl]-2,3-dihydroimidazo[1,2-b]isoindol-5-ol
@<TRIPOS>ATOM
      1 C1         -0.8284    7.5133   -3.7704 C.ar      1 <0>        -0.1028
      2 C2          0.3413    6.7817   -3.6659 C.ar      1 <0>        -0.0475
      3 C3          0.6792    6.1744   -2.4688 C.ar      1 <0>        -0.0766
      4 C4         -0.1506    6.2985   -1.3769 C.ar      1 <0>        -0.0846
      5 C5         -1.3304    7.0331   -1.4734 C.ar      1 <0>        -0.1218
      6 C6         -1.6666    7.6433   -2.6817 C.ar      1 <0>        -0.0329
      7 C7         -2.0269    7.0007   -0.1572 C.cat     1 <0>         0.5350
      8 C8         -3.2326    7.0610    1.7787 C.3       1 <0>         0.0679
      9 C9         -1.9645    6.2223    2.0243 C.3       1 <0>         0.0990
     10 N1         -1.2800    6.2575    0.7211 N.pl3     1 <0>        -0.5569
     11 C10        -0.0763    5.7740    0.0340 C.3       1 <0>         0.4602
     12 C11        -0.0559    4.2672    0.0251 C.ar      1 <0>        -0.1114
     13 C12         1.1505    3.5924    0.0100 C.ar      1 <0>        -0.0935
     14 C13         1.1693    2.2102    0.0028 C.ar      1 <0>        -0.0556
     15 C14        -0.0184    1.5028    0.0103 C.ar      1 <0>        -0.1564
     16 C15        -1.2248    2.1776    0.0197 C.ar      1 <0>        -0.0603
     17 C16        -1.2435    3.5598    0.0327 C.ar      1 <0>        -0.0982
     18 C17         0.0021   -0.0041    0.0020 C.3       1 <0>         0.5058
     19 F1          0.0210   -0.4774    1.3184 F         1 <0>        -0.1697
     20 F2         -1.1400   -0.4824   -0.6492 F         1 <0>        -0.1718
     21 F3          1.1442   -0.4513   -0.6708 F         1 <0>        -0.1702
     22 O1          1.0937    6.2761    0.6828 O.3       1 <0>        -0.5326
     23 H1         -1.0863    7.9847   -4.7072 H         1 <0>         0.1558
     24 H2          0.9933    6.6844   -4.5214 H         1 <0>         0.1563
     25 H3          1.5930    5.6039   -2.3909 H         1 <0>         0.1500
     26 H4         -2.5789    8.2153   -2.7650 H         1 <0>         0.1480
     27 H5         -3.2460    7.9332    2.4322 H         1 <0>         0.1329
     28 H6         -4.1275    6.4574    1.9306 H         1 <0>         0.1334
     29 H7         -2.2262    5.1991    2.2939 H         1 <0>         0.1233
     30 H8         -1.3452    6.6784    2.7966 H         1 <0>         0.1260
     31 H9          2.0784    4.1450    0.0041 H         1 <0>         0.1432
     32 H10         2.1118    1.6830   -0.0091 H         1 <0>         0.1525
     33 H11        -2.1527    1.6249    0.0211 H         1 <0>         0.1480
     34 H12        -2.1860    4.0870    0.0449 H         1 <0>         0.1279
     35 H13         1.9225    6.0009    0.2675 H         1 <0>         0.4128
     36 N2         -3.1275    7.4762    0.3722 N.pl3     1 <0>        -0.6098
     37 H14        -3.8161    8.0547   -0.1232 H         1 <0>         0.4747
@<TRIPOS>BOND
     1    1    6 ar
     2    1    2 ar
     3    1   23 1
     4    2    3 ar
     5    2   24 1
     6    3    4 ar
     7    3   25 1
     8    4   11 1
     9    4    5 ar
    10    5    6 ar
    11    5    7 1
    12    6   26 1
    13    7   10 1
    14    7   36 2
    15    8    9 1
    16    8   27 1
    17    8   28 1
    18    8   36 1
    19    9   10 1
    20    9   29 1
    21    9   30 1
    22   10   11 1
    23   11   12 1
    24   11   22 1
    25   12   17 ar
    26   12   13 ar
    27   13   14 ar
    28   13   31 1
    29   14   15 ar
    30   14   32 1
    31   15   16 ar
    32   15   18 1
    33   16   17 ar
    34   16   33 1
    35   17   34 1
    36   18   19 1
    37   18   20 1
    38   18   21 1
    39   22   35 1
    40   36   37 1
@<TRIPOS>MOLECULE
ZINC03614435
   37    40     0     0     0
SMALL
USER_CHARGES
(5S)-5-[4-(trifluoromethyl)phenyl]-2,3-dihydroimidazo[1,2-b]isoindol-5-ol
@<TRIPOS>ATOM
      1 C1          1.9706    5.7108    0.0139 C.ar      1 <0>        -0.1027
      2 C2          0.6510    6.1267    0.0287 C.ar      1 <0>        -0.0476
      3 C3         -0.3733    5.1957    0.0335 C.ar      1 <0>        -0.0769
      4 C4         -0.0784    3.8497    0.0235 C.ar      1 <0>        -0.0844
      5 C5          1.2465    3.4230    0.0086 C.ar      1 <0>        -0.1212
      6 C6          2.2753    4.3648    0.0045 C.ar      1 <0>        -0.0332
      7 C7          1.2724    1.9337    0.0003 C.cat     1 <0>         0.5353
      8 C8          1.5059   -0.3357   -0.0141 C.3       1 <0>         0.0678
      9 C9          0.0021   -0.0041    0.0020 C.3       1 <0>         0.0983
     10 N1         -0.0179    1.4682    0.0101 N.pl3     1 <0>        -0.5574
     11 C10        -0.9381    2.6119    0.0199 C.3       1 <0>         0.4602
     12 C11        -1.8056    2.5882   -1.2121 C.ar      1 <0>        -0.1106
     13 C12        -1.3622    1.9541   -2.3576 C.ar      1 <0>        -0.0993
     14 C13        -2.1598    1.9286   -3.4864 C.ar      1 <0>        -0.0598
     15 C14        -3.3968    2.5455   -3.4726 C.ar      1 <0>        -0.1567
     16 C15        -3.8382    3.1837   -2.3286 C.ar      1 <0>        -0.0550
     17 C16        -3.0424    3.2055   -1.1985 C.ar      1 <0>        -0.0945
     18 C17        -4.2644    2.5217   -4.7046 C.3       1 <0>         0.5058
     19 F1         -3.9778    3.6376   -5.4983 F         1 <0>        -0.1696
     20 F2         -4.0095    1.3542   -5.4320 F         1 <0>        -0.1718
     21 F3         -5.6112    2.5514   -4.3272 F         1 <0>        -0.1701
     22 O1         -1.7517    2.5767    1.1941 O.3       1 <0>        -0.5322
     23 H1          2.7652    6.4423    0.0102 H         1 <0>         0.1557
     24 H2          0.4194    7.1815    0.0369 H         1 <0>         0.1563
     25 H3         -1.4022    5.5238    0.0455 H         1 <0>         0.1499
     26 H4          3.3059    4.0421   -0.0068 H         1 <0>         0.1480
     27 H5          1.7819   -0.9008    0.8762 H         1 <0>         0.1331
     28 H6          1.7644   -0.8932   -0.9144 H         1 <0>         0.1335
     29 H7         -0.4696   -0.4002    0.9013 H         1 <0>         0.1262
     30 H8         -0.4868   -0.3906   -0.8923 H         1 <0>         0.1233
     31 H9         -0.3940    1.4757   -2.3697 H         1 <0>         0.1281
     32 H10        -1.8151    1.4297   -4.3800 H         1 <0>         0.1481
     33 H11        -4.8047    3.6656   -2.3179 H         1 <0>         0.1526
     34 H12        -3.3872    3.7044   -0.3049 H         1 <0>         0.1428
     35 H13        -2.3815    3.3077    1.2583 H         1 <0>         0.4127
     36 N2          2.1681    0.9771   -0.0134 N.pl3     1 <0>        -0.6096
     37 H14         3.1844    1.1231   -0.0223 H         1 <0>         0.4748
@<TRIPOS>BOND
     1    1    6 ar
     2    1    2 ar
     3    1   23 1
     4    2    3 ar
     5    2   24 1
     6    3    4 ar
     7    3   25 1
     8    4   11 1
     9    4    5 ar
    10    5    6 ar
    11    5    7 1
    12    6   26 1
    13    7   10 1
    14    7   36 2
    15    8    9 1
    16    8   27 1
    17    8   28 1
    18    8   36 1
    19    9   10 1
    20    9   29 1
    21    9   30 1
    22   10   11 1
    23   11   12 1
    24   11   22 1
    25   12   17 ar
    26   12   13 ar
    27   13   14 ar
    28   13   31 1
    29   14   15 ar
    30   14   32 1
    31   15   16 ar
    32   15   18 1
    33   16   17 ar
    34   16   33 1
    35   17   34 1
    36   18   19 1
    37   18   20 1
    38   18   21 1
    39   22   35 1
    40   36   37 1
@<TRIPOS>MOLECULE
ZINC03610031
   34    37     0     0     0
SMALL
USER_CHARGES
(5R)-5-(3-chlorophenyl)-2,3-dihydroimidazo[1,2-b]isoindol-5-ol
@<TRIPOS>ATOM
      1 C1          1.1714    1.7850    0.0005 C.ar      1 <0>        -0.1036
      2 C2          1.1553    3.1685    0.0076 C.ar      1 <0>        -0.0478
      3 C3         -0.0486    3.8515    0.0223 C.ar      1 <0>        -0.0773
      4 C4         -1.2356    3.1516    0.0298 C.ar      1 <0>        -0.0830
      5 C5         -1.2281    1.7597    0.0174 C.ar      1 <0>        -0.1216
      6 C6         -0.0126    1.0758    0.0080 C.ar      1 <0>        -0.0339
      7 C7         -2.6352    1.2709    0.0213 C.cat     1 <0>         0.5346
      8 C8         -4.7188    0.3416    0.0271 C.3       1 <0>         0.0683
      9 C9         -4.8723    1.8740    0.0352 C.3       1 <0>         0.0990
     10 N1         -3.4796    2.3519    0.0307 N.pl3     1 <0>        -0.5549
     11 C10        -2.6796    3.5827    0.0450 C.3       1 <0>         0.4629
     12 C11        -2.9662    4.3867    1.2870 C.ar      1 <0>        -0.1291
     13 C12        -3.3679    3.7488    2.4460 C.ar      1 <0>        -0.0952
     14 C13        -3.6263    4.4851    3.5868 C.ar      1 <0>        -0.0951
     15 C14        -3.4935    5.8609    3.5666 C.ar      1 <0>        -0.0855
     16 C15        -3.0968    6.5002    2.4058 C.ar      1 <0>        -0.0263
     17 C16        -2.8331    5.7620    1.2655 C.ar      1 <0>        -0.0863
     18 Cl1        -2.9303    8.2280    2.3795 Cl        1 <0>        -0.0404
     19 O1         -2.9725    4.3570   -1.1197 O.3       1 <0>        -0.5342
     20 H1          2.1140    1.2580   -0.0106 H         1 <0>         0.1553
     21 H2          2.0853    3.7174    0.0020 H         1 <0>         0.1558
     22 H3         -0.0576    4.9315    0.0282 H         1 <0>         0.1493
     23 H4          0.0021   -0.0041    0.0020 H         1 <0>         0.1476
     24 H5         -5.1634   -0.0915    0.9232 H         1 <0>         0.1325
     25 H6         -5.1743   -0.0831   -0.8675 H         1 <0>         0.1326
     26 H7         -5.3894    2.2041    0.9362 H         1 <0>         0.1228
     27 H8         -5.3983    2.2127   -0.8574 H         1 <0>         0.1257
     28 H9         -3.4761    2.6743    2.4610 H         1 <0>         0.1214
     29 H10        -3.9364    3.9859    4.4929 H         1 <0>         0.1443
     30 H11        -3.6998    6.4366    4.4568 H         1 <0>         0.1471
     31 H12        -2.5230    6.2606    0.3591 H         1 <0>         0.1395
     32 H13        -2.4570    5.1721   -1.1901 H         1 <0>         0.4121
     33 N2         -3.2651    0.1216    0.0186 N.pl3     1 <0>        -0.6109
     34 H14        -2.8096   -0.7986    0.0117 H         1 <0>         0.4743
@<TRIPOS>BOND
     1    1    6 ar
     2    1    2 ar
     3    1   20 1
     4    2    3 ar
     5    2   21 1
     6    3    4 ar
     7    3   22 1
     8    4   11 1
     9    4    5 ar
    10    5    6 ar
    11    5    7 1
    12    6   23 1
    13    7   10 1
    14    7   33 2
    15    8    9 1
    16    8   24 1
    17    8   25 1
    18    8   33 1
    19    9   10 1
    20    9   26 1
    21    9   27 1
    22   10   11 1
    23   11   12 1
    24   11   19 1
    25   12   17 ar
    26   12   13 ar
    27   13   14 ar
    28   13   28 1
    29   14   15 ar
    30   14   29 1
    31   15   16 ar
    32   15   30 1
    33   16   17 ar
    34   16   18 1
    35   17   31 1
    36   19   32 1
    37   33   34 1
@<TRIPOS>MOLECULE
ZINC03610032
   34    37     0     0     0
SMALL
USER_CHARGES
(5S)-5-(3-chlorophenyl)-2,3-dihydroimidazo[1,2-b]isoindol-5-ol
@<TRIPOS>ATOM
      1 C1         -0.3635    7.0514    3.9128 C.ar      1 <0>        -0.1036
      2 C2          0.7850    6.3214    3.6627 C.ar      1 <0>        -0.0476
      3 C3          0.9773    5.7256    2.4282 C.ar      1 <0>        -0.0776
      4 C4          0.0216    5.8591    1.4445 C.ar      1 <0>        -0.0825
      5 C5         -1.1369    6.5914    1.6882 C.ar      1 <0>        -0.1217
      6 C6         -1.3258    7.1908    2.9334 C.ar      1 <0>        -0.0337
      7 C7         -1.9858    6.5704    0.4644 C.cat     1 <0>         0.5352
      8 C8         -3.4138    6.6477   -1.3131 C.3       1 <0>         0.0683
      9 C9         -2.1842    5.8126   -1.7163 C.3       1 <0>         0.0982
     10 N1         -1.3491    5.8362   -0.5038 N.pl3     1 <0>        -0.5555
     11 C10        -0.0718    5.3479    0.0300 C.3       1 <0>         0.4632
     12 C11        -0.0503    3.8410    0.0222 C.ar      1 <0>        -0.1286
     13 C12        -1.2378    3.1328    0.0302 C.ar      1 <0>        -0.0964
     14 C13        -1.2189    1.7508    0.0173 C.ar      1 <0>        -0.0948
     15 C14        -0.0126    1.0758    0.0080 C.ar      1 <0>        -0.0860
     16 C15         1.1758    1.7838    0.0004 C.ar      1 <0>        -0.0256
     17 C16         1.1562    3.1674    0.0075 C.ar      1 <0>        -0.0878
     18 Cl1         2.6911    0.9369   -0.0186 Cl        1 <0>        -0.0404
     19 O1          1.0130    5.8574   -0.7482 O.3       1 <0>        -0.5339
     20 H1         -0.5073    7.5141    4.8780 H         1 <0>         0.1554
     21 H2          1.5344    6.2164    4.4334 H         1 <0>         0.1559
     22 H3          1.8749    5.1565    2.2363 H         1 <0>         0.1491
     23 H4         -2.2213    7.7615    3.1303 H         1 <0>         0.1476
     24 H5         -3.5051    7.5260   -1.9521 H         1 <0>         0.1326
     25 H6         -4.3195    6.0433   -1.3649 H         1 <0>         0.1330
     26 H7         -1.6614    6.2766   -2.5526 H         1 <0>         0.1256
     27 H8         -2.4738    4.7915   -1.9641 H         1 <0>         0.1232
     28 H9         -2.1804    3.6597    0.0424 H         1 <0>         0.1219
     29 H10        -2.1468    1.1981    0.0187 H         1 <0>         0.1443
     30 H11         0.0021   -0.0041    0.0020 H         1 <0>         0.1471
     31 H12         2.0837    3.7207    0.0013 H         1 <0>         0.1390
     32 H13         1.8852    5.5794   -0.4366 H         1 <0>         0.4124
     33 N2         -3.1415    7.0498    0.0746 N.pl3     1 <0>        -0.6107
     34 H14        -3.7661    7.6228    0.6541 H         1 <0>         0.4744
@<TRIPOS>BOND
     1    1    6 ar
     2    1    2 ar
     3    1   20 1
     4    2    3 ar
     5    2   21 1
     6    3    4 ar
     7    3   22 1
     8    4   11 1
     9    4    5 ar
    10    5    6 ar
    11    5    7 1
    12    6   23 1
    13    7   10 1
    14    7   33 2
    15    8    9 1
    16    8   24 1
    17    8   25 1
    18    8   33 1
    19    9   10 1
    20    9   26 1
    21    9   27 1
    22   10   11 1
    23   11   12 1
    24   11   19 1
    25   12   17 ar
    26   12   13 ar
    27   13   14 ar
    28   13   28 1
    29   14   15 ar
    30   14   29 1
    31   15   16 ar
    32   15   30 1
    33   16   17 ar
    34   16   18 1
    35   17   31 1
    36   19   32 1
    37   33   34 1
@<TRIPOS>MOLECULE
ZINC03610392
   34    37     0     0     0
SMALL
USER_CHARGES
(5R)-5-(4-fluorophenyl)-2,3-dihydroimidazo[1,2-b]isoindol-5-ol
@<TRIPOS>ATOM
      1 C1         -1.2154    1.7525    0.0173 C.ar      1 <0>        -0.1041
      2 C2         -1.2367    3.1359    0.0316 C.ar      1 <0>        -0.0482
      3 C3         -0.0518    3.8515    0.0237 C.ar      1 <0>        -0.0774
      4 C4          1.1538    3.1842    0.0082 C.ar      1 <0>        -0.0814
      5 C5          1.1839    1.7925    0.0004 C.ar      1 <0>        -0.1224
      6 C6         -0.0126    1.0758    0.0080 C.ar      1 <0>        -0.0340
      7 C7          2.6036    1.3421   -0.0156 C.cat     1 <0>         0.5339
      8 C8          4.7115    0.4696   -0.0405 C.3       1 <0>         0.0682
      9 C9          4.8236    2.0056   -0.0333 C.3       1 <0>         0.0989
     10 N1          3.4185    2.4456   -0.0175 N.pl3     1 <0>        -0.5555
     11 C10         2.5855    3.6542   -0.0030 C.3       1 <0>         0.4639
     12 C11         2.8505    4.4797   -1.2356 C.ar      1 <0>        -0.1574
     13 C12         3.2378    3.8622   -2.4103 C.ar      1 <0>        -0.0662
     14 C13         3.4764    4.6177   -3.5426 C.ar      1 <0>        -0.1469
     15 C14         3.3375    5.9946   -3.4975 C.ar      1 <0>         0.1308
     16 C15         2.9547    6.6124   -2.3190 C.ar      1 <0>        -0.1418
     17 C16         2.7116    5.8544   -1.1893 C.ar      1 <0>        -0.0618
     18 F1          3.5750    6.7346   -4.6025 F         1 <0>        -0.1238
     19 O1          2.8582    4.4237    1.1699 O.3       1 <0>        -0.5347
     20 H1         -2.1434    1.2001    0.0183 H         1 <0>         0.1550
     21 H2         -2.1812    3.6594    0.0434 H         1 <0>         0.1555
     22 H3         -0.0721    4.9313    0.0294 H         1 <0>         0.1496
     23 H4          0.0021   -0.0041    0.0020 H         1 <0>         0.1473
     24 H5          5.1805    0.0484    0.8487 H         1 <0>         0.1322
     25 H6          5.1638    0.0560   -0.9419 H         1 <0>         0.1326
     26 H7          5.3444    2.3492    0.8605 H         1 <0>         0.1253
     27 H8          5.3299    2.3587   -0.9316 H         1 <0>         0.1230
     28 H9          3.3500    2.7885   -2.4442 H         1 <0>         0.1250
     29 H10         3.7749    4.1347   -4.4613 H         1 <0>         0.1473
     30 H11         2.8464    7.6863   -2.2825 H         1 <0>         0.1518
     31 H12         2.4126    6.3360   -0.2701 H         1 <0>         0.1404
     32 H13         2.3380    5.2360    1.2371 H         1 <0>         0.4119
     33 N2          3.2644    0.2103   -0.0281 N.pl3     1 <0>        -0.6112
     34 H14         2.8340   -0.7219   -0.0291 H         1 <0>         0.4742
@<TRIPOS>BOND
     1    1    6 ar
     2    1    2 ar
     3    1   20 1
     4    2    3 ar
     5    2   21 1
     6    3    4 ar
     7    3   22 1
     8    4   11 1
     9    4    5 ar
    10    5    6 ar
    11    5    7 1
    12    6   23 1
    13    7   10 1
    14    7   33 2
    15    8    9 1
    16    8   24 1
    17    8   25 1
    18    8   33 1
    19    9   10 1
    20    9   26 1
    21    9   27 1
    22   10   11 1
    23   11   12 1
    24   11   19 1
    25   12   17 ar
    26   12   13 ar
    27   13   14 ar
    28   13   28 1
    29   14   15 ar
    30   14   29 1
    31   15   16 ar
    32   15   18 1
    33   16   17 ar
    34   16   30 1
    35   17   31 1
    36   19   32 1
    37   33   34 1
@<TRIPOS>MOLECULE
ZINC03610394
   34    37     0     0     0
SMALL
USER_CHARGES
(5S)-5-(4-fluorophenyl)-2,3-dihydroimidazo[1,2-b]isoindol-5-ol
@<TRIPOS>ATOM
      1 C1         -4.2257    4.3338    3.9246 C.ar      1 <0>        -0.1041
      2 C2         -3.0162    4.9714    3.7122 C.ar      1 <0>        -0.0481
      3 C3         -2.3876    4.8822    2.4822 C.ar      1 <0>        -0.0778
      4 C4         -2.9680    4.1558    1.4651 C.ar      1 <0>        -0.0818
      5 C5         -4.1846    3.5113    1.6706 C.ar      1 <0>        -0.1222
      6 C6         -4.8141    3.6039    2.9118 C.ar      1 <0>        -0.0338
      7 C7         -4.5745    2.8083    0.4167 C.cat     1 <0>         0.5345
      8 C8         -5.3315    1.6717   -1.4109 C.3       1 <0>         0.0679
      9 C9         -3.9884    2.3320   -1.7739 C.3       1 <0>         0.0984
     10 N1         -3.6076    3.0251   -0.5318 N.pl3     1 <0>        -0.5560
     11 C10        -2.5532    3.8678    0.0452 C.3       1 <0>         0.4641
     12 C11        -1.2375    3.1330    0.0297 C.ar      1 <0>        -0.1560
     13 C12        -1.2185    1.7507    0.0173 C.ar      1 <0>        -0.0676
     14 C13        -0.0126    1.0758    0.0080 C.ar      1 <0>        -0.1465
     15 C14         1.1768    1.7846    0.0004 C.ar      1 <0>         0.1303
     16 C15         1.1565    3.1691    0.0076 C.ar      1 <0>        -0.1412
     17 C16        -0.0506    3.8418    0.0222 C.ar      1 <0>        -0.0626
     18 F1          2.3563    1.1259   -0.0135 F         1 <0>        -0.1239
     19 O1         -2.4420    5.0873   -0.6913 O.3       1 <0>        -0.5344
     20 H1         -4.7110    4.4073    4.8866 H         1 <0>         0.1551
     21 H2         -2.5612    5.5412    4.5089 H         1 <0>         0.1556
     22 H3         -1.4438    5.3815    2.3197 H         1 <0>         0.1495
     23 H4         -5.7583    3.1071    3.0793 H         1 <0>         0.1473
     24 H5         -6.1293    2.0536   -2.0480 H         1 <0>         0.1324
     25 H6         -5.2601    0.5875   -1.4987 H         1 <0>         0.1328
     26 H7         -4.1178    3.0449   -2.5882 H         1 <0>         0.1257
     27 H8         -3.2470    1.5772   -2.0360 H         1 <0>         0.1229
     28 H9         -2.1464    1.1981    0.0191 H         1 <0>         0.1252
     29 H10         0.0021   -0.0041    0.0020 H         1 <0>         0.1473
     30 H11         2.0836    3.7230    0.0013 H         1 <0>         0.1519
     31 H12        -0.0667    4.9217    0.0274 H         1 <0>         0.1400
     32 H13        -1.7691    5.6926   -0.3507 H         1 <0>         0.4120
     33 N2         -5.5622    2.0611   -0.0120 N.pl3     1 <0>        -0.6110
     34 H14        -6.3783    1.7873    0.5476 H         1 <0>         0.4743
@<TRIPOS>BOND
     1    1    6 ar
     2    1    2 ar
     3    1   20 1
     4    2    3 ar
     5    2   21 1
     6    3    4 ar
     7    3   22 1
     8    4   11 1
     9    4    5 ar
    10    5    6 ar
    11    5    7 1
    12    6   23 1
    13    7   10 1
    14    7   33 2
    15    8    9 1
    16    8   24 1
    17    8   25 1
    18    8   33 1
    19    9   10 1
    20    9   26 1
    21    9   27 1
    22   10   11 1
    23   11   12 1
    24   11   19 1
    25   12   17 ar
    26   12   13 ar
    27   13   14 ar
    28   13   28 1
    29   14   15 ar
    30   14   29 1
    31   15   16 ar
    32   15   18 1
    33   16   17 ar
    34   16   30 1
    35   17   31 1
    36   19   32 1
    37   33   34 1
@<TRIPOS>MOLECULE
ZINC03632416
   34    37     0     0     0
SMALL
USER_CHARGES
(5R)-5-phenyl-2,3-dihydroimidazo[1,2-b]isoindol-5-ol
@<TRIPOS>ATOM
      1 C1          1.7613   -3.8125   -3.5365 C.ar      1 <0>        -0.0929
      2 C2          2.2172   -4.4070   -2.3748 C.ar      1 <0>        -0.1055
      3 C3          2.4153   -3.6436   -1.2395 C.ar      1 <0>        -0.0935
      4 C4          2.1579   -2.2857   -1.2661 C.ar      1 <0>        -0.1434
      5 C5          1.6970   -1.6921   -2.4263 C.ar      1 <0>        -0.0977
      6 C6          1.5030   -2.4547   -3.5628 C.ar      1 <0>        -0.1106
      7 C7          2.3739   -1.4535   -0.0284 C.3       1 <0>         0.4605
      8 C8          3.7598   -0.8617   -0.0385 C.ar      1 <0>        -0.0794
      9 C9          5.0184   -1.4228   -0.0536 C.ar      1 <0>        -0.0777
     10 C10         6.1372   -0.6079   -0.0608 C.ar      1 <0>        -0.0488
     11 C11         5.9968    0.7686   -0.0525 C.ar      1 <0>        -0.1049
     12 C12         4.7402    1.3391   -0.0367 C.ar      1 <0>        -0.0347
     13 C13         3.6098    0.5222   -0.0296 C.ar      1 <0>        -0.1227
     14 C14         2.1566    0.8485   -0.0140 C.cat     1 <0>         0.5332
     15 C15        -0.0188    1.5358    0.0105 C.3       1 <0>         0.0688
     16 C16         0.0021   -0.0041    0.0020 C.3       1 <0>         0.0991
     17 N1          1.4399   -0.3211   -0.0134 N.pl3     1 <0>        -0.5534
     18 O1          2.1906   -2.2559    1.1397 O.3       1 <0>        -0.5361
     19 H1          1.6072   -4.4088   -4.4237 H         1 <0>         0.1357
     20 H2          2.4190   -5.4677   -2.3543 H         1 <0>         0.1380
     21 H3          2.7715   -4.1080   -0.3319 H         1 <0>         0.1291
     22 H4          1.4917   -0.6320   -2.4458 H         1 <0>         0.1139
     23 H5          1.1471   -1.9902   -4.4706 H         1 <0>         0.1333
     24 H6          5.1316   -2.4968   -0.0604 H         1 <0>         0.1490
     25 H7          7.1234   -1.0480   -0.0728 H         1 <0>         0.1551
     26 H8          6.8737    1.3989   -0.0580 H         1 <0>         0.1547
     27 H9          4.6327    2.4137   -0.0296 H         1 <0>         0.1469
     28 H10        -0.5220    1.9158   -0.8786 H         1 <0>         0.1319
     29 H11        -0.5049    1.9061    0.9131 H         1 <0>         0.1318
     30 H12        -0.4696   -0.4002    0.9013 H         1 <0>         0.1247
     31 H13        -0.4868   -0.3906   -0.8923 H         1 <0>         0.1226
     32 H14         2.7800   -3.0210    1.1878 H         1 <0>         0.4117
     33 N2          1.4006    1.9190   -0.0010 N.pl3     1 <0>        -0.6125
     34 H15         1.7490    2.8849    0.0009 H         1 <0>         0.4737
@<TRIPOS>BOND
     1    1    6 ar
     2    1    2 ar
     3    1   19 1
     4    2    3 ar
     5    2   20 1
     6    3    4 ar
     7    3   21 1
     8    4    5 ar
     9    4    7 1
    10    5    6 ar
    11    5   22 1
    12    6   23 1
    13    7   17 1
    14    7    8 1
    15    7   18 1
    16    8   13 ar
    17    8    9 ar
    18    9   10 ar
    19    9   24 1
    20   10   11 ar
    21   10   25 1
    22   11   12 ar
    23   11   26 1
    24   12   13 ar
    25   12   27 1
    26   13   14 1
    27   14   17 1
    28   14   33 2
    29   15   16 1
    30   15   28 1
    31   15   29 1
    32   15   33 1
    33   16   17 1
    34   16   30 1
    35   16   31 1
    36   18   32 1
    37   33   34 1
@<TRIPOS>MOLECULE
ZINC03632418
   34    37     0     0     0
SMALL
USER_CHARGES
(5S)-5-phenyl-2,3-dihydroimidazo[1,2-b]isoindol-5-ol
@<TRIPOS>ATOM
      1 C1         -3.5567    5.9003   -3.4323 C.ar      1 <0>        -0.0935
      2 C2         -3.0410    6.5130   -2.3055 C.ar      1 <0>        -0.1050
      3 C3         -2.7575    5.7630   -1.1795 C.ar      1 <0>        -0.0942
      4 C4         -2.9892    4.4002   -1.1803 C.ar      1 <0>        -0.1415
      5 C5         -3.4995    3.7866   -2.3090 C.ar      1 <0>        -0.0995
      6 C6         -3.7880    4.5374   -3.4333 C.ar      1 <0>        -0.1102
      7 C7         -2.6797    3.5825    0.0471 C.3       1 <0>         0.4609
      8 C8         -1.2357    3.1516    0.0309 C.ar      1 <0>        -0.0803
      9 C9         -0.0487    3.8515    0.0228 C.ar      1 <0>        -0.0783
     10 C10         1.1552    3.1685    0.0076 C.ar      1 <0>        -0.0486
     11 C11         1.1714    1.7850    0.0005 C.ar      1 <0>        -0.1049
     12 C12        -0.0126    1.0758    0.0080 C.ar      1 <0>        -0.0345
     13 C13        -1.2281    1.7597    0.0174 C.ar      1 <0>        -0.1224
     14 C14        -2.6350    1.2707    0.0350 C.cat     1 <0>         0.5337
     15 C15        -4.7184    0.3412    0.0499 C.3       1 <0>         0.0685
     16 C16        -4.8721    1.8735    0.0602 C.3       1 <0>         0.0987
     17 N1         -3.4795    2.3516    0.0487 N.pl3     1 <0>        -0.5538
     18 O1         -2.9507    4.3449    1.2249 O.3       1 <0>        -0.5360
     19 H1         -3.7786    6.4863   -4.3119 H         1 <0>         0.1357
     20 H2         -2.8600    7.5777   -2.3049 H         1 <0>         0.1380
     21 H3         -2.3546    6.2417   -0.2992 H         1 <0>         0.1285
     22 H4         -3.6765    2.7212   -2.3112 H         1 <0>         0.1144
     23 H5         -4.1905    4.0586   -4.3137 H         1 <0>         0.1333
     24 H6         -0.0577    4.9315    0.0280 H         1 <0>         0.1490
     25 H7          2.0852    3.7175    0.0017 H         1 <0>         0.1552
     26 H8          2.1140    1.2581   -0.0114 H         1 <0>         0.1548
     27 H9          0.0021   -0.0041    0.0020 H         1 <0>         0.1470
     28 H10        -5.1759   -0.0830   -0.8440 H         1 <0>         0.1320
     29 H11        -5.1592   -0.0945    0.9466 H         1 <0>         0.1320
     30 H12        -5.3847    2.2034    0.9638 H         1 <0>         0.1251
     31 H13        -5.4026    2.2122   -0.8297 H         1 <0>         0.1227
     32 H14        -2.4340    5.1594    1.2939 H         1 <0>         0.4117
     33 N2         -3.2648    0.1214    0.0349 N.pl3     1 <0>        -0.6124
     34 H15        -2.8093   -0.7988    0.0258 H         1 <0>         0.4738
@<TRIPOS>BOND
     1    1    6 ar
     2    1    2 ar
     3    1   19 1
     4    2    3 ar
     5    2   20 1
     6    3    4 ar
     7    3   21 1
     8    4    5 ar
     9    4    7 1
    10    5    6 ar
    11    5   22 1
    12    6   23 1
    13    7   17 1
    14    7    8 1
    15    7   18 1
    16    8   13 ar
    17    8    9 ar
    18    9   10 ar
    19    9   24 1
    20   10   11 ar
    21   10   25 1
    22   11   12 ar
    23   11   26 1
    24   12   13 ar
    25   12   27 1
    26   13   14 1
    27   14   17 1
    28   14   33 2
    29   15   16 1
    30   15   28 1
    31   15   29 1
    32   15   33 1
    33   16   17 1
    34   16   30 1
    35   16   31 1
    36   18   32 1
    37   33   34 1
@<TRIPOS>MOLECULE
ZINC00007981
   33    35     0     0     0
SMALL
USER_CHARGES
2-[2-(4-chlorophenoxy)phenyl]-4,5-dihydro-1H-imidazole
@<TRIPOS>ATOM
      1 C1          4.7750    5.4256    0.3037 C.ar      1 <0>        -0.1399
      2 C2          4.7425    4.0460    0.1877 C.ar      1 <0>        -0.0163
      3 C3          3.5356    3.3823    0.0893 C.ar      1 <0>        -0.1892
      4 C4          2.3465    4.0960    0.1057 C.ar      1 <0>         0.1790
      5 C5          2.3760    5.4914    0.2165 C.ar      1 <0>        -0.1596
      6 C6          3.6018    6.1497    0.3215 C.ar      1 <0>        -0.0270
      7 C7          1.1146    6.2629    0.2284 C.cat     1 <0>         0.5685
      8 C8         -1.1028    6.7310    0.1795 C.3       1 <0>         0.0522
      9 C9         -0.3303    8.0583    0.3137 C.3       1 <0>         0.0714
     10 N1          1.0782    7.6297    0.3345 N.pl3     1 <0>        -0.6729
     11 O1          1.1596    3.4451    0.0090 O.3       1 <0>        -0.2736
     12 C10         1.1738    2.0863    0.0274 C.ar      1 <0>         0.0616
     13 C11         1.5384    1.4110    1.1833 C.ar      1 <0>        -0.1163
     14 C12         1.5517    0.0298    1.2001 C.ar      1 <0>        -0.0914
     15 C13         1.2018   -0.6803    0.0651 C.ar      1 <0>        -0.0221
     16 C14         0.8384   -0.0086   -1.0888 C.ar      1 <0>        -0.0910
     17 C15         0.8242    1.3725   -1.1098 C.ar      1 <0>        -0.0962
     18 Cl1         1.2194   -2.4160    0.0888 Cl        1 <0>        -0.0392
     19 H1          5.7234    5.9366    0.3802 H         1 <0>         0.1520
     20 H2          5.6659    3.4862    0.1746 H         1 <0>         0.1510
     21 H3          3.5175    2.3062   -0.0009 H         1 <0>         0.1517
     22 H4          3.6317    7.2255    0.4118 H         1 <0>         0.1455
     23 H5         -1.7518    6.5779    1.0417 H         1 <0>         0.1265
     24 H6         -1.6847    6.7193   -0.7422 H         1 <0>         0.1264
     25 H7         -0.5923    8.5632    1.2435 H         1 <0>         0.1208
     26 H8         -0.5232    8.7037   -0.5432 H         1 <0>         0.1208
     27 H9          1.8486    8.2142    0.4102 H         1 <0>         0.4538
     28 H10         1.8072    1.9648    2.0707 H         1 <0>         0.1436
     29 H11         1.8357   -0.4963    2.0996 H         1 <0>         0.1501
     30 H12         0.5660   -0.5646   -1.9737 H         1 <0>         0.1518
     31 H13         0.5405    1.8963   -2.0107 H         1 <0>         0.1468
     32 N2         -0.0499    5.7034    0.1338 N.pl3     1 <0>        -0.6126
     33 H14        -0.2140    4.6941    0.0409 H         1 <0>         0.4737
@<TRIPOS>BOND
     1    1    6 ar
     2    1    2 ar
     3    1   19 1
     4    2    3 ar
     5    2   20 1
     6    3    4 ar
     7    3   21 1
     8    4    5 ar
     9    4   11 1
    10    5    6 ar
    11    5    7 1
    12    6   22 1
    13    7   10 1
    14    7   32 2
    15    8    9 1
    16    8   23 1
    17    8   24 1
    18    8   32 1
    19    9   10 1
    20    9   25 1
    21    9   26 1
    22   10   27 1
    23   11   12 1
    24   12   17 ar
    25   12   13 ar
    26   13   14 ar
    27   13   28 1
    28   14   15 ar
    29   14   29 1
    30   15   16 ar
    31   15   18 1
    32   16   17 ar
    33   16   30 1
    34   17   31 1
    35   32   33 1
@<TRIPOS>MOLECULE
ZINC05719749
   40    42     0     0     0
SMALL
USER_CHARGES

@<TRIPOS>ATOM
      1 C1         -0.0178    1.4648    0.0101 C.3       1 <0>        -0.0430
      2 N1          0.0021   -0.0041    0.0020 N.4       1 <0>        -0.3990
      3 C2          0.7720   -0.5069   -1.1648 C.3       1 <0>         0.0015
      4 C3          1.1903   -1.9387   -0.7670 C.3       1 <0>        -0.0522
      5 H1          0.4766   -2.6639   -1.1577 H         1 <0>         0.1303
      6 C4          1.1732   -1.9474    0.7755 C.3       1 <0>        -0.1602
      7 H2          2.1671   -2.1694    1.1639 H         1 <0>         0.1484
      8 C5          0.7459   -0.5201    1.1799 C.3       1 <0>         0.0079
      9 C6          0.1764   -2.9578    1.2821 C.2       1 <0>         0.4064
     10 O1         -0.7629   -3.2837    0.5877 O.2       1 <0>        -0.4334
     11 C7          0.3428   -3.5484    2.6181 C.ar      1 <0>        -0.2022
     12 C8          1.4224   -3.1702    3.4241 C.ar      1 <0>        -0.0441
     13 C9          1.5725   -3.7274    4.6749 C.ar      1 <0>        -0.1649
     14 C10         0.6567   -4.6618    5.1358 C.ar      1 <0>         0.1524
     15 C11        -0.4158   -5.0410    4.3418 C.ar      1 <0>        -0.1637
     16 C12        -0.5810   -4.4869    3.0916 C.ar      1 <0>        -0.0203
     17 F1          0.8101   -5.2052    6.3631 F         1 <0>        -0.1220
     18 C13         2.5752   -2.2406   -1.2789 C.ar      1 <0>        -0.1177
     19 C14         3.6424   -1.4526   -0.8899 C.ar      1 <0>        -0.0886
     20 C15         4.9129   -1.7288   -1.3583 C.ar      1 <0>        -0.1477
     21 C16         5.1168   -2.7952   -2.2175 C.ar      1 <0>         0.1209
     22 C17         4.0472   -3.5838   -2.6064 C.ar      1 <0>        -0.1455
     23 C18         2.7784   -3.3088   -2.1325 C.ar      1 <0>        -0.0677
     24 F2          6.3583   -3.0659   -2.6763 F         1 <0>        -0.1278
     25 H3          1.0047    1.8421    0.0024 H         1 <0>         0.1240
     26 H4         -0.5450    1.8259   -0.8730 H         1 <0>         0.1271
     27 H5         -0.5280    1.8163    0.9069 H         1 <0>         0.1258
     28 H6          0.1431   -0.5280   -2.0547 H         1 <0>         0.1438
     29 H7          1.6524    0.1129   -1.3350 H         1 <0>         0.1400
     30 H8          1.6221    0.0976    1.3767 H         1 <0>         0.1496
     31 H9          0.0972   -0.5512    2.0554 H         1 <0>         0.1410
     32 H10         2.1366   -2.4433    3.0662 H         1 <0>         0.1402
     33 H11         2.4053   -3.4364    5.2980 H         1 <0>         0.1496
     34 H12        -1.1253   -5.7690    4.7065 H         1 <0>         0.1506
     35 H13        -1.4188   -4.7797    2.4762 H         1 <0>         0.1481
     36 H14         3.4831   -0.6206   -0.2200 H         1 <0>         0.1299
     37 H15         5.7464   -1.1128   -1.0545 H         1 <0>         0.1440
     38 H16         4.2050   -4.4157   -3.2768 H         1 <0>         0.1456
     39 H17         1.9447   -3.9265   -2.4322 H         1 <0>         0.1391
     40 H18        -0.9383   -0.3697   -0.0094 H         1 <0>         0.4336
@<TRIPOS>BOND
     1    1    2 1
     2    1   25 1
     3    1   26 1
     4    1   27 1
     5    2    8 1
     6    2    3 1
     7    2   40 1
     8    3    4 1
     9    3   28 1
    10    3   29 1
    11    4    5 1
    12    4    6 1
    13    4   18 1
    14    6    7 1
    15    6    8 1
    16    6    9 1
    17    8   30 1
    18    8   31 1
    19    9   10 2
    20    9   11 1
    21   11   16 ar
    22   11   12 ar
    23   12   13 ar
    24   12   32 1
    25   13   14 ar
    26   13   33 1
    27   14   15 ar
    28   14   17 1
    29   15   16 ar
    30   15   34 1
    31   16   35 1
    32   18   23 ar
    33   18   19 ar
    34   19   20 ar
    35   19   36 1
    36   20   21 ar
    37   20   37 1
    38   21   22 ar
    39   21   24 1
    40   22   23 ar
    41   22   38 1
    42   23   39 1
@<TRIPOS>MOLECULE
ZINC05719749
   39    41     0     0     0
SMALL
USER_CHARGES

@<TRIPOS>ATOM
      1 C1         -0.0178    1.4648    0.0101 C.3       1 <0>         0.0119
      2 N1          0.0021   -0.0041    0.0020 N.3       1 <0>        -0.5108
      3 C2          0.7880   -0.5195   -1.1485 C.3       1 <0>         0.0413
      4 C3          1.1729   -1.9586   -0.7431 C.3       1 <0>        -0.0439
      5 H1          0.4552   -2.6712   -1.1496 H         1 <0>         0.1072
      6 C4          1.1226   -1.9677    0.7986 C.3       1 <0>        -0.1336
      7 H2          2.1040   -2.2071    1.2080 H         1 <0>         0.1075
      8 C5          0.7115   -0.5335    1.1951 C.3       1 <0>         0.0456
      9 C6          0.0980   -2.9610    1.2830 C.2       1 <0>         0.4100
     10 O1         -0.8318   -3.2703    0.5685 O.2       1 <0>        -0.4320
     11 C7          0.2255   -3.5550    2.6217 C.ar      1 <0>        -0.1807
     12 C8          1.2940   -3.1959    3.4510 C.ar      1 <0>        -0.0444
     13 C9          1.4077   -3.7562    4.7042 C.ar      1 <0>        -0.1658
     14 C10         0.4662   -4.6749    5.1446 C.ar      1 <0>         0.1324
     15 C11        -0.5954   -5.0352    4.3276 C.ar      1 <0>        -0.1652
     16 C12        -0.7243   -4.4776    3.0746 C.ar      1 <0>        -0.0303
     17 F1          0.5839   -5.2214    6.3745 F         1 <0>        -0.1317
     18 C13         2.5630   -2.2841   -1.2255 C.ar      1 <0>        -0.0901
     19 C14         3.6351   -1.5149   -0.8131 C.ar      1 <0>        -0.0873
     20 C15         4.9103   -1.8128   -1.2545 C.ar      1 <0>        -0.1502
     21 C16         5.1141   -2.8822   -2.1100 C.ar      1 <0>         0.0980
     22 C17         4.0396   -3.6519   -2.5224 C.ar      1 <0>        -0.1491
     23 C18         2.7659   -3.3553   -2.0755 C.ar      1 <0>        -0.0806
     24 F2          6.3603   -3.1741   -2.5425 F         1 <0>        -0.1385
     25 H3          1.0047    1.8421    0.0024 H         1 <0>         0.0311
     26 H4         -0.5450    1.8259   -0.8730 H         1 <0>         0.0739
     27 H5         -0.5280    1.8163    0.9069 H         1 <0>         0.0720
     28 H6          0.1779   -0.5293   -2.0517 H         1 <0>         0.0896
     29 H7          1.6823    0.0850   -1.2993 H         1 <0>         0.0529
     30 H8          1.5939    0.0689    1.4111 H         1 <0>         0.0598
     31 H9          0.0438   -0.5537    2.0565 H         1 <0>         0.0880
     32 H10         2.0281   -2.4813    3.1090 H         1 <0>         0.1415
     33 H11         2.2318   -3.4800    5.3452 H         1 <0>         0.1438
     34 H12        -1.3251   -5.7509    4.6764 H         1 <0>         0.1441
     35 H13        -1.5537   -4.7556    2.4412 H         1 <0>         0.1455
     36 H14         3.4759   -0.6806   -0.1460 H         1 <0>         0.1294
     37 H15         5.7477   -1.2115   -0.9324 H         1 <0>         0.1365
     38 H16         4.1973   -4.4861   -3.1900 H         1 <0>         0.1376
     39 H17         1.9282   -3.9583   -2.3935 H         1 <0>         0.1349
@<TRIPOS>BOND
     1    1    2 1
     2    1   25 1
     3    1   26 1
     4    1   27 1
     5    2    8 1
     6    2    3 1
     7    3    4 1
     8    3   28 1
     9    3   29 1
    10    4    5 1
    11    4    6 1
    12    4   18 1
    13    6    7 1
    14    6    8 1
    15    6    9 1
    16    8   30 1
    17    8   31 1
    18    9   10 2
    19    9   11 1
    20   11   16 ar
    21   11   12 ar
    22   12   13 ar
    23   12   32 1
    24   13   14 ar
    25   13   33 1
    26   14   15 ar
    27   14   17 1
    28   15   16 ar
    29   15   34 1
    30   16   35 1
    31   18   23 ar
    32   18   19 ar
    33   19   20 ar
    34   19   36 1
    35   20   21 ar
    36   20   37 1
    37   21   22 ar
    38   21   24 1
    39   22   23 ar
    40   22   38 1
    41   23   39 1
@<TRIPOS>MOLECULE
ZINC05525671
   40    42     0     0     0
SMALL
USER_CHARGES

@<TRIPOS>ATOM
      1 C1         -0.0178    1.4648    0.0101 C.3       1 <0>        -0.0428
      2 N1          0.0021   -0.0041    0.0020 N.4       1 <0>        -0.3989
      3 C2          0.7720   -0.5069   -1.1648 C.3       1 <0>         0.0040
      4 C3          1.1903   -1.9387   -0.7670 C.3       1 <0>        -0.0570
      5 H1          0.4766   -2.6639   -1.1577 H         1 <0>         0.1321
      6 C4          1.1732   -1.9474    0.7755 C.3       1 <0>        -0.1580
      7 H2          2.1671   -2.1694    1.1639 H         1 <0>         0.1487
      8 C5          0.7459   -0.5201    1.1799 C.3       1 <0>         0.0086
      9 C6          0.1764   -2.9578    1.2821 C.2       1 <0>         0.4030
     10 O1         -0.7628   -3.2837    0.5878 O.2       1 <0>        -0.4285
     11 C7          0.3429   -3.5487    2.6188 C.ar      1 <0>        -0.1848
     12 C8          1.4220   -3.1707    3.4248 C.ar      1 <0>        -0.0623
     13 C9          1.5714   -3.7282    4.6763 C.ar      1 <0>        -0.1208
     14 C10         0.6561   -4.6612    5.1366 C.ar      1 <0>         0.0059
     15 C11        -0.4152   -5.0403    4.3437 C.ar      1 <0>        -0.1190
     16 C12        -0.5804   -4.4869    3.0924 C.ar      1 <0>        -0.0379
     17 Cl1         0.8529   -5.3590    6.7139 Cl        1 <0>        -0.0401
     18 C13         2.5752   -2.2406   -1.2789 C.ar      1 <0>        -0.1401
     19 C14         3.6428   -1.4532   -0.8905 C.ar      1 <0>        -0.0918
     20 C15         4.9131   -1.7299   -1.3597 C.ar      1 <0>        -0.1208
     21 C16         5.1175   -2.7945   -2.2181 C.ar      1 <0>        -0.0715
     22 C17         4.0519   -3.5832   -2.6075 C.ar      1 <0>        -0.1441
     23 C18         2.7796   -3.3101   -2.1338 C.ar      1 <0>         0.1192
     24 F1          1.7377   -4.0835   -2.5100 F         1 <0>        -0.1300
     25 H3          1.0047    1.8421    0.0024 H         1 <0>         0.1242
     26 H4         -0.5450    1.8259   -0.8730 H         1 <0>         0.1273
     27 H5         -0.5280    1.8163    0.9069 H         1 <0>         0.1263
     28 H6          0.1431   -0.5280   -2.0547 H         1 <0>         0.1437
     29 H7          1.6524    0.1129   -1.3350 H         1 <0>         0.1411
     30 H8          1.6221    0.0976    1.3767 H         1 <0>         0.1505
     31 H9          0.0972   -0.5512    2.0554 H         1 <0>         0.1416
     32 H10         2.1366   -2.4442    3.0671 H         1 <0>         0.1392
     33 H11         2.4040   -3.4374    5.2997 H         1 <0>         0.1471
     34 H12        -1.1245   -5.7683    4.7087 H         1 <0>         0.1481
     35 H13        -1.4182   -4.7802    2.4771 H         1 <0>         0.1471
     36 H14         3.4842   -0.6213   -0.2203 H         1 <0>         0.1301
     37 H15         5.7466   -1.1140   -1.0560 H         1 <0>         0.1387
     38 H16         6.1104   -3.0093   -2.5847 H         1 <0>         0.1426
     39 H17         4.2118   -4.4145   -3.2782 H         1 <0>         0.1454
     40 H18        -0.9383   -0.3697   -0.0094 H         1 <0>         0.4340
@<TRIPOS>BOND
     1    1    2 1
     2    1   25 1
     3    1   26 1
     4    1   27 1
     5    2    8 1
     6    2    3 1
     7    2   40 1
     8    3    4 1
     9    3   28 1
    10    3   29 1
    11    4    5 1
    12    4    6 1
    13    4   18 1
    14    6    7 1
    15    6    8 1
    16    6    9 1
    17    8   30 1
    18    8   31 1
    19    9   10 2
    20    9   11 1
    21   11   16 ar
    22   11   12 ar
    23   12   13 ar
    24   12   32 1
    25   13   14 ar
    26   13   33 1
    27   14   15 ar
    28   14   17 1
    29   15   16 ar
    30   15   34 1
    31   16   35 1
    32   18   23 ar
    33   18   19 ar
    34   19   20 ar
    35   19   36 1
    36   20   21 ar
    37   20   37 1
    38   21   22 ar
    39   21   38 1
    40   22   23 ar
    41   22   39 1
    42   23   24 1
@<TRIPOS>MOLECULE
ZINC05525671
   39    41     0     0     0
SMALL
USER_CHARGES

@<TRIPOS>ATOM
      1 C1         -0.0178    1.4648    0.0101 C.3       1 <0>         0.0122
      2 N1          0.0021   -0.0041    0.0020 N.3       1 <0>        -0.5106
      3 C2          0.7880   -0.5195   -1.1485 C.3       1 <0>         0.0437
      4 C3          1.1729   -1.9586   -0.7431 C.3       1 <0>        -0.0476
      5 H1          0.4552   -2.6712   -1.1496 H         1 <0>         0.1099
      6 C4          1.1226   -1.9677    0.7986 C.3       1 <0>        -0.1314
      7 H2          2.1040   -2.2071    1.2080 H         1 <0>         0.1075
      8 C5          0.7115   -0.5335    1.1951 C.3       1 <0>         0.0465
      9 C6          0.0980   -2.9610    1.2830 C.2       1 <0>         0.4064
     10 O1         -0.8317   -3.2703    0.5685 O.2       1 <0>        -0.4273
     11 C7          0.2256   -3.5553    2.6224 C.ar      1 <0>        -0.1634
     12 C8          1.2936   -3.1965    3.4517 C.ar      1 <0>        -0.0621
     13 C9          1.4065   -3.7570    4.7056 C.ar      1 <0>        -0.1223
     14 C10         0.4656   -4.6743    5.1454 C.ar      1 <0>        -0.0063
     15 C11        -0.5949   -5.0344    4.3295 C.ar      1 <0>        -0.1212
     16 C12        -0.7238   -4.4777    3.0754 C.ar      1 <0>        -0.0475
     17 Cl1         0.6165   -5.3761    6.7260 Cl        1 <0>        -0.0582
     18 C13         2.5630   -2.2841   -1.2255 C.ar      1 <0>        -0.1142
     19 C14         3.6354   -1.5156   -0.8137 C.ar      1 <0>        -0.0891
     20 C15         4.9105   -1.8140   -1.2560 C.ar      1 <0>        -0.1267
     21 C16         5.1149   -2.8814   -2.1107 C.ar      1 <0>        -0.0903
     22 C17         4.0443   -3.6515   -2.5234 C.ar      1 <0>        -0.1505
     23 C18         2.7671   -3.3566   -2.0767 C.ar      1 <0>         0.1064
     24 F1          1.7203   -4.1117   -2.4758 F         1 <0>        -0.1338
     25 H3          1.0047    1.8421    0.0024 H         1 <0>         0.0312
     26 H4         -0.5450    1.8259   -0.8730 H         1 <0>         0.0740
     27 H5         -0.5280    1.8163    0.9069 H         1 <0>         0.0724
     28 H6          0.1779   -0.5293   -2.0517 H         1 <0>         0.0895
     29 H7          1.6823    0.0850   -1.2993 H         1 <0>         0.0535
     30 H8          1.5939    0.0689    1.4111 H         1 <0>         0.0604
     31 H9          0.0438   -0.5537    2.0565 H         1 <0>         0.0884
     32 H10         2.0281   -2.4822    3.1099 H         1 <0>         0.1406
     33 H11         2.2305   -3.4810    5.3469 H         1 <0>         0.1416
     34 H12        -1.3243   -5.7502    4.6787 H         1 <0>         0.1420
     35 H13        -1.5531   -4.7562    2.4421 H         1 <0>         0.1448
     36 H14         3.4770   -0.6813   -0.1464 H         1 <0>         0.1290
     37 H15         5.7479   -1.2126   -0.9339 H         1 <0>         0.1310
     38 H16         6.1115   -3.1132   -2.4562 H         1 <0>         0.1341
     39 H17         4.2041   -4.4850   -3.1912 H         1 <0>         0.1373
@<TRIPOS>BOND
     1    1    2 1
     2    1   25 1
     3    1   26 1
     4    1   27 1
     5    2    8 1
     6    2    3 1
     7    3    4 1
     8    3   28 1
     9    3   29 1
    10    4    5 1
    11    4    6 1
    12    4   18 1
    13    6    7 1
    14    6    8 1
    15    6    9 1
    16    8   30 1
    17    8   31 1
    18    9   10 2
    19    9   11 1
    20   11   16 ar
    21   11   12 ar
    22   12   13 ar
    23   12   32 1
    24   13   14 ar
    25   13   33 1
    26   14   15 ar
    27   14   17 1
    28   15   16 ar
    29   15   34 1
    30   16   35 1
    31   18   23 ar
    32   18   19 ar
    33   19   20 ar
    34   19   36 1
    35   20   21 ar
    36   20   37 1
    37   21   22 ar
    38   21   38 1
    39   22   23 ar
    40   22   39 1
    41   23   24 1
@<TRIPOS>MOLECULE
ZINC05525672
   44    46     0     0     0
SMALL
USER_CHARGES
[4-(4-chlorophenyl)-1-methyl-pyrrolidin-3-yl]-(4-methoxyphenyl)-methanone
@<TRIPOS>ATOM
      1 C1          3.7957    7.2125   -2.9167 C.3       1 <0>        -0.0364
      2 C2          4.3156    6.8246   -0.5697 C.3       1 <0>        -0.0021
      3 C3          3.7021    5.9935    0.5776 C.3       1 <0>        -0.0595
      4 H1          4.3690    5.1760    0.8514 H         1 <0>         0.1316
      5 C4          2.3802    5.4386    0.0081 C.3       1 <0>        -0.1483
      6 H2          1.6160    5.7563    0.5694 H         1 <0>         0.1293
      7 C5          2.3034    5.9811   -1.4352 C.3       1 <0>         0.0075
      8 C6          2.4051    3.9319    0.0002 C.2       1 <0>         0.4048
      9 O1          3.4655    3.3429   -0.0123 O.2       1 <0>        -0.4411
     10 C7          1.1457    3.1765    0.0077 C.ar      1 <0>        -0.2336
     11 C8          1.1662    1.7763    0.0005 C.ar      1 <0>        -0.0077
     12 C9         -0.0126    1.0758    0.0080 C.ar      1 <0>        -0.1643
     13 C10        -1.2270    1.7535    0.0174 C.ar      1 <0>         0.1829
     14 C11        -1.2528    3.1440    0.0300 C.ar      1 <0>        -0.2233
     15 C12        -0.0798    3.8540    0.0226 C.ar      1 <0>        -0.0286
     16 O2         -2.3905    1.0558    0.0195 O.3       1 <0>        -0.3046
     17 C13        -3.6017    1.8141    0.0294 C.3       1 <0>         0.0205
     18 C14         3.4299    6.8710    1.7721 C.ar      1 <0>        -0.1009
     19 C15         2.6451    8.0007    1.6350 C.ar      1 <0>        -0.1060
     20 C16         2.3905    8.8029    2.7314 C.ar      1 <0>        -0.1038
     21 C17         2.9306    8.4811    3.9639 C.ar      1 <0>        -0.0226
     22 C18         3.7206    7.3534    4.0992 C.ar      1 <0>        -0.1012
     23 C19         3.9698    6.5490    3.0033 C.ar      1 <0>        -0.0852
     24 Cl1         2.6176    9.4923    5.3398 Cl        1 <0>        -0.0480
     25 H3          4.8394    7.4574   -3.1136 H         1 <0>         0.1279
     26 H4          3.3518    6.7702   -3.8086 H         1 <0>         0.1276
     27 H5          3.2531    8.1202   -2.6526 H         1 <0>         0.1208
     28 H6          4.0439    7.8750   -0.4655 H         1 <0>         0.1386
     29 H7          5.3997    6.7126   -0.5826 H         1 <0>         0.1468
     30 H8          1.8732    5.2324   -2.1004 H         1 <0>         0.1450
     31 H9          1.7172    6.8996   -1.4655 H         1 <0>         0.1475
     32 H10         2.1087    1.2491   -0.0107 H         1 <0>         0.1444
     33 H11         0.0021   -0.0041    0.0020 H         1 <0>         0.1452
     34 H12        -2.1985    3.6656    0.0411 H         1 <0>         0.1410
     35 H13        -0.1010    4.9338    0.0279 H         1 <0>         0.1314
     36 H14        -4.4549    1.1358    0.0301 H         1 <0>         0.1110
     37 H15        -3.6326    2.4379    0.9227 H         1 <0>         0.0631
     38 H16        -3.6413    2.4469   -0.8572 H         1 <0>         0.0624
     39 H17         2.2272    8.2542    0.6719 H         1 <0>         0.1279
     40 H18         1.7738    9.6831    2.6252 H         1 <0>         0.1411
     41 H19         4.1422    7.1016    5.0611 H         1 <0>         0.1430
     42 H20         4.5868    5.6688    3.1088 H         1 <0>         0.1382
     43 N1          3.7077    6.2536   -1.7693 N.4       1 <0>        -0.3986
     44 H21         4.1846    5.3802   -2.0223 H         1 <0>         0.4365
@<TRIPOS>BOND
     1    1   25 1
     2    1   26 1
     3    1   27 1
     4    1   43 1
     5    2    3 1
     6    2   28 1
     7    2   29 1
     8    2   43 1
     9    3    4 1
    10    3    5 1
    11    3   18 1
    12    5    6 1
    13    5    7 1
    14    5    8 1
    15    7   30 1
    16    7   31 1
    17    7   43 1
    18    8    9 2
    19    8   10 1
    20   10   15 ar
    21   10   11 ar
    22   11   12 ar
    23   11   32 1
    24   12   13 ar
    25   12   33 1
    26   13   14 ar
    27   13   16 1
    28   14   15 ar
    29   14   34 1
    30   15   35 1
    31   16   17 1
    32   17   36 1
    33   17   37 1
    34   17   38 1
    35   18   23 ar
    36   18   19 ar
    37   19   20 ar
    38   19   39 1
    39   20   21 ar
    40   20   40 1
    41   21   22 ar
    42   21   24 1
    43   22   23 ar
    44   22   41 1
    45   23   42 1
    46   43   44 1
@<TRIPOS>MOLECULE
ZINC05525670
   40    42     0     0     0
SMALL
USER_CHARGES

@<TRIPOS>ATOM
      1 C1         -0.0178    1.4648    0.0101 C.3       1 <0>        -0.0432
      2 N1          0.0021   -0.0041    0.0020 N.4       1 <0>        -0.3987
      3 C2          0.7720   -0.5069   -1.1648 C.3       1 <0>         0.0036
      4 C3          1.1903   -1.9387   -0.7670 C.3       1 <0>        -0.0674
      5 H1          0.4766   -2.6639   -1.1577 H         1 <0>         0.1384
      6 C4          1.1732   -1.9474    0.7755 C.3       1 <0>        -0.1586
      7 H2          2.1671   -2.1694    1.1639 H         1 <0>         0.1491
      8 C5          0.7459   -0.5201    1.1799 C.3       1 <0>         0.0081
      9 C6          0.1764   -2.9578    1.2821 C.2       1 <0>         0.4034
     10 O1         -0.7628   -3.2837    0.5878 O.2       1 <0>        -0.4268
     11 C7          0.3429   -3.5487    2.6188 C.ar      1 <0>        -0.1845
     12 C8          1.4220   -3.1707    3.4248 C.ar      1 <0>        -0.0626
     13 C9          1.5714   -3.7282    4.6763 C.ar      1 <0>        -0.1206
     14 C10         0.6561   -4.6612    5.1366 C.ar      1 <0>         0.0061
     15 C11        -0.4152   -5.0403    4.3437 C.ar      1 <0>        -0.1189
     16 C12        -0.5804   -4.4869    3.0924 C.ar      1 <0>        -0.0375
     17 Cl1         0.8529   -5.3590    6.7139 Cl        1 <0>        -0.0399
     18 C13         2.5752   -2.2406   -1.2789 C.ar      1 <0>        -0.0928
     19 C14         3.6427   -1.4529   -0.8901 C.ar      1 <0>        -0.0937
     20 C15         4.9130   -1.7291   -1.3591 C.ar      1 <0>        -0.0978
     21 C16         5.1172   -2.7949   -2.2178 C.ar      1 <0>        -0.0114
     22 C17         4.0497   -3.5836   -2.6068 C.ar      1 <0>        -0.0942
     23 C18         2.7790   -3.3095   -2.1331 C.ar      1 <0>        -0.0110
     24 Cl2         1.4395   -4.3026   -2.6159 Cl        1 <0>        -0.0352
     25 Cl3         6.7129   -3.1414   -2.8073 Cl        1 <0>        -0.0328
     26 H3          1.0047    1.8421    0.0024 H         1 <0>         0.1245
     27 H4         -0.5450    1.8259   -0.8730 H         1 <0>         0.1277
     28 H5         -0.5280    1.8163    0.9069 H         1 <0>         0.1268
     29 H6          0.1431   -0.5280   -2.0547 H         1 <0>         0.1453
     30 H7          1.6524    0.1129   -1.3350 H         1 <0>         0.1416
     31 H8          1.6221    0.0976    1.3767 H         1 <0>         0.1511
     32 H9          0.0972   -0.5512    2.0554 H         1 <0>         0.1426
     33 H10         2.1366   -2.4442    3.0671 H         1 <0>         0.1389
     34 H11         2.4040   -3.4374    5.2997 H         1 <0>         0.1470
     35 H12        -1.1245   -5.7683    4.7087 H         1 <0>         0.1481
     36 H13        -1.4182   -4.7802    2.4771 H         1 <0>         0.1472
     37 H14         3.4838   -0.6210   -0.2199 H         1 <0>         0.1402
     38 H15         5.7464   -1.1129   -1.0556 H         1 <0>         0.1495
     39 H16         4.2086   -4.4155   -3.2770 H         1 <0>         0.1540
     40 H17        -0.9383   -0.3697   -0.0094 H         1 <0>         0.4344
@<TRIPOS>BOND
     1    1    2 1
     2    1   26 1
     3    1   27 1
     4    1   28 1
     5    2    8 1
     6    2    3 1
     7    2   40 1
     8    3    4 1
     9    3   29 1
    10    3   30 1
    11    4    5 1
    12    4    6 1
    13    4   18 1
    14    6    7 1
    15    6    8 1
    16    6    9 1
    17    8   31 1
    18    8   32 1
    19    9   10 2
    20    9   11 1
    21   11   16 ar
    22   11   12 ar
    23   12   13 ar
    24   12   33 1
    25   13   14 ar
    26   13   34 1
    27   14   15 ar
    28   14   17 1
    29   15   16 ar
    30   15   35 1
    31   16   36 1
    32   18   23 ar
    33   18   19 ar
    34   19   20 ar
    35   19   37 1
    36   20   21 ar
    37   20   38 1
    38   21   22 ar
    39   21   25 1
    40   22   23 ar
    41   22   39 1
    42   23   24 1
@<TRIPOS>MOLECULE
ZINC05525670
   39    41     0     0     0
SMALL
USER_CHARGES

@<TRIPOS>ATOM
      1 C1         -0.0178    1.4648    0.0101 C.3       1 <0>         0.0120
      2 N1          0.0021   -0.0041    0.0020 N.3       1 <0>        -0.5095
      3 C2          0.7880   -0.5195   -1.1485 C.3       1 <0>         0.0437
      4 C3          1.1729   -1.9586   -0.7431 C.3       1 <0>        -0.0566
      5 H1          0.4552   -2.6712   -1.1496 H         1 <0>         0.1191
      6 C4          1.1226   -1.9677    0.7986 C.3       1 <0>        -0.1319
      7 H2          2.1040   -2.2071    1.2080 H         1 <0>         0.1072
      8 C5          0.7115   -0.5335    1.1951 C.3       1 <0>         0.0459
      9 C6          0.0980   -2.9610    1.2830 C.2       1 <0>         0.4070
     10 O1         -0.8317   -3.2703    0.5685 O.2       1 <0>        -0.4254
     11 C7          0.2256   -3.5553    2.6224 C.ar      1 <0>        -0.1635
     12 C8          1.2936   -3.1965    3.4517 C.ar      1 <0>        -0.0624
     13 C9          1.4065   -3.7570    4.7056 C.ar      1 <0>        -0.1221
     14 C10         0.4656   -4.6743    5.1454 C.ar      1 <0>        -0.0060
     15 C11        -0.5949   -5.0344    4.3295 C.ar      1 <0>        -0.1212
     16 C12        -0.7238   -4.4777    3.0754 C.ar      1 <0>        -0.0471
     17 Cl1         0.6165   -5.3761    6.7260 Cl        1 <0>        -0.0580
     18 C13         2.5630   -2.2841   -1.2255 C.ar      1 <0>        -0.0659
     19 C14         3.6353   -1.5152   -0.8134 C.ar      1 <0>        -0.0925
     20 C15         4.9104   -1.8131   -1.2553 C.ar      1 <0>        -0.1013
     21 C16         5.1145   -2.8818   -2.1104 C.ar      1 <0>        -0.0253
     22 C17         4.0421   -3.6518   -2.5227 C.ar      1 <0>        -0.0987
     23 C18         2.7665   -3.3560   -2.0761 C.ar      1 <0>        -0.0196
     24 Cl2         1.4206   -4.3255   -2.5883 Cl        1 <0>        -0.0441
     25 Cl3         6.7162   -3.2556   -2.6659 Cl        1 <0>        -0.0533
     26 H3          1.0047    1.8421    0.0024 H         1 <0>         0.0314
     27 H4         -0.5450    1.8259   -0.8730 H         1 <0>         0.0744
     28 H5         -0.5280    1.8163    0.9069 H         1 <0>         0.0727
     29 H6          0.1779   -0.5293   -2.0517 H         1 <0>         0.0910
     30 H7          1.6823    0.0850   -1.2993 H         1 <0>         0.0532
     31 H8          1.5939    0.0689    1.4111 H         1 <0>         0.0607
     32 H9          0.0438   -0.5537    2.0565 H         1 <0>         0.0892
     33 H10         2.0281   -2.4822    3.1099 H         1 <0>         0.1403
     34 H11         2.2305   -3.4810    5.3469 H         1 <0>         0.1416
     35 H12        -1.3243   -5.7502    4.6787 H         1 <0>         0.1419
     36 H13        -1.5531   -4.7562    2.4421 H         1 <0>         0.1448
     37 H14         3.4765   -0.6810   -0.1460 H         1 <0>         0.1394
     38 H15         5.7477   -1.2116   -0.9336 H         1 <0>         0.1422
     39 H16         4.2009   -4.4860   -3.1901 H         1 <0>         0.1466
@<TRIPOS>BOND
     1    1    2 1
     2    1   26 1
     3    1   27 1
     4    1   28 1
     5    2    8 1
     6    2    3 1
     7    3    4 1
     8    3   29 1
     9    3   30 1
    10    4    5 1
    11    4    6 1
    12    4   18 1
    13    6    7 1
    14    6    8 1
    15    6    9 1
    16    8   31 1
    17    8   32 1
    18    9   10 2
    19    9   11 1
    20   11   16 ar
    21   11   12 ar
    22   12   13 ar
    23   12   33 1
    24   13   14 ar
    25   13   34 1
    26   14   15 ar
    27   14   17 1
    28   15   16 ar
    29   15   35 1
    30   16   36 1
    31   18   23 ar
    32   18   19 ar
    33   19   20 ar
    34   19   37 1
    35   20   21 ar
    36   20   38 1
    37   21   22 ar
    38   21   25 1
    39   22   23 ar
    40   22   39 1
    41   23   24 1
@<TRIPOS>MOLECULE
ZINC03831139
   34    35     0     0     0
SMALL
USER_CHARGES

@<TRIPOS>ATOM
      1 C1          0.0320    1.4613    0.0585 C.ar      1 <0>        -0.1200
      2 C2          0.0191    0.0798    0.0098 C.ar      1 <0>        -0.1134
      3 C3          1.2097   -0.6219   -0.0215 C.ar      1 <0>        -0.1327
      4 C4          2.4132    0.0579   -0.0045 C.ar      1 <0>        -0.0796
      5 C5          2.4262    1.4394    0.0434 C.ar      1 <0>        -0.1105
      6 C6          1.2356    2.1410    0.0761 C.ar      1 <0>        -0.1184
      7 C7          3.7112   -0.7071   -0.0376 C.3       1 <0>        -0.3475
      8 C8          3.8699   -1.4828    1.2447 C.ar      1 <0>        -0.0623
      9 C9          3.0119   -2.5282    1.5308 C.ar      1 <0>        -0.1231
     10 C10         3.1575   -3.2398    2.7070 C.ar      1 <0>        -0.1149
     11 C11         4.1614   -2.9062    3.5968 C.ar      1 <0>        -0.1175
     12 C12         5.0200   -1.8613    3.3103 C.ar      1 <0>        -0.1197
     13 C13         4.8770   -1.1526    2.1321 C.ar      1 <0>        -0.1059
     14 S1          3.7005   -1.8556   -1.4417 S.o       1 <0>         1.3196
     15 O1          2.6449   -2.7928   -1.2790 O.2       1 <0>        -0.8037
     16 C14         3.3532   -0.7961   -2.8726 C.3       1 <0>        -0.4986
     17 C15         3.3163   -1.6367   -4.1228 C.2       1 <0>         0.5459
     18 O2          3.5056   -2.8327   -4.0552 O.2       1 <0>        -0.5356
     19 N1          3.0728   -1.0594   -5.3161 N.am      1 <0>        -0.8492
     20 H1         -0.8982    2.0097    0.0784 H         1 <0>         0.1230
     21 H2         -0.9213   -0.4512   -0.0035 H         1 <0>         0.1233
     22 H3          1.1995   -1.7012   -0.0589 H         1 <0>         0.1405
     23 H4          3.3665    1.9704    0.0574 H         1 <0>         0.1253
     24 H5          1.2457    3.2203    0.1138 H         1 <0>         0.1243
     25 H6          4.5416   -0.0093   -0.1452 H         1 <0>         0.1376
     26 H7          2.2276   -2.7889    0.8356 H         1 <0>         0.1398
     27 H8          2.4868   -4.0561    2.9308 H         1 <0>         0.1233
     28 H9          4.2747   -3.4616    4.5161 H         1 <0>         0.1228
     29 H10         5.8040   -1.6005    4.0057 H         1 <0>         0.1246
     30 H11         5.5501   -0.3386    1.9065 H         1 <0>         0.1256
     31 H12         2.3895   -0.3055   -2.7360 H         1 <0>         0.1202
     32 H13         4.1350   -0.0421   -2.9647 H         1 <0>         0.1469
     33 H14         2.9214   -0.1028   -5.3701 H         1 <0>         0.4038
     34 H15         3.0490   -1.6004   -6.1208 H         1 <0>         0.4060
@<TRIPOS>BOND
     1    1    6 ar
     2    1    2 ar
     3    1   20 1
     4    2    3 ar
     5    2   21 1
     6    3    4 ar
     7    3   22 1
     8    4    5 ar
     9    4    7 1
    10    5    6 ar
    11    5   23 1
    12    6   24 1
    13    7    8 1
    14    7   14 1
    15    7   25 1
    16    8   13 ar
    17    8    9 ar
    18    9   10 ar
    19    9   26 1
    20   10   11 ar
    21   10   27 1
    22   11   12 ar
    23   11   28 1
    24   12   13 ar
    25   12   29 1
    26   13   30 1
    27   14   15 2
    28   14   16 1
    29   16   17 1
    30   16   31 1
    31   16   32 1
    32   17   18 2
    33   17   19 am
    34   19   33 1
    35   19   34 1
@<TRIPOS>MOLECULE
ZINC19367174
   47    49     0     0     0
SMALL
USER_CHARGES

@<TRIPOS>ATOM
      1 C1         -0.0167    1.3781    0.0096 C.ar      1 <0>        -0.1141
      2 C2          1.1709    2.0855    0.0021 C.ar      1 <0>        -0.1191
      3 C3          2.3773    1.4107   -0.0130 C.ar      1 <0>        -0.1102
      4 C4          2.3960    0.0285   -0.0201 C.ar      1 <0>        -0.0837
      5 C5          1.2084   -0.6789   -0.0117 C.ar      1 <0>        -0.0871
      6 C6          0.0021   -0.0041    0.0020 C.ar      1 <0>        -0.1234
      7 C7          3.7112   -0.7071   -0.0376 C.3       1 <0>         0.1791
      8 C8          4.0438   -1.1746    1.3559 C.ar      1 <0>        -0.1165
      9 C9          3.5369   -2.3732    1.8222 C.ar      1 <0>        -0.0931
     10 C10         3.8420   -2.8021    3.1005 C.ar      1 <0>        -0.1219
     11 C11         4.6543   -2.0326    3.9122 C.ar      1 <0>        -0.1127
     12 C12         5.1619   -0.8345    3.4456 C.ar      1 <0>        -0.1184
     13 C13         4.8603   -0.4077    2.1658 C.ar      1 <0>        -0.1101
     14 O1          3.6140   -1.8361   -0.9083 O.3       1 <0>        -0.3556
     15 C14         4.8476   -2.1962   -1.5330 C.3       1 <0>         0.0616
     16 C15         4.6260   -3.4103   -2.4373 C.3       1 <0>         0.0585
     17 N1          3.7255   -3.0430   -3.5383 N.3       1 <0>        -0.5290
     18 C16         4.3573   -2.0602   -4.4300 C.3       1 <0>         0.0191
     19 C17         3.3675   -1.6603   -5.5263 C.3       1 <0>        -0.0019
     20 N2          2.9706   -2.8527   -6.2866 N.4       1 <0>        -0.5081
     21 C18         2.3192   -3.8144   -5.3875 C.3       1 <0>        -0.0023
     22 C19         3.3003   -4.2322   -4.2900 C.3       1 <0>         0.0245
     23 H1         -0.9591    1.9053    0.0259 H         1 <0>         0.1236
     24 H2          1.1563    3.1654    0.0076 H         1 <0>         0.1249
     25 H3          3.3051    1.9634   -0.0196 H         1 <0>         0.1203
     26 H4          1.2231   -1.7588   -0.0179 H         1 <0>         0.1238
     27 H5         -0.9258   -0.5567    0.0082 H         1 <0>         0.1227
     28 H6          4.4960   -0.0399   -0.3940 H         1 <0>         0.0742
     29 H7          2.9023   -2.9744    1.1880 H         1 <0>         0.1242
     30 H8          3.4455   -3.7381    3.4650 H         1 <0>         0.1235
     31 H9          4.8921   -2.3673    4.9112 H         1 <0>         0.1243
     32 H10         5.7962   -0.2331    4.0800 H         1 <0>         0.1250
     33 H11         5.2599    0.5266    1.7999 H         1 <0>         0.1200
     34 H12         5.2102   -1.3596   -2.1304 H         1 <0>         0.0503
     35 H13         5.5840   -2.4424   -0.7681 H         1 <0>         0.0642
     36 H14         5.5821   -3.7395   -2.8443 H         1 <0>         0.0621
     37 H15         4.1803   -4.2186   -1.8576 H         1 <0>         0.0990
     38 H16         4.6406   -1.1778   -3.8562 H         1 <0>         0.1228
     39 H17         5.2454   -2.4995   -4.8843 H         1 <0>         0.0600
     40 H18         2.4855   -1.2086   -5.0724 H         1 <0>         0.1404
     41 H19         3.8390   -0.9420   -6.1971 H         1 <0>         0.1375
     42 H20         2.3276   -2.5869   -7.0173 H         1 <0>         0.4341
     43 H21         1.4425   -3.3517   -4.9343 H         1 <0>         0.1403
     44 H22         2.0135   -4.6931   -5.9554 H         1 <0>         0.1381
     45 H23         4.1710   -4.7073   -4.7420 H         1 <0>         0.0596
     46 H24         2.8123   -4.9344   -3.6141 H         1 <0>         0.1239
     47 H25         3.7887   -3.2773   -6.6972 H         1 <0>         0.4254
@<TRIPOS>BOND
     1    1    6 ar
     2    1    2 ar
     3    1   23 1
     4    2    3 ar
     5    2   24 1
     6    3    4 ar
     7    3   25 1
     8    4    5 ar
     9    4    7 1
    10    5    6 ar
    11    5   26 1
    12    6   27 1
    13    7    8 1
    14    7   14 1
    15    7   28 1
    16    8   13 ar
    17    8    9 ar
    18    9   10 ar
    19    9   29 1
    20   10   11 ar
    21   10   30 1
    22   11   12 ar
    23   11   31 1
    24   12   13 ar
    25   12   32 1
    26   13   33 1
    27   14   15 1
    28   15   16 1
    29   15   34 1
    30   15   35 1
    31   16   17 1
    32   16   36 1
    33   16   37 1
    34   17   22 1
    35   17   18 1
    36   18   19 1
    37   18   38 1
    38   18   39 1
    39   19   20 1
    40   19   40 1
    41   19   41 1
    42   20   21 1
    43   20   42 1
    44   20   47 1
    45   21   22 1
    46   21   43 1
    47   21   44 1
    48   22   45 1
    49   22   46 1
@<TRIPOS>MOLECULE
ZINC19850529
   50    52     0     0     0
SMALL
USER_CHARGES

@<TRIPOS>ATOM
      1 C1          0.0398    1.1358    0.3761 C.ar      1 <0>        -0.1154
      2 C2          1.1924    1.8954    0.3014 C.ar      1 <0>        -0.1184
      3 C3          2.4224    1.2755    0.1844 C.ar      1 <0>        -0.1092
      4 C4          2.4999   -0.1040    0.1425 C.ar      1 <0>        -0.1076
      5 C5          1.3474   -0.8637    0.2180 C.ar      1 <0>        -0.0885
      6 C6          0.1173   -0.2437    0.3336 C.ar      1 <0>        -0.1284
      7 C7          3.8407   -0.7798    0.0140 C.3       1 <0>         0.1765
      8 C8          4.2924   -1.2614    1.3686 C.ar      1 <0>        -0.0877
      9 C9          3.8724   -2.4909    1.8405 C.ar      1 <0>        -0.0893
     10 C10         4.2867   -2.9327    3.0831 C.ar      1 <0>        -0.1234
     11 C11         5.1215   -2.1451    3.8536 C.ar      1 <0>        -0.1131
     12 C12         5.5423   -0.9160    3.3813 C.ar      1 <0>        -0.1177
     13 C13         5.1314   -0.4761    2.1369 C.ar      1 <0>        -0.1090
     14 O1          3.7296   -1.8933   -0.8748 O.3       1 <0>        -0.3545
     15 C14         3.9786   -1.5709   -2.2445 C.3       1 <0>         0.0621
     16 C15         3.8329   -2.8311   -3.0997 C.3       1 <0>         0.0626
     17 N1          2.4414   -3.2993   -3.0487 N.3       1 <0>        -0.5436
     18 C16         2.3549   -4.7445   -3.3688 C.3       1 <0>         0.0449
     19 C17         1.0973   -5.2973   -2.7480 C.3       1 <0>        -0.1440
     20 C18        -0.1013   -5.2636   -3.7098 C.3       1 <0>        -0.0075
     21 N2         -0.1743   -4.0060   -4.4870 N.4       1 <0>        -0.5056
     22 C19         0.1230   -2.8457   -3.6785 C.3       1 <0>        -0.0153
     23 C20         1.6148   -2.5018   -3.8462 C.3       1 <0>         0.0439
     24 H1         -0.9208    1.6200    0.4720 H         1 <0>         0.1221
     25 H2          1.1318    2.9732    0.3342 H         1 <0>         0.1245
     26 H3          3.3228    1.8690    0.1254 H         1 <0>         0.1211
     27 H4          1.4079   -1.9414    0.1846 H         1 <0>         0.1243
     28 H5         -0.7831   -0.8372    0.3922 H         1 <0>         0.1189
     29 H6          4.5685   -0.0710   -0.3809 H         1 <0>         0.0754
     30 H7          3.2202   -3.1063    1.2385 H         1 <0>         0.1239
     31 H8          3.9580   -3.8930    3.4520 H         1 <0>         0.1228
     32 H9          5.4447   -2.4899    4.8247 H         1 <0>         0.1242
     33 H10         6.1942   -0.3005    3.9835 H         1 <0>         0.1257
     34 H11         5.4632    0.4826    1.7664 H         1 <0>         0.1209
     35 H12         3.2611   -0.8208   -2.5774 H         1 <0>         0.0501
     36 H13         4.9898   -1.1771   -2.3470 H         1 <0>         0.0612
     37 H14         4.1020   -2.6033   -4.1311 H         1 <0>         0.0621
     38 H15         4.4923   -3.6092   -2.7155 H         1 <0>         0.0960
     39 H16         2.3192   -4.8787   -4.4500 H         1 <0>         0.0423
     40 H17         3.2230   -5.2625   -2.9610 H         1 <0>         0.1043
     41 H18         1.2777   -6.3290   -2.4461 H         1 <0>         0.1126
     42 H19         0.8546   -4.7106   -1.8621 H         1 <0>         0.1035
     43 H20        -0.0204   -6.1013   -4.4025 H         1 <0>         0.1290
     44 H21        -1.0191   -5.3744   -3.1324 H         1 <0>         0.1309
     45 H22         0.4865   -4.0528   -5.2481 H         1 <0>         0.4215
     46 H23        -0.4860   -2.0039   -4.0082 H         1 <0>         0.1390
     47 H24        -0.0867   -3.0652   -2.6317 H         1 <0>         0.1431
     48 H25         1.7680   -1.4565   -3.5777 H         1 <0>         0.1163
     49 H26         1.8932   -2.6398   -4.8909 H         1 <0>         0.0414
     50 H27        -1.1037   -3.9102   -4.8679 H         1 <0>         0.4312
@<TRIPOS>BOND
     1    1    6 ar
     2    1    2 ar
     3    1   24 1
     4    2    3 ar
     5    2   25 1
     6    3    4 ar
     7    3   26 1
     8    4    5 ar
     9    4    7 1
    10    5    6 ar
    11    5   27 1
    12    6   28 1
    13    7    8 1
    14    7   14 1
    15    7   29 1
    16    8   13 ar
    17    8    9 ar
    18    9   10 ar
    19    9   30 1
    20   10   11 ar
    21   10   31 1
    22   11   12 ar
    23   11   32 1
    24   12   13 ar
    25   12   33 1
    26   13   34 1
    27   14   15 1
    28   15   16 1
    29   15   35 1
    30   15   36 1
    31   16   17 1
    32   16   37 1
    33   16   38 1
    34   17   23 1
    35   17   18 1
    36   18   19 1
    37   18   39 1
    38   18   40 1
    39   19   20 1
    40   19   41 1
    41   19   42 1
    42   20   21 1
    43   20   43 1
    44   20   44 1
    45   21   22 1
    46   21   45 1
    47   21   50 1
    48   22   23 1
    49   22   46 1
    50   22   47 1
    51   23   48 1
    52   23   49 1
@<TRIPOS>MOLECULE
ZINC00598412
   41    43     0     0     0
SMALL
USER_CHARGES
methyl 3-(4-iodophenyl)-8-methyl-8-azabicyclo[3.2.1]octane-4-carboxylate
@<TRIPOS>ATOM
      1 C1         -2.8162    0.7064    0.2330 C.3       1 <0>        -0.0354
      2 C2         -1.8992    2.8594    0.9108 C.3       1 <0>         0.0308
      3 H1         -2.7484    2.9369    1.5897 H         1 <0>         0.1599
      4 C3         -0.6427    2.2612    1.5901 C.3       1 <0>        -0.2081
      5 C4          0.0690    1.4715    0.4719 C.3       1 <0>        -0.2064
      6 C5         -0.8182    1.6649   -0.7794 C.3       1 <0>         0.0471
      7 H2         -0.8095    0.7905   -1.4300 H         1 <0>         0.1666
      8 C6         -0.3475    2.9402   -1.4968 C.3       1 <0>        -0.1060
      9 H3         -1.0824    3.2286   -2.2484 H         1 <0>         0.1432
     10 C7         -0.2003    4.0632   -0.4662 C.3       1 <0>        -0.0505
     11 H4          0.0312    4.9972   -0.9782 H         1 <0>         0.1354
     12 C8         -1.5071    4.2215    0.3162 C.3       1 <0>        -0.1427
     13 C9          0.9166    3.7240    0.4870 C.ar      1 <0>        -0.0784
     14 C10         0.8760    4.1828    1.7904 C.ar      1 <0>        -0.1008
     15 C11         1.8976    3.8671    2.6665 C.ar      1 <0>        -0.0964
     16 C12         2.9656    3.1013    2.2359 C.ar      1 <0>        -0.0843
     17 C13         3.0087    2.6473    0.9304 C.ar      1 <0>        -0.0914
     18 C14         1.9844    2.9589    0.0562 C.ar      1 <0>        -0.1387
     19 I1          4.5176    2.6286    3.5614 I         1 <0>        -0.0151
     20 C15         0.9820    2.6854   -2.1590 C.2       1 <0>         0.4848
     21 O1          1.3590    1.5519   -2.3406 O.2       1 <0>        -0.4969
     22 O2          1.7472    3.7175   -2.5472 O.3       1 <0>        -0.3510
     23 C16         3.0151    3.3974   -3.1783 C.3       1 <0>         0.0292
     24 H5         -2.2082    0.2491    1.0136 H         1 <0>         0.1188
     25 H6         -3.8040    0.9385    0.6310 H         1 <0>         0.1278
     26 H7         -2.9148    0.0142   -0.6032 H         1 <0>         0.1245
     27 H8         -0.9312    1.5932    2.4016 H         1 <0>         0.0950
     28 H9          0.0032    3.0560    1.9632 H         1 <0>         0.1683
     29 H10         0.1305    0.4152    0.7337 H         1 <0>         0.0979
     30 H11         1.0656    1.8767    0.2966 H         1 <0>         0.1638
     31 H12        -2.2941    4.5675   -0.3539 H         1 <0>         0.1039
     32 H13        -1.3682    4.9444    1.1201 H         1 <0>         0.1251
     33 H14         0.0439    4.7842    2.1255 H         1 <0>         0.1475
     34 H15         1.8634    4.2215    3.6861 H         1 <0>         0.1426
     35 H16         3.8425    2.0489    0.5939 H         1 <0>         0.1386
     36 H17         2.0180    2.6044   -0.9634 H         1 <0>         0.1537
     37 H18         3.5328    4.3197   -3.4421 H         1 <0>         0.1165
     38 H19         3.6297    2.8208   -2.4870 H         1 <0>         0.0707
     39 H20         2.8347    2.8114   -4.0795 H         1 <0>         0.0750
     40 N1         -2.1338    1.9607   -0.2230 N.4       1 <0>        -0.3896
     41 H21        -2.7182    2.4256   -0.9277 H         1 <0>         0.4251
@<TRIPOS>BOND
     1    1   24 1
     2    1   25 1
     3    1   26 1
     4    1   40 1
     5    2    3 1
     6    2   12 1
     7    2    4 1
     8    2   40 1
     9    4    5 1
    10    4   27 1
    11    4   28 1
    12    5    6 1
    13    5   29 1
    14    5   30 1
    15    6    7 1
    16    6    8 1
    17    6   40 1
    18    8    9 1
    19    8   10 1
    20    8   20 1
    21   10   11 1
    22   10   12 1
    23   10   13 1
    24   12   31 1
    25   12   32 1
    26   13   18 ar
    27   13   14 ar
    28   14   15 ar
    29   14   33 1
    30   15   16 ar
    31   15   34 1
    32   16   17 ar
    33   16   19 1
    34   17   18 ar
    35   17   35 1
    36   18   36 1
    37   20   21 2
    38   20   22 1
    39   22   23 1
    40   23   37 1
    41   23   38 1
    42   23   39 1
    43   40   41 1
@<TRIPOS>MOLECULE
ZINC03872906
   35    37     0     0     0
SMALL
USER_CHARGES

@<TRIPOS>ATOM
      1 C1         -0.0178    1.4648    0.0101 C.3       1 <0>        -0.0525
      2 N1          0.0021   -0.0041    0.0020 N.4       1 <0>        -0.5038
      3 C2         -1.3761   -0.5125    0.0124 C.3       1 <0>         0.0749
      4 H1         -1.9289   -0.0879    0.8504 H         1 <0>         0.1501
      5 C3         -1.3777   -2.0537    0.0958 C.3       1 <0>        -0.1299
      6 C4         -1.4270   -2.4659   -1.3908 C.3       1 <0>        -0.0166
      7 H2         -0.4182   -2.6139   -1.7759 H         1 <0>         0.1086
      8 C5         -2.0957   -1.3084   -2.1009 C.ar      1 <0>        -0.0630
      9 C6         -2.0672   -0.1835   -1.2934 C.ar      1 <0>        -0.1667
     10 C7         -2.6255    1.0025   -1.7393 C.ar      1 <0>        -0.0801
     11 C8         -3.2115    1.0686   -2.9886 C.ar      1 <0>        -0.1116
     12 C9         -3.2414   -0.0523   -3.7966 C.ar      1 <0>        -0.0775
     13 C10        -2.6831   -1.2424   -3.3529 C.ar      1 <0>        -0.0937
     14 C11        -2.2395   -3.7241   -1.5579 C.ar      1 <0>        -0.0782
     15 C12        -3.5690   -3.7435   -1.1790 C.ar      1 <0>        -0.0929
     16 C13        -4.3151   -4.8969   -1.3312 C.ar      1 <0>        -0.0928
     17 C14        -3.7317   -6.0328   -1.8634 C.ar      1 <0>        -0.0256
     18 C15        -2.4005   -6.0133   -2.2432 C.ar      1 <0>        -0.0294
     19 C16        -1.6566   -4.8563   -2.0949 C.ar      1 <0>        -0.0903
     20 Cl1        -1.6668   -7.4381   -2.9107 Cl        1 <0>        -0.0332
     21 Cl2        -4.6682   -7.4821   -2.0544 Cl        1 <0>        -0.0321
     22 H3          1.0047    1.8421    0.0024 H         1 <0>         0.1282
     23 H4         -0.5450    1.8259   -0.8730 H         1 <0>         0.1233
     24 H5         -0.5280    1.8163    0.9069 H         1 <0>         0.1251
     25 H6          0.4744   -0.3295   -0.8281 H         1 <0>         0.4282
     26 H7         -0.4652   -2.4171    0.5685 H         1 <0>         0.1062
     27 H8         -2.2596   -2.4121    0.6267 H         1 <0>         0.1225
     28 H9         -2.6025    1.8788   -1.1085 H         1 <0>         0.1313
     29 H10        -3.6461    1.9952   -3.3334 H         1 <0>         0.1396
     30 H11        -3.6993   -0.0024   -4.7734 H         1 <0>         0.1394
     31 H12        -2.7065   -2.1190   -3.9833 H         1 <0>         0.1333
     32 H13        -4.0248   -2.8569   -0.7634 H         1 <0>         0.1360
     33 H14        -5.3534   -4.9115   -1.0344 H         1 <0>         0.1477
     34 H15        -0.6192   -4.8392   -2.3948 H         1 <0>         0.1440
     35 H16         0.4901   -0.3383    0.8195 H         1 <0>         0.4316
@<TRIPOS>BOND
     1    1    2 1
     2    1   22 1
     3    1   23 1
     4    1   24 1
     5    2    3 1
     6    2   25 1
     7    2   35 1
     8    3    4 1
     9    3    9 1
    10    3    5 1
    11    5    6 1
    12    5   26 1
    13    5   27 1
    14    6    7 1
    15    6    8 1
    16    6   14 1
    17    8   13 ar
    18    8    9 ar
    19    9   10 ar
    20   10   11 ar
    21   10   28 1
    22   11   12 ar
    23   11   29 1
    24   12   13 ar
    25   12   30 1
    26   13   31 1
    27   14   19 ar
    28   14   15 ar
    29   15   16 ar
    30   15   32 1
    31   16   17 ar
    32   16   33 1
    33   17   18 ar
    34   17   21 1
    35   18   19 ar
    36   18   20 1
    37   19   34 1
@<TRIPOS>MOLECULE
ZINC28016618
   38    40     0     0     0
SMALL
USER_CHARGES
methyl (1S,2S,3S,5R)-3-(4-iodophenyl)-8-azabicyclo[3.2.1]octane-2-carboxylate
@<TRIPOS>ATOM
      1 C1          1.8402    3.9910    4.8111 C.3       1 <0>         0.0238
      2 O1          2.0930    4.7913    3.6262 O.3       1 <0>        -0.3646
      3 C2          2.2156    4.1345    2.4620 C.2       1 <0>         0.4740
      4 O2          2.1150    2.9308    2.4340 O.2       1 <0>        -0.4785
      5 C3          2.4786    4.8985    1.1900 C.3       1 <0>        -0.1019
      6 H1          3.5493    4.8123    0.9529 H         1 <0>         0.1456
      7 C4          2.0884    6.3725    1.3846 C.3       1 <0>         0.0447
      8 H2          2.5848    6.7983    2.2691 H         1 <0>         0.1644
      9 C5          0.5449    6.4513    1.4275 C.3       1 <0>        -0.2091
     10 C6          0.1169    6.6213   -0.0450 C.3       1 <0>        -0.2116
     11 C7          1.4405    6.6297   -0.8438 C.3       1 <0>         0.0504
     12 H3          1.4179    7.2615   -1.7440 H         1 <0>         0.1560
     13 N1          2.4567    7.0943    0.1376 N.4       1 <0>        -0.5440
     14 C8          1.7837    5.1744   -1.2005 C.3       1 <0>        -0.1421
     15 C9          1.6375    4.3088    0.0543 C.3       1 <0>        -0.0477
     16 H4          1.9710    3.2829   -0.1610 H         1 <0>         0.1330
     17 C10         0.1897    4.2702    0.4707 C.ar      1 <0>        -0.0773
     18 C11        -0.1421    4.1200    1.8043 C.ar      1 <0>        -0.1343
     19 C12        -1.4699    4.0845    2.1865 C.ar      1 <0>        -0.0934
     20 C13        -2.4666    4.1946    1.2342 C.ar      1 <0>        -0.0843
     21 C14        -2.1344    4.3501   -0.0992 C.ar      1 <0>        -0.0975
     22 C15        -0.8064    4.3855   -0.4809 C.ar      1 <0>        -0.1013
     23 I1         -4.4794    4.1329    1.8122 I         1 <0>        -0.0153
     24 H5          1.7621    4.6497    5.6886 H         1 <0>         0.1179
     25 H6          2.6679    3.2815    4.9577 H         1 <0>         0.0771
     26 H7          0.8992    3.4356    4.6845 H         1 <0>         0.0725
     27 H8          0.1425    5.5254    1.8644 H         1 <0>         0.1631
     28 H9          0.2385    7.3103    2.0425 H         1 <0>         0.0991
     29 H10        -0.5303    5.7815   -0.3380 H         1 <0>         0.1704
     30 H11        -0.4342    7.5663   -0.1599 H         1 <0>         0.0965
     31 H12         2.4048    8.1790    0.3129 H         1 <0>         0.4565
     32 H13         1.0966    4.8165   -1.9814 H         1 <0>         0.1251
     33 H14         2.8184    5.1217   -1.5702 H         1 <0>         0.1039
     34 H15         0.6364    4.0299    2.5475 H         1 <0>         0.1517
     35 H16        -1.7290    3.9664    3.2283 H         1 <0>         0.1380
     36 H17        -2.9126    4.4399   -0.8428 H         1 <0>         0.1427
     37 H18        -0.5470    4.5029   -1.5227 H         1 <0>         0.1472
     38 H19         3.4802    6.8190   -0.1568 H         1 <0>         0.4495
@<TRIPOS>BOND
     1    1    2 1
     2    1   24 1
     3    1   25 1
     4    1   26 1
     5    2    3 1
     6    3    4 2
     7    3    5 1
     8    5    6 1
     9    5   15 1
    10    5    7 1
    11    7    8 1
    12    7   13 1
    13    7    9 1
    14    9   10 1
    15    9   27 1
    16    9   28 1
    17   10   11 1
    18   10   29 1
    19   10   30 1
    20   11   12 1
    21   11   13 1
    22   11   14 1
    23   13   31 1
    24   13   38 1
    25   14   15 1
    26   14   32 1
    27   14   33 1
    28   15   16 1
    29   15   17 1
    30   17   22 ar
    31   17   18 ar
    32   18   19 ar
    33   18   34 1
    34   19   20 ar
    35   19   35 1
    36   20   21 ar
    37   20   23 1
    38   21   22 ar
    39   21   36 1
    40   22   37 1
@<TRIPOS>MOLECULE
ZINC33744856
   38    40     0     0     0
SMALL
USER_CHARGES
methyl (1S,2R,3S,5R)-3-(4-iodophenyl)-8-azabicyclo[3.2.1]octane-2-carboxylate
@<TRIPOS>ATOM
      1 C1          0.0478   -0.0270   -0.2278 C.3       1 <0>         0.0254
      2 O1          0.0155    1.4246   -0.2273 O.3       1 <0>        -0.3540
      3 C2          1.1936    2.0604   -0.1292 C.2       1 <0>         0.4359
      4 O2          2.2179    1.4249   -0.0465 O.2       1 <0>        -0.4738
      5 C3          1.2387    3.5667   -0.1222 C.3       1 <0>        -0.1024
      6 H1          0.8105    3.9274   -1.0691 H         1 <0>         0.1574
      7 C4          0.4301    4.1004    1.0712 C.3       1 <0>         0.0490
      8 H2         -0.6417    3.8854    0.9490 H         1 <0>         0.1634
      9 C5          0.7586    5.6027    1.2310 C.3       1 <0>        -0.2060
     10 C6          1.9909    5.6412    2.1586 C.3       1 <0>        -0.2086
     11 C7          2.2950    4.1587    2.4749 C.3       1 <0>         0.0486
     12 H3          2.7118    3.9864    3.4782 H         1 <0>         0.1532
     13 N1          0.9879    3.4718    2.2981 N.4       1 <0>        -0.5484
     14 C8          3.2517    3.6337    1.3924 C.3       1 <0>        -0.1495
     15 C9          2.6901    4.0358    0.0131 C.3       1 <0>        -0.0406
     16 H4          3.2926    3.5811   -0.7871 H         1 <0>         0.1283
     17 C10         2.7473    5.5353   -0.1252 C.ar      1 <0>        -0.0748
     18 C11         1.8189    6.1928   -0.9106 C.ar      1 <0>        -0.1102
     19 C12         1.8676    7.5687   -1.0331 C.ar      1 <0>        -0.0952
     20 C13         2.8518    8.2866   -0.3784 C.ar      1 <0>        -0.0852
     21 C14         3.7838    7.6281    0.4028 C.ar      1 <0>        -0.0963
     22 C15         3.7314    6.2526    0.5290 C.ar      1 <0>        -0.1018
     23 I1          2.9312   10.3713   -0.5706 I         1 <0>        -0.0163
     24 H5         -0.9774   -0.4165   -0.3128 H         1 <0>         0.1173
     25 H6          0.4991   -0.3840    0.7097 H         1 <0>         0.0711
     26 H7          0.6461   -0.3801   -1.0806 H         1 <0>         0.0765
     27 H8          0.9776    6.0371    0.2444 H         1 <0>         0.1692
     28 H9         -0.1031    6.1211    1.6767 H         1 <0>         0.1000
     29 H10         2.8284    6.1262    1.6357 H         1 <0>         0.1712
     30 H11         1.7476    6.2101    3.0681 H         1 <0>         0.0965
     31 H12         0.3050    3.6466    3.1425 H         1 <0>         0.4566
     32 H13         4.2481    4.0765    1.5376 H         1 <0>         0.1230
     33 H14         3.3230    2.5385    1.4659 H         1 <0>         0.1095
     34 H15         1.0528    5.6317   -1.4251 H         1 <0>         0.1424
     35 H16         1.1394    8.0828   -1.6429 H         1 <0>         0.1415
     36 H17         4.5523    8.1885    0.9144 H         1 <0>         0.1417
     37 H18         4.4592    5.7383    1.1390 H         1 <0>         0.1462
     38 H19         1.1016    2.3897    2.1365 H         1 <0>         0.4394
@<TRIPOS>BOND
     1    1    2 1
     2    1   24 1
     3    1   25 1
     4    1   26 1
     5    2    3 1
     6    3    4 2
     7    3    5 1
     8    5    6 1
     9    5   15 1
    10    5    7 1
    11    7    8 1
    12    7   13 1
    13    7    9 1
    14    9   10 1
    15    9   27 1
    16    9   28 1
    17   10   11 1
    18   10   29 1
    19   10   30 1
    20   11   12 1
    21   11   13 1
    22   11   14 1
    23   13   31 1
    24   13   38 1
    25   14   15 1
    26   14   32 1
    27   14   33 1
    28   15   16 1
    29   15   17 1
    30   17   22 ar
    31   17   18 ar
    32   18   19 ar
    33   18   34 1
    34   19   20 ar
    35   19   35 1
    36   20   21 ar
    37   20   23 1
    38   21   22 ar
    39   21   36 1
    40   22   37 1
@<TRIPOS>MOLECULE
ZINC13283420
   37    39     0     0     0
SMALL
USER_CHARGES
2,4-dibenzylpyridine
@<TRIPOS>ATOM
      1 C1         -2.5361    2.8269    4.0567 C.ar      1 <0>        -0.1212
      2 C2         -1.7406    3.7516    3.4064 C.ar      1 <0>        -0.1175
      3 C3         -1.3475    3.5281    2.1002 C.ar      1 <0>        -0.1133
      4 C4         -1.7499    2.3797    1.4442 C.ar      1 <0>        -0.0804
      5 C5         -2.5497    1.4575    2.0927 C.ar      1 <0>        -0.1134
      6 C6         -2.9385    1.6786    3.4007 C.ar      1 <0>        -0.1175
      7 C7         -1.3217    2.1362    0.0200 C.3       1 <0>        -0.0443
      8 C8         -0.0167    1.3825    0.0096 C.ar      1 <0>        -0.0282
      9 C9          0.0021   -0.0041    0.0020 C.ar      1 <0>        -0.1737
     10 C10         1.2177   -0.6609   -0.0131 C.ar      1 <0>         0.1068
     11 N1          2.3499    0.0154   -0.0199 N.ar      1 <0>        -0.4774
     12 C11         2.3701    1.3338   -0.0130 C.ar      1 <0>         0.1389
     13 C12         1.1934    2.0588    0.0017 C.ar      1 <0>        -0.1650
     14 C13         3.6914    2.0585   -0.0212 C.3       1 <0>        -0.0317
     15 C14         4.5343    1.5792    1.1325 C.ar      1 <0>        -0.0753
     16 C15         4.4599    2.2191    2.3555 C.ar      1 <0>        -0.1162
     17 C16         5.2296    1.7765    3.4151 C.ar      1 <0>        -0.1222
     18 C17         6.0811    0.7003    3.2488 C.ar      1 <0>        -0.1222
     19 C18         6.1597    0.0640    2.0241 C.ar      1 <0>        -0.1215
     20 C19         5.3862    0.5033    0.9660 C.ar      1 <0>        -0.0944
     21 H1         -2.8436    3.0017    5.0772 H         1 <0>         0.1222
     22 H2         -1.4265    4.6490    3.9188 H         1 <0>         0.1228
     23 H3         -0.7262    4.2507    1.5920 H         1 <0>         0.1210
     24 H4         -2.8677    0.5625    1.5788 H         1 <0>         0.1212
     25 H5         -3.5603    0.9563    3.9087 H         1 <0>         0.1229
     26 H6         -1.1936    3.0914   -0.4893 H         1 <0>         0.0875
     27 H7         -2.0839    1.5501   -0.4934 H         1 <0>         0.0879
     28 H8         -0.9217   -0.5635    0.0082 H         1 <0>         0.1328
     29 H9          1.2409   -1.7407   -0.0191 H         1 <0>         0.1555
     30 H10         1.2164    3.1385    0.0069 H         1 <0>         0.1325
     31 H11         4.2102    1.8574   -0.9584 H         1 <0>         0.0929
     32 H12         3.5185    3.1303    0.0758 H         1 <0>         0.0886
     33 H13         3.7977    3.0625    2.4843 H         1 <0>         0.1182
     34 H14         5.1684    2.2739    4.3718 H         1 <0>         0.1200
     35 H15         6.6851    0.3569    4.0755 H         1 <0>         0.1199
     36 H16         6.8252   -0.7765    1.8940 H         1 <0>         0.1211
     37 H17         5.4476    0.0062    0.0092 H         1 <0>         0.1229
@<TRIPOS>BOND
     1    1    6 ar
     2    1    2 ar
     3    1   21 1
     4    2    3 ar
     5    2   22 1
     6    3    4 ar
     7    3   23 1
     8    4    5 ar
     9    4    7 1
    10    5    6 ar
    11    5   24 1
    12    6   25 1
    13    7    8 1
    14    7   26 1
    15    7   27 1
    16    8   13 ar
    17    8    9 ar
    18    9   10 ar
    19    9   28 1
    20   10   11 ar
    21   10   29 1
    22   11   12 ar
    23   12   13 ar
    24   12   14 1
    25   13   30 1
    26   14   15 1
    27   14   31 1
    28   14   32 1
    29   15   20 ar
    30   15   16 ar
    31   16   17 ar
    32   16   33 1
    33   17   18 ar
    34   17   34 1
    35   18   19 ar
    36   18   35 1
    37   19   20 ar
    38   19   36 1
    39   20   37 1
@<TRIPOS>MOLECULE
ZINC00056643
   45    47     0     0     0
SMALL
USER_CHARGES

@<TRIPOS>ATOM
      1 C1         -0.0178    1.4648    0.0101 C.3       1 <0>        -0.0474
      2 N1          0.0021   -0.0041    0.0020 N.4       1 <0>        -0.3866
      3 C2          0.6815   -0.4760   -1.2105 C.3       1 <0>        -0.0024
      4 C3          0.6339   -2.0045   -1.2642 C.3       1 <0>        -0.1468
      5 C4          1.3359   -2.5754   -0.0287 C.3       1 <0>         0.0815
      6 C5          0.6658   -2.0178    1.2303 C.3       1 <0>        -0.1743
      7 C6          0.7122   -0.4888    1.1916 C.3       1 <0>        -0.0034
      8 O1          1.2304   -4.0005   -0.0350 O.3       1 <0>        -0.3515
      9 C7          2.3254   -4.6672    0.5963 C.3       1 <0>         0.1808
     10 C8          2.0219   -4.8560    2.0603 C.ar      1 <0>        -0.1176
     11 C9          0.7487   -5.2152    2.4616 C.ar      1 <0>        -0.0935
     12 C10         0.4704   -5.3884    3.8045 C.ar      1 <0>        -0.1209
     13 C11         1.4653   -5.2029    4.7461 C.ar      1 <0>        -0.1107
     14 C12         2.7387   -4.8446    4.3448 C.ar      1 <0>        -0.1173
     15 C13         3.0181   -4.6756    3.0016 C.ar      1 <0>        -0.1111
     16 C14         2.5352   -6.0120   -0.0507 C.ar      1 <0>        -0.0942
     17 C15         1.4502   -6.7347   -0.5102 C.ar      1 <0>        -0.0910
     18 C16         1.6426   -7.9683   -1.1037 C.ar      1 <0>        -0.1207
     19 C17         2.9202   -8.4788   -1.2381 C.ar      1 <0>        -0.1097
     20 C18         4.0053   -7.7556   -0.7794 C.ar      1 <0>        -0.1169
     21 C19         3.8132   -6.5202   -0.1898 C.ar      1 <0>        -0.1079
     22 H1          1.0047    1.8421    0.0024 H         1 <0>         0.1219
     23 H2         -0.5450    1.8259   -0.8730 H         1 <0>         0.1250
     24 H3         -0.5280    1.8163    0.9069 H         1 <0>         0.1245
     25 H4          0.1827   -0.0663   -2.0888 H         1 <0>         0.1371
     26 H5          1.7201   -0.1456   -1.1964 H         1 <0>         0.1299
     27 H6         -0.4044   -2.3361   -1.2786 H         1 <0>         0.0982
     28 H7          1.1404   -2.3531   -2.1643 H         1 <0>         0.1193
     29 H8          2.3869   -2.2866   -0.0407 H         1 <0>         0.0784
     30 H9         -0.3718   -2.3496    1.2677 H         1 <0>         0.0974
     31 H10         1.1951   -2.3758    2.1133 H         1 <0>         0.1157
     32 H11         1.7502   -0.1581    1.1545 H         1 <0>         0.1288
     33 H12         0.2361   -0.0886    2.0867 H         1 <0>         0.1338
     34 H13         3.2283   -4.0665    0.4870 H         1 <0>         0.0802
     35 H14        -0.0286   -5.3601    1.7259 H         1 <0>         0.1239
     36 H15        -0.5245   -5.6682    4.1180 H         1 <0>         0.1246
     37 H16         1.2476   -5.3375    5.7953 H         1 <0>         0.1254
     38 H17         3.5159   -4.6994    5.0805 H         1 <0>         0.1261
     39 H18         4.0139   -4.3994    2.6877 H         1 <0>         0.1213
     40 H19         0.4520   -6.3359   -0.4053 H         1 <0>         0.1240
     41 H20         0.7949   -8.5333   -1.4621 H         1 <0>         0.1254
     42 H21         3.0705   -9.4429   -1.7012 H         1 <0>         0.1262
     43 H22         5.0034   -8.1547   -0.8841 H         1 <0>         0.1271
     44 H23         4.6613   -5.9535    0.1653 H         1 <0>         0.1211
     45 H24        -0.9449   -0.3523    0.0117 H         1 <0>         0.4262
@<TRIPOS>BOND
     1    1    2 1
     2    1   22 1
     3    1   23 1
     4    1   24 1
     5    2    7 1
     6    2    3 1
     7    2   45 1
     8    3    4 1
     9    3   25 1
    10    3   26 1
    11    4    5 1
    12    4   27 1
    13    4   28 1
    14    5    6 1
    15    5    8 1
    16    5   29 1
    17    6    7 1
    18    6   30 1
    19    6   31 1
    20    7   32 1
    21    7   33 1
    22    8    9 1
    23    9   10 1
    24    9   16 1
    25    9   34 1
    26   10   15 ar
    27   10   11 ar
    28   11   12 ar
    29   11   35 1
    30   12   13 ar
    31   12   36 1
    32   13   14 ar
    33   13   37 1
    34   14   15 ar
    35   14   38 1
    36   15   39 1
    37   16   21 ar
    38   16   17 ar
    39   17   18 ar
    40   17   40 1
    41   18   19 ar
    42   18   41 1
    43   19   20 ar
    44   19   42 1
    45   20   21 ar
    46   20   43 1
    47   21   44 1
@<TRIPOS>MOLECULE
ZINC13530804
   42    44     0     0     0
SMALL
USER_CHARGES
4-[(S)-(2-fluorophenoxy)-phenyl-methyl]piperidine
@<TRIPOS>ATOM
      1 C1         -0.1884    0.9303   -0.5766 C.ar      1 <0>        -0.1048
      2 C2          0.9164    1.7612   -0.5712 C.ar      1 <0>        -0.1178
      3 C3          2.1803    1.2295   -0.3965 C.ar      1 <0>        -0.0983
      4 C4          2.3396   -0.1332   -0.2271 C.ar      1 <0>        -0.1320
      5 C5          1.2348   -0.9641   -0.2320 C.ar      1 <0>        -0.1082
      6 C6         -0.0292   -0.4323   -0.4067 C.ar      1 <0>        -0.1141
      7 C7          3.7175   -0.7129   -0.0365 C.3       1 <0>         0.1355
      8 H1          3.7207   -1.7549   -0.3562 H         1 <0>         0.0917
      9 C8          4.1051   -0.6316    1.4413 C.3       1 <0>        -0.0858
     10 C9          4.1087    0.8325    1.8896 C.3       1 <0>        -0.1490
     11 C10         4.5559    0.9124    3.3510 C.3       1 <0>        -0.0018
     12 C11         5.9118   -1.0809    3.1050 C.3       1 <0>        -0.0002
     13 C12         5.5051   -1.2203    1.6363 C.3       1 <0>        -0.1475
     14 O1          4.6579    0.0277   -0.8170 O.3       1 <0>        -0.3009
     15 C13         4.7921   -0.3276   -2.1225 C.ar      1 <0>         0.0911
     16 C14         3.9571   -1.2898   -2.6698 C.ar      1 <0>        -0.1755
     17 C15         4.0923   -1.6463   -3.9980 C.ar      1 <0>        -0.0872
     18 C16         5.0658   -1.0521   -4.7797 C.ar      1 <0>        -0.1184
     19 C17         5.9036   -0.0957   -4.2367 C.ar      1 <0>        -0.1152
     20 C18         5.7696    0.2686   -2.9090 C.ar      1 <0>         0.0700
     21 F1          6.5887    1.2025   -2.3778 F         1 <0>        -0.1346
     22 H2         -1.1754    1.3451   -0.7180 H         1 <0>         0.1279
     23 H3          0.7920    2.8258   -0.7039 H         1 <0>         0.1269
     24 H4          3.0434    1.8786   -0.3923 H         1 <0>         0.1249
     25 H5          1.3592   -2.0287   -0.0996 H         1 <0>         0.1236
     26 H6         -0.8923   -1.0815   -0.4109 H         1 <0>         0.1286
     27 H7          3.3870   -1.1944    2.0377 H         1 <0>         0.1075
     28 H8          4.7981    1.4022    1.2664 H         1 <0>         0.0987
     29 H9          3.1044    1.2451    1.7933 H         1 <0>         0.1171
     30 H10         3.8584    0.3540    3.9753 H         1 <0>         0.1294
     31 H11         4.5733    1.9549    3.6689 H         1 <0>         0.1332
     32 H12         5.2079   -1.6300    3.7305 H         1 <0>         0.1300
     33 H13         6.9140   -1.4862    3.2444 H         1 <0>         0.1336
     34 H14         5.4984   -2.2744    1.3590 H         1 <0>         0.1121
     35 H15         6.2163   -0.6834    1.0086 H         1 <0>         0.0985
     36 H16         3.1990   -1.7578   -2.0594 H         1 <0>         0.1367
     37 H17         3.4394   -2.3931   -4.4250 H         1 <0>         0.1357
     38 H18         5.1721   -1.3359   -5.8163 H         1 <0>         0.1395
     39 H19         6.6632    0.3670   -4.8494 H         1 <0>         0.1458
     40 N1          5.9102    0.3437    3.4887 N.4       1 <0>        -0.5171
     41 H20         6.2163    0.4314    4.4648 H         1 <0>         0.4362
     42 H21         6.5568    0.8587    2.8796 H         1 <0>         0.4339
@<TRIPOS>BOND
     1    1    6 ar
     2    1    2 ar
     3    1   22 1
     4    2    3 ar
     5    2   23 1
     6    3    4 ar
     7    3   24 1
     8    4    5 ar
     9    4    7 1
    10    5    6 ar
    11    5   25 1
    12    6   26 1
    13    7    8 1
    14    7    9 1
    15    7   14 1
    16    9   13 1
    17    9   10 1
    18    9   27 1
    19   10   11 1
    20   10   28 1
    21   10   29 1
    22   11   30 1
    23   11   31 1
    24   11   40 1
    25   12   13 1
    26   12   32 1
    27   12   33 1
    28   12   40 1
    29   13   34 1
    30   13   35 1
    31   14   15 1
    32   15   20 ar
    33   15   16 ar
    34   16   17 ar
    35   16   36 1
    36   17   18 ar
    37   17   37 1
    38   18   19 ar
    39   18   38 1
    40   19   20 ar
    41   19   39 1
    42   20   21 1
    43   40   41 1
    44   40   42 1
@<TRIPOS>MOLECULE
ZINC13530807
   42    44     0     0     0
SMALL
USER_CHARGES
4-[(R)-(2-fluorophenoxy)-phenyl-methyl]piperidine
@<TRIPOS>ATOM
      1 C1          1.3194    2.6625   -0.1742 C.ar      1 <0>        -0.1046
      2 C2          0.2835    1.7483   -0.1287 C.ar      1 <0>        -0.1153
      3 C3         -1.0254    2.1891   -0.0717 C.ar      1 <0>        -0.0919
      4 C4         -1.2980    3.5441   -0.0492 C.ar      1 <0>        -0.1332
      5 C5         -0.2622    4.4584   -0.0951 C.ar      1 <0>        -0.1125
      6 C6          1.0465    4.0176   -0.1574 C.ar      1 <0>        -0.1162
      7 C7         -2.7247    4.0247    0.0192 C.3       1 <0>         0.1380
      8 H1         -2.7445    5.0548    0.3751 H         1 <0>         0.0864
      9 C8         -3.3540    3.9541   -1.3736 C.3       1 <0>        -0.0909
     10 C9         -2.5647    4.8443   -2.3374 C.3       1 <0>        -0.1435
     11 C10        -3.2352    4.8186   -3.7129 C.3       1 <0>         0.0005
     12 C11        -5.4075    4.4298   -2.7117 C.3       1 <0>        -0.0012
     13 C12        -4.8027    4.4451   -1.3060 C.3       1 <0>        -0.1451
     14 O1         -3.4639    3.1959    0.9185 O.3       1 <0>        -0.2970
     15 C13        -3.3958    3.5054    2.2406 C.ar      1 <0>         0.0906
     16 C14        -2.5450    4.5101    2.6758 C.ar      1 <0>        -0.1774
     17 C15        -2.4805    4.8260    4.0195 C.ar      1 <0>        -0.0890
     18 C16        -3.2557    4.1348    4.9322 C.ar      1 <0>        -0.1187
     19 C17        -4.1018    3.1291    4.5031 C.ar      1 <0>        -0.1149
     20 C18        -4.1740    2.8118    3.1586 C.ar      1 <0>         0.0724
     21 F1         -5.0000    1.8284    2.7391 F         1 <0>        -0.1317
     22 H2          2.3418    2.3181   -0.2232 H         1 <0>         0.1280
     23 H3          0.4967    0.6896   -0.1421 H         1 <0>         0.1277
     24 H4         -1.8349    1.4748   -0.0407 H         1 <0>         0.1255
     25 H5         -0.4754    5.5171   -0.0821 H         1 <0>         0.1214
     26 H6          1.8558    4.7319   -0.1933 H         1 <0>         0.1280
     27 H7         -3.3347    2.9243   -1.7302 H         1 <0>         0.1028
     28 H8         -2.5504    5.8666   -1.9596 H         1 <0>         0.0918
     29 H9         -1.5435    4.4728   -2.4224 H         1 <0>         0.1189
     30 H10        -3.2358    3.7984   -4.0966 H         1 <0>         0.1315
     31 H11        -2.6845    5.4636   -4.3975 H         1 <0>         0.1353
     32 H12        -5.3979    3.4114   -3.1001 H         1 <0>         0.1316
     33 H13        -6.4345    4.7924   -2.6692 H         1 <0>         0.1346
     34 H14        -5.3795    3.7886   -0.6545 H         1 <0>         0.1205
     35 H15        -4.8247    5.4610   -0.9115 H         1 <0>         0.0891
     36 H16        -1.9359    5.0480    1.9645 H         1 <0>         0.1354
     37 H17        -1.8206    5.6111    4.3578 H         1 <0>         0.1350
     38 H18        -3.2000    4.3808    5.9823 H         1 <0>         0.1394
     39 H19        -4.7063    2.5906    5.2180 H         1 <0>         0.1464
     40 N1         -4.6226    5.3076   -3.6006 N.4       1 <0>        -0.5173
     41 H20        -5.0540    5.3183   -4.5323 H         1 <0>         0.4374
     42 H21        -4.6156    6.2595   -3.2157 H         1 <0>         0.4322
@<TRIPOS>BOND
     1    1    6 ar
     2    1    2 ar
     3    1   22 1
     4    2    3 ar
     5    2   23 1
     6    3    4 ar
     7    3   24 1
     8    4    5 ar
     9    4    7 1
    10    5    6 ar
    11    5   25 1
    12    6   26 1
    13    7    8 1
    14    7    9 1
    15    7   14 1
    16    9   13 1
    17    9   10 1
    18    9   27 1
    19   10   11 1
    20   10   28 1
    21   10   29 1
    22   11   30 1
    23   11   31 1
    24   11   40 1
    25   12   13 1
    26   12   32 1
    27   12   33 1
    28   12   40 1
    29   13   34 1
    30   13   35 1
    31   14   15 1
    32   15   20 ar
    33   15   16 ar
    34   16   17 ar
    35   16   36 1
    36   17   18 ar
    37   17   37 1
    38   18   19 ar
    39   18   38 1
    40   19   20 ar
    41   19   39 1
    42   20   21 1
    43   40   41 1
    44   40   42 1
@<TRIPOS>MOLECULE
ZINC04521076
   34    36     0     0     0
SMALL
USER_CHARGES
4-benzhydrylpyridine
@<TRIPOS>ATOM
      1 C1          0.5964    4.2079   -0.3894 C.ar      1 <0>        -0.1182
      2 C2          1.6831    3.3535   -0.3906 C.ar      1 <0>        -0.1177
      3 C3          1.4908    1.9905   -0.2637 C.ar      1 <0>        -0.1123
      4 C4          0.2117    1.4819   -0.1360 C.ar      1 <0>        -0.0758
      5 C5         -0.8753    2.3358   -0.1405 C.ar      1 <0>        -0.1059
      6 C6         -0.6827    3.6993   -0.2622 C.ar      1 <0>        -0.1183
      7 C7          0.0021   -0.0041    0.0020 C.3       1 <0>         0.0304
      8 C8         -0.8210   -0.2831    1.2332 C.ar      1 <0>        -0.0788
      9 C9         -0.7887    0.5955    2.2999 C.ar      1 <0>        -0.1063
     10 C10        -1.5474    0.3421    3.4273 C.ar      1 <0>        -0.1186
     11 C11        -2.3307   -0.7951    3.4920 C.ar      1 <0>        -0.1185
     12 C12        -2.3587   -1.6766    2.4275 C.ar      1 <0>        -0.1182
     13 C13        -1.6040   -1.4204    1.2980 C.ar      1 <0>        -0.1091
     14 C14        -0.7204   -0.5245   -1.2138 C.ar      1 <0>        -0.0257
     15 C15        -2.0402   -0.1768   -1.4580 C.ar      1 <0>        -0.1602
     16 C16        -2.6690   -0.6700   -2.5856 C.ar      1 <0>         0.1000
     17 N1         -2.0313   -1.4694   -3.4183 N.ar      1 <0>        -0.4856
     18 C17        -0.7776   -1.8247   -3.2153 C.ar      1 <0>         0.1014
     19 C18        -0.0829   -1.3669   -2.1118 C.ar      1 <0>        -0.1688
     20 H1          0.7467    5.2729   -0.4883 H         1 <0>         0.1226
     21 H2          2.6823    3.7509   -0.4904 H         1 <0>         0.1237
     22 H3          2.3398    1.3230   -0.2646 H         1 <0>         0.1228
     23 H4         -1.8749    1.9380   -0.0452 H         1 <0>         0.1217
     24 H5         -1.5317    4.3668   -0.2616 H         1 <0>         0.1231
     25 H6          0.9683   -0.5007    0.0907 H         1 <0>         0.1019
     26 H7         -0.1735    1.4818    2.2511 H         1 <0>         0.1237
     27 H8         -1.5253    1.0306    4.2591 H         1 <0>         0.1226
     28 H9         -2.9206   -0.9950    4.3743 H         1 <0>         0.1221
     29 H10        -2.9704   -2.5652    2.4781 H         1 <0>         0.1224
     30 H11        -1.6258   -2.1091    0.4664 H         1 <0>         0.1190
     31 H12        -2.5692    0.4738   -0.7774 H         1 <0>         0.1334
     32 H13        -3.6958   -0.4013   -2.7848 H         1 <0>         0.1555
     33 H14        -0.2882   -2.4812   -3.9195 H         1 <0>         0.1566
     34 H15         0.9434   -1.6620   -1.9506 H         1 <0>         0.1352
@<TRIPOS>BOND
     1    1    6 ar
     2    1    2 ar
     3    1   20 1
     4    2    3 ar
     5    2   21 1
     6    3    4 ar
     7    3   22 1
     8    4    5 ar
     9    4    7 1
    10    5    6 ar
    11    5   23 1
    12    6   24 1
    13    7    8 1
    14    7   14 1
    15    7   25 1
    16    8   13 ar
    17    8    9 ar
    18    9   10 ar
    19    9   26 1
    20   10   11 ar
    21   10   27 1
    22   11   12 ar
    23   11   28 1
    24   12   13 ar
    25   12   29 1
    26   13   30 1
    27   14   19 ar
    28   14   15 ar
    29   15   16 ar
    30   15   31 1
    31   16   17 ar
    32   16   32 1
    33   17   18 ar
    34   18   19 ar
    35   18   33 1
    36   19   34 1
@<TRIPOS>MOLECULE
ZINC03800706
   46    48     0     0     0
SMALL
USER_CHARGES

@<TRIPOS>ATOM
      1 C1         -0.0178    1.4648    0.0101 C.3       1 <0>        -0.0477
      2 N1          0.0021   -0.0041    0.0020 N.4       1 <0>        -0.3873
      3 C2          0.7126   -0.4907    1.1921 C.3       1 <0>        -0.0533
      4 C3         -1.3761   -0.5125    0.0124 C.3       1 <0>        -0.0115
      5 C4         -1.3584   -2.0365   -0.1216 C.3       1 <0>        -0.1541
      6 C5         -2.7938   -2.5661   -0.1108 C.3       1 <0>        -0.1232
      7 C6         -2.7762   -4.0901   -0.2449 C.3       1 <0>         0.1992
      8 C7         -4.1888   -4.6236   -0.3096 C.ar      1 <0>        -0.0991
      9 C8         -5.1200   -4.6778   -1.3285 C.ar      1 <0>        -0.0822
     10 C9         -6.3628   -5.2329   -1.1018 C.ar      1 <0>        -0.0623
     11 C10        -6.6783   -5.7409    0.1602 C.ar      1 <0>        -0.0038
     12 C11        -5.7322   -5.6836    1.1861 C.ar      1 <0>        -0.0451
     13 C12        -4.4959   -5.1266    0.9466 C.ar      1 <0>        -0.1272
     14 C13        -3.2820   -4.9180    1.8221 C.3       1 <0>         0.0885
     15 O1         -2.1820   -4.6839    0.9239 O.3       1 <0>        -0.3402
     16 C14        -7.9666   -6.3178    0.4015 C.1       1 <0>         0.2390
     17 N2         -8.9886   -6.7754    0.5930 N.1       1 <0>        -0.3890
     18 C15        -2.0103   -4.4934   -1.4785 C.ar      1 <0>        -0.1013
     19 C16        -1.9792   -3.6548   -2.5771 C.ar      1 <0>        -0.0911
     20 C17        -1.2768   -4.0233   -3.7088 C.ar      1 <0>        -0.1554
     21 C18        -0.6042   -5.2331   -3.7421 C.ar      1 <0>         0.1115
     22 C19        -0.6360   -6.0722   -2.6412 C.ar      1 <0>        -0.1493
     23 C20        -1.3347   -5.6992   -1.5087 C.ar      1 <0>        -0.0583
     24 F1          0.0824   -5.5946   -4.8480 F         1 <0>        -0.1325
     25 H1          1.0047    1.8421    0.0024 H         1 <0>         0.1245
     26 H2         -0.5450    1.8259   -0.8730 H         1 <0>         0.1233
     27 H3         -0.5280    1.8163    0.9069 H         1 <0>         0.1220
     28 H4          0.2024   -0.1392    2.0889 H         1 <0>         0.1225
     29 H5          0.7273   -1.5806    1.1861 H         1 <0>         0.1260
     30 H6          1.7352   -0.1134    1.1844 H         1 <0>         0.1243
     31 H7         -1.8584   -0.2358    0.9500 H         1 <0>         0.1302
     32 H8         -1.9290   -0.0808   -0.8218 H         1 <0>         0.1307
     33 H9         -0.8762   -2.3132   -1.0592 H         1 <0>         0.0947
     34 H10        -0.8055   -2.4683    0.7126 H         1 <0>         0.0979
     35 H11        -3.2761   -2.2894    0.8267 H         1 <0>         0.0874
     36 H12        -3.3467   -2.1344   -0.9450 H         1 <0>         0.0914
     37 H13        -4.8751   -4.2847   -2.3041 H         1 <0>         0.1371
     38 H14        -7.0904   -5.2740   -1.8989 H         1 <0>         0.1444
     39 H15        -5.9698   -6.0744    2.1645 H         1 <0>         0.1413
     40 H16        -3.4295   -4.0531    2.4687 H         1 <0>         0.0856
     41 H17        -3.0941   -5.8085    2.4219 H         1 <0>         0.1096
     42 H18        -2.5043   -2.7113   -2.5510 H         1 <0>         0.1338
     43 H19        -1.2530   -3.3681   -4.5670 H         1 <0>         0.1401
     44 H20        -0.1120   -7.0162   -2.6661 H         1 <0>         0.1417
     45 H21        -1.3560   -6.3515   -0.6482 H         1 <0>         0.1404
     46 H22         0.4744   -0.3295   -0.8281 H         1 <0>         0.4271
@<TRIPOS>BOND
     1    1    2 1
     2    1   25 1
     3    1   26 1
     4    1   27 1
     5    2    3 1
     6    2    4 1
     7    2   46 1
     8    3   28 1
     9    3   29 1
    10    3   30 1
    11    4    5 1
    12    4   31 1
    13    4   32 1
    14    5    6 1
    15    5   33 1
    16    5   34 1
    17    6    7 1
    18    6   35 1
    19    6   36 1
    20    7   15 1
    21    7    8 1
    22    7   18 1
    23    8   13 ar
    24    8    9 ar
    25    9   10 ar
    26    9   37 1
    27   10   11 ar
    28   10   38 1
    29   11   12 ar
    30   11   16 1
    31   12   13 ar
    32   12   39 1
    33   13   14 1
    34   14   15 1
    35   14   40 1
    36   14   41 1
    37   16   17 3
    38   18   23 ar
    39   18   19 ar
    40   19   20 ar
    41   19   42 1
    42   20   21 ar
    43   20   43 1
    44   21   22 ar
    45   21   24 1
    46   22   23 ar
    47   22   44 1
    48   23   45 1
@<TRIPOS>MOLECULE
ZINC00025764
   42    44     0     0     0
SMALL
USER_CHARGES
4-[(4-fluorophenoxy)-phenyl-methyl]piperidine
@<TRIPOS>ATOM
      1 C1         -4.0221   -0.7238    1.8648 C.ar      1 <0>        -0.1046
      2 C2         -2.8507   -1.0569    2.5189 C.ar      1 <0>        -0.1138
      3 C3         -1.7113   -0.2987    2.3250 C.ar      1 <0>        -0.1082
      4 C4         -1.7431    0.7926    1.4771 C.ar      1 <0>        -0.1322
      5 C5         -2.9159    1.1288    0.8270 C.ar      1 <0>        -0.0992
      6 C6         -4.0540    0.3675    1.0169 C.ar      1 <0>        -0.1184
      7 C7         -0.5010    1.6194    1.2660 C.3       1 <0>         0.1356
      8 H1          0.1920    1.4509    2.0903 H         1 <0>         0.0906
      9 C8          0.1642    1.2136   -0.0506 C.3       1 <0>        -0.0865
     10 C9         -0.7567    1.5684   -1.2214 C.3       1 <0>        -0.1495
     11 C10        -0.0599    1.2150   -2.5373 C.3       1 <0>        -0.0024
     12 C11         2.1206    1.6003   -1.5529 C.3       1 <0>        -0.0007
     13 C12         1.4890    1.9652   -0.2076 C.3       1 <0>        -0.1472
     14 O1         -0.8530    3.0034    1.2151 O.3       1 <0>        -0.3048
     15 C13        -0.9693    3.6549    2.4026 C.ar      1 <0>         0.1125
     16 C14        -1.1893    5.0242    2.4246 C.ar      1 <0>        -0.1194
     17 C15        -1.3133    5.6839    3.6321 C.ar      1 <0>        -0.1136
     18 C16        -1.2064    4.9808    4.8200 C.ar      1 <0>         0.0725
     19 C17        -0.9806    3.6149    4.7996 C.ar      1 <0>        -0.1127
     20 C18        -0.8623    2.9517    3.5935 C.ar      1 <0>        -0.1728
     21 F1         -1.3228    5.6280    6.0002 F         1 <0>        -0.1346
     22 H2         -4.9125   -1.3159    2.0166 H         1 <0>         0.1279
     23 H3         -2.8259   -1.9092    3.1816 H         1 <0>         0.1286
     24 H4         -0.7962   -0.5587    2.8363 H         1 <0>         0.1234
     25 H5         -2.9420    1.9840    0.1680 H         1 <0>         0.1257
     26 H6         -4.9693    0.6279    0.5061 H         1 <0>         0.1269
     27 H7          0.3526    0.1400   -0.0478 H         1 <0>         0.1069
     28 H8         -1.6852    1.0036   -1.1381 H         1 <0>         0.1179
     29 H9         -0.9762    2.6358   -1.2011 H         1 <0>         0.0995
     30 H10        -0.7072    1.4796   -3.3734 H         1 <0>         0.1332
     31 H11         0.1469    0.1451   -2.5627 H         1 <0>         0.1293
     32 H12         3.0571    2.1447   -1.6741 H         1 <0>         0.1337
     33 H13         2.3171    0.5285   -1.5831 H         1 <0>         0.1300
     34 H14         1.3047    3.0389   -0.1713 H         1 <0>         0.0979
     35 H15         2.1649    1.6839    0.6000 H         1 <0>         0.1123
     36 H16        -1.2679    5.5737    1.4982 H         1 <0>         0.1399
     37 H17        -1.4898    6.7492    3.6495 H         1 <0>         0.1460
     38 H18        -0.8974    3.0676    5.7269 H         1 <0>         0.1409
     39 H19        -0.6869    1.8861    3.5778 H         1 <0>         0.1365
     40 N1          1.2039    1.9679   -2.6489 N.4       1 <0>        -0.5169
     41 H20         1.0039    2.9737   -2.5995 H         1 <0>         0.4333
     42 H21         1.6484    1.7511   -3.5487 H         1 <0>         0.4364
@<TRIPOS>BOND
     1    1    6 ar
     2    1    2 ar
     3    1   22 1
     4    2    3 ar
     5    2   23 1
     6    3    4 ar
     7    3   24 1
     8    4    5 ar
     9    4    7 1
    10    5    6 ar
    11    5   25 1
    12    6   26 1
    13    7    8 1
    14    7    9 1
    15    7   14 1
    16    9   13 1
    17    9   10 1
    18    9   27 1
    19   10   11 1
    20   10   28 1
    21   10   29 1
    22   11   30 1
    23   11   31 1
    24   11   40 1
    25   12   13 1
    26   12   32 1
    27   12   33 1
    28   12   40 1
    29   13   34 1
    30   13   35 1
    31   14   15 1
    32   15   20 ar
    33   15   16 ar
    34   16   17 ar
    35   16   36 1
    36   17   18 ar
    37   17   37 1
    38   18   19 ar
    39   18   21 1
    40   19   20 ar
    41   19   38 1
    42   20   39 1
    43   40   41 1
    44   40   42 1
