@<TRIPOS>MOLECULE
ZINC00020245
   46    48     0     0     0
SMALL
USER_CHARGES

@<TRIPOS>ATOM
      1 C1         -5.6836    1.3838    0.0162 C.3       1 <0>        -0.0473
      2 N1         -5.6620   -0.0833   -0.0564 N.4       1 <0>        -0.3868
      3 C2         -6.3713   -0.5242   -1.2649 C.3       1 <0>        -0.0522
      4 C3         -4.2702   -0.5505   -0.1076 C.3       1 <0>        -0.0086
      5 C4         -4.2434   -2.0795   -0.0575 C.3       1 <0>        -0.1781
      6 C5         -2.7938   -2.5661   -0.1108 C.3       1 <0>         0.1490
      7 N2         -2.7704   -4.0309   -0.1190 N.pl3     1 <0>        -0.6108
      8 C6         -2.7295   -4.7451   -1.3212 C.ar      1 <0>         0.1758
      9 C7         -1.6865   -4.4783   -2.2022 C.ar      1 <0>        -0.1411
     10 C8         -1.5734   -5.1772   -3.3856 C.ar      1 <0>        -0.1022
     11 C9         -2.5089   -6.1508   -3.6854 C.ar      1 <0>        -0.1266
     12 C10        -3.5489   -6.4041   -2.8209 C.ar      1 <0>        -0.1101
     13 C11        -3.6933   -5.6947   -1.6266 C.ar      1 <0>        -0.0998
     14 C12        -4.9357   -6.0340   -0.8354 C.3       1 <0>        -0.0687
     15 C13        -5.1005   -5.1892    0.4158 C.3       1 <0>        -0.0773
     16 C14        -3.9592   -5.4030    1.3779 C.ar      1 <0>        -0.0996
     17 C15        -2.7824   -4.7590    1.0748 C.ar      1 <0>         0.1523
     18 C16        -1.6837   -4.8488    1.9126 C.ar      1 <0>        -0.1184
     19 C17        -1.7825   -5.6251    3.0560 C.ar      1 <0>        -0.1094
     20 C18        -2.9565   -6.2950    3.3488 C.ar      1 <0>        -0.1165
     21 C19        -4.0679   -6.1865    2.5030 C.ar      1 <0>        -0.1028
     22 H1         -6.7163    1.7305    0.0542 H         1 <0>         0.1245
     23 H2         -5.1573    1.7109    0.9129 H         1 <0>         0.1235
     24 H3         -5.1933    1.7984   -0.8646 H         1 <0>         0.1221
     25 H4         -6.3552   -1.6128   -1.3188 H         1 <0>         0.1231
     26 H5         -7.4040   -0.1775   -1.2269 H         1 <0>         0.1246
     27 H6         -5.8810   -0.1096   -2.1457 H         1 <0>         0.1227
     28 H7         -3.8061   -0.2091   -1.0329 H         1 <0>         0.1308
     29 H8         -3.7207   -0.1494    0.7440 H         1 <0>         0.1320
     30 H9         -4.7075   -2.4209    0.8678 H         1 <0>         0.0908
     31 H10        -4.7929   -2.4806   -0.9091 H         1 <0>         0.0915
     32 H11        -2.3174   -2.1901   -1.0161 H         1 <0>         0.0824
     33 H12        -2.2550   -2.1990    0.7627 H         1 <0>         0.0801
     34 H13        -0.9599   -3.7176   -1.9576 H         1 <0>         0.1215
     35 H14        -0.7646   -4.9667   -4.0697 H         1 <0>         0.1276
     36 H15        -2.4229   -6.7145   -4.6025 H         1 <0>         0.1250
     37 H16        -4.2693   -7.1687   -3.0712 H         1 <0>         0.1222
     38 H17        -5.8074   -5.8880   -1.4734 H         1 <0>         0.0793
     39 H18        -4.8898   -7.0837   -0.5452 H         1 <0>         0.0765
     40 H19        -5.1365   -4.1371    0.1334 H         1 <0>         0.0724
     41 H20        -6.0358   -5.4578    0.9068 H         1 <0>         0.0709
     42 H21        -0.7686   -4.3248    1.6795 H         1 <0>         0.1257
     43 H22        -0.9372   -5.7074    3.7231 H         1 <0>         0.1275
     44 H23        -3.0178   -6.9071    4.2365 H         1 <0>         0.1269
     45 H24        -4.9880   -6.7067    2.7249 H         1 <0>         0.1290
     46 H25        -6.1159   -0.4671    0.7589 H         1 <0>         0.4268
@<TRIPOS>BOND
     1    1    2 1
     2    1   22 1
     3    1   23 1
     4    1   24 1
     5    2    3 1
     6    2    4 1
     7    2   46 1
     8    3   25 1
     9    3   26 1
    10    3   27 1
    11    4    5 1
    12    4   28 1
    13    4   29 1
    14    5    6 1
    15    5   30 1
    16    5   31 1
    17    6    7 1
    18    6   32 1
    19    6   33 1
    20    7   17 1
    21    7    8 1
    22    8   13 ar
    23    8    9 ar
    24    9   10 ar
    25    9   34 1
    26   10   11 ar
    27   10   35 1
    28   11   12 ar
    29   11   36 1
    30   12   13 ar
    31   12   37 1
    32   13   14 1
    33   14   15 1
    34   14   38 1
    35   14   39 1
    36   15   16 1
    37   15   40 1
    38   15   41 1
    39   16   21 ar
    40   16   17 ar
    41   17   18 ar
    42   18   19 ar
    43   18   42 1
    44   19   20 ar
    45   19   43 1
    46   20   21 ar
    47   20   44 1
    48   21   45 1
@<TRIPOS>MOLECULE
ZINC06019879
   43    46     0     0     0
SMALL
USER_CHARGES
(4-methylsulfanylphenyl)BLAH
@<TRIPOS>ATOM
      1 C1          0.0021   -0.0041    0.0020 C.3       1 <0>        -0.1514
      2 H1          0.5293   -0.3651    0.8851 H         1 <0>         0.0868
      3 H2         -1.0205   -0.3814    0.0098 H         1 <0>         0.1179
      4 H3          0.5123   -0.3556   -0.8948 H         1 <0>         0.0862
      5 S1         -0.0225    1.8097    0.0120 S.3       1 <0>        -0.0886
      6 C2          1.6811    2.2592   -0.0019 C.ar      1 <0>        -0.0705
      7 C3          2.6614    1.2741   -0.0108 C.ar      1 <0>        -0.1215
      8 C4          3.9954    1.6302   -0.0274 C.ar      1 <0>        -0.1067
      9 C5          4.3567    2.9652   -0.0232 C.ar      1 <0>        -0.1112
     10 C6          3.3840    3.9482   -0.0091 C.ar      1 <0>        -0.0775
     11 C7          2.0479    3.5997    0.0018 C.ar      1 <0>        -0.0840
     12 C8          5.8138    3.3496   -0.0346 C.3       1 <0>        -0.0262
     13 H4          5.8936    4.4366   -0.0503 H         1 <0>         0.1343
     14 C9          6.4700    2.7824   -1.2999 C.3       1 <0>         0.0149
     15 C10         7.1618    0.5464   -2.1909 C.3       1 <0>        -0.0051
     16 C11         7.7796   -0.7062   -1.5101 C.3       1 <0>        -0.1519
     17 C12         8.2096   -0.2222   -0.0999 C.3       1 <0>        -0.1449
     18 C13         7.8811    1.2718   -0.1069 C.3       1 <0>         0.0789
     19 H5          8.7316    1.8358   -0.4899 H         1 <0>         0.1481
     20 C14         7.4373    1.8390    1.2019 C.ar      1 <0>        -0.1312
     21 C15         6.4681    2.8294    1.2189 C.ar      1 <0>        -0.0827
     22 C16         6.0747    3.3670    2.4359 C.ar      1 <0>        -0.0946
     23 C17         6.6311    2.9168    3.6155 C.ar      1 <0>        -0.0909
     24 C18         7.5886    1.9202    3.5931 C.ar      1 <0>        -0.1033
     25 C19         7.9897    1.3843    2.3843 C.ar      1 <0>        -0.0865
     26 H6          2.3800    0.2314   -0.0092 H         1 <0>         0.1316
     27 H7          4.7577    0.8652   -0.0388 H         1 <0>         0.1008
     28 H8          3.6697    4.9897   -0.0062 H         1 <0>         0.1388
     29 H9          1.2888    4.3679    0.0129 H         1 <0>         0.1401
     30 H10         5.7932    2.8881   -2.1478 H         1 <0>         0.1434
     31 H11         7.4031    3.3086   -1.5014 H         1 <0>         0.1357
     32 H12         6.3043    0.2676   -2.8033 H         1 <0>         0.1393
     33 H13         7.9096    1.0673   -2.7888 H         1 <0>         0.1372
     34 H14         7.0360   -1.4990   -1.4286 H         1 <0>         0.1006
     35 H15         8.6463   -1.0545   -2.0720 H         1 <0>         0.1145
     36 H16         7.6365   -0.7360    0.6718 H         1 <0>         0.1008
     37 H17         9.2781   -0.3780    0.0485 H         1 <0>         0.1172
     38 H18         5.3260    4.1451    2.4601 H         1 <0>         0.1334
     39 H19         6.3180    3.3431    4.5571 H         1 <0>         0.1369
     40 H20         8.0214    1.5625    4.5156 H         1 <0>         0.1385
     41 H21         8.7382    0.6060    2.3635 H         1 <0>         0.1355
     42 N1          6.7673    1.3448   -1.0033 N.4       1 <0>        -0.4042
     43 H22         5.9360    0.9222   -0.5736 H         1 <0>         0.4214
@<TRIPOS>BOND
     1    1    2 1
     2    1    3 1
     3    1    4 1
     4    1    5 1
     5    5    6 1
     6    6   11 ar
     7    6    7 ar
     8    7    8 ar
     9    7   26 1
    10    8    9 ar
    11    8   27 1
    12    9   10 ar
    13    9   12 1
    14   10   11 ar
    15   10   28 1
    16   11   29 1
    17   12   13 1
    18   12   21 1
    19   12   14 1
    20   14   30 1
    21   14   31 1
    22   14   42 1
    23   15   16 1
    24   15   32 1
    25   15   33 1
    26   15   42 1
    27   16   17 1
    28   16   34 1
    29   16   35 1
    30   17   18 1
    31   17   36 1
    32   17   37 1
    33   18   19 1
    34   18   20 1
    35   18   42 1
    36   20   25 ar
    37   20   21 ar
    38   21   22 ar
    39   22   23 ar
    40   22   38 1
    41   23   24 ar
    42   23   39 1
    43   24   25 ar
    44   24   40 1
    45   25   41 1
    46   42   43 1
@<TRIPOS>MOLECULE
ZINC01530637
   41    42     0     0     0
SMALL
USER_CHARGES

@<TRIPOS>ATOM
      1 C1         -0.4120    1.0349    0.3013 C.3       1 <0>        -0.0488
      2 N1         -0.2330   -0.4168    0.1652 N.4       1 <0>        -0.5073
      3 C2          0.5049   -0.7054   -1.0718 C.3       1 <0>        -0.0229
      4 C3          0.6913   -2.2174   -1.2135 C.3       1 <0>        -0.1675
      5 C4          1.4598   -2.5179   -2.5019 C.3       1 <0>         0.1351
      6 H1          2.3976   -1.9623   -2.5036 H         1 <0>         0.0995
      7 C5          1.7506   -3.9945   -2.5806 C.ar      1 <0>        -0.1149
      8 C6          0.8070   -4.8578   -3.1052 C.ar      1 <0>        -0.0895
      9 C7          1.0737   -6.2123   -3.1773 C.ar      1 <0>        -0.1179
     10 C8          2.2842   -6.7034   -2.7252 C.ar      1 <0>        -0.1006
     11 C9          3.2282   -5.8399   -2.2014 C.ar      1 <0>        -0.1161
     12 C10         2.9632   -4.4849   -2.1333 C.ar      1 <0>        -0.1045
     13 O1          0.6724   -2.1269   -3.6285 O.3       1 <0>        -0.2928
     14 C11         0.8838   -0.8800   -4.1260 C.ar      1 <0>         0.1505
     15 C12         1.8748   -0.0745   -3.5841 C.ar      1 <0>        -0.2338
     16 C13         2.0880    1.1924   -4.0920 C.ar      1 <0>        -0.0253
     17 C14         1.3144    1.6580   -5.1391 C.ar      1 <0>        -0.2127
     18 C15         0.3257    0.8573   -5.6806 C.ar      1 <0>        -0.0216
     19 C16         0.1127   -0.4127   -5.1804 C.ar      1 <0>        -0.1468
     20 C17         1.5488    3.0406   -5.6908 C.3       1 <0>         0.5091
     21 F1          2.4914    2.9774   -6.7227 F         1 <0>        -0.1716
     22 F2          0.3464    3.5542   -6.1884 F         1 <0>        -0.1742
     23 F3          2.0262    3.8739   -4.6735 F         1 <0>        -0.1775
     24 H2          0.5637    1.5193    0.3388 H         1 <0>         0.1248
     25 H3         -0.9730    1.4134   -0.5531 H         1 <0>         0.1241
     26 H4         -0.9595    1.2490    1.2192 H         1 <0>         0.1296
     27 H5          0.2863   -0.7673    0.9561 H         1 <0>         0.4310
     28 H6         -0.0562   -0.3268   -1.9262 H         1 <0>         0.1339
     29 H7          1.4806   -0.2209   -1.0343 H         1 <0>         0.1355
     30 H8          1.2523   -2.5959   -0.3591 H         1 <0>         0.1101
     31 H9         -0.2844   -2.7018   -1.2511 H         1 <0>         0.1053
     32 H10        -0.1388   -4.4741   -3.4583 H         1 <0>         0.1283
     33 H11         0.3362   -6.8868   -3.5865 H         1 <0>         0.1298
     34 H12         2.4924   -7.7616   -2.7809 H         1 <0>         0.1301
     35 H13         4.1738   -6.2237   -1.8480 H         1 <0>         0.1308
     36 H14         3.7021   -3.8099   -1.7275 H         1 <0>         0.1243
     37 H15         2.4789   -0.4374   -2.7657 H         1 <0>         0.1409
     38 H16         2.8594    1.8199   -3.6705 H         1 <0>         0.1434
     39 H17        -0.2775    1.2233   -6.4983 H         1 <0>         0.1498
     40 H18        -0.6567   -1.0394   -5.6066 H         1 <0>         0.1488
     41 H19        -1.1362   -0.8653    0.1305 H         1 <0>         0.4318
@<TRIPOS>BOND
     1    1    2 1
     2    1   24 1
     3    1   25 1
     4    1   26 1
     5    2    3 1
     6    2   27 1
     7    2   41 1
     8    3    4 1
     9    3   28 1
    10    3   29 1
    11    4    5 1
    12    4   30 1
    13    4   31 1
    14    5    6 1
    15    5    7 1
    16    5   13 1
    17    7   12 ar
    18    7    8 ar
    19    8    9 ar
    20    8   32 1
    21    9   10 ar
    22    9   33 1
    23   10   11 ar
    24   10   34 1
    25   11   12 ar
    26   11   35 1
    27   12   36 1
    28   13   14 1
    29   14   19 ar
    30   14   15 ar
    31   15   16 ar
    32   15   37 1
    33   16   17 ar
    34   16   38 1
    35   17   18 ar
    36   17   20 1
    37   18   19 ar
    38   18   39 1
    39   19   40 1
    40   20   21 1
    41   20   22 1
    42   20   23 1
@<TRIPOS>MOLECULE
ZINC01530638
   41    42     0     0     0
SMALL
USER_CHARGES

@<TRIPOS>ATOM
      1 C1         -0.0117    1.2584    0.2941 C.3       1 <0>        -0.0489
      2 N1          0.0187   -0.2059    0.1807 N.4       1 <0>        -0.5073
      3 C2          0.6940   -0.5864   -1.0672 C.3       1 <0>        -0.0223
      4 C3          0.7257   -2.1115   -1.1853 C.3       1 <0>        -0.1659
      5 C4          1.4290   -2.5079   -2.4850 C.3       1 <0>         0.1346
      6 H1          0.9406   -2.0169   -3.3267 H         1 <0>         0.0995
      7 C5          1.3524   -4.0025   -2.6620 C.ar      1 <0>        -0.1166
      8 C6          2.2239   -4.8256   -1.9736 C.ar      1 <0>        -0.0896
      9 C7          2.1536   -6.1966   -2.1360 C.ar      1 <0>        -0.1183
     10 C8          1.2115   -6.7445   -2.9863 C.ar      1 <0>        -0.1002
     11 C9          0.3394   -5.9215   -3.6740 C.ar      1 <0>        -0.1161
     12 C10         0.4069   -4.5507   -3.5084 C.ar      1 <0>        -0.1036
     13 O1          2.7987   -2.1046   -2.4276 O.3       1 <0>        -0.2939
     14 C11         3.1290   -0.9498   -3.0632 C.ar      1 <0>         0.1513
     15 C12         4.4578   -0.5614   -3.1526 C.ar      1 <0>        -0.1453
     16 C13         4.7911    0.6128   -3.7997 C.ar      1 <0>        -0.0215
     17 C14         3.8014    1.4009   -4.3576 C.ar      1 <0>        -0.2121
     18 C15         2.4763    1.0162   -4.2695 C.ar      1 <0>        -0.0254
     19 C16         2.1384   -0.1601   -3.6288 C.ar      1 <0>        -0.2331
     20 C17         4.1677    2.6815   -5.0625 C.3       1 <0>         0.5092
     21 F1          4.3972    2.4189   -6.4174 F         1 <0>        -0.1720
     22 F2          3.1196    3.5994   -4.9365 F         1 <0>        -0.1774
     23 F3          5.3265    3.2150   -4.4881 F         1 <0>        -0.1740
     24 H2          1.0080    1.6436    0.3006 H         1 <0>         0.1243
     25 H3         -0.5529    1.6774   -0.5543 H         1 <0>         0.1247
     26 H4         -0.5127    1.5408    1.2200 H         1 <0>         0.1295
     27 H5          0.5197   -0.5937    0.9660 H         1 <0>         0.4319
     28 H6          0.1528   -0.1675   -1.9155 H         1 <0>         0.1348
     29 H7          1.7136   -0.2013   -1.0606 H         1 <0>         0.1349
     30 H8          1.2669   -2.5305   -0.3370 H         1 <0>         0.1053
     31 H9         -0.2940   -2.4967   -1.1919 H         1 <0>         0.1101
     32 H10         2.9600   -4.3975   -1.3092 H         1 <0>         0.1272
     33 H11         2.8350   -6.8396   -1.5987 H         1 <0>         0.1297
     34 H12         1.1571   -7.8156   -3.1137 H         1 <0>         0.1301
     35 H13        -0.3964   -6.3495   -4.3386 H         1 <0>         0.1308
     36 H14        -0.2770   -3.9079   -4.0428 H         1 <0>         0.1243
     37 H15         5.2311   -1.1763   -2.7163 H         1 <0>         0.1487
     38 H16         5.8254    0.9155   -3.8695 H         1 <0>         0.1498
     39 H17         1.7051    1.6337   -4.7058 H         1 <0>         0.1430
     40 H18         1.1036   -0.4624   -3.5641 H         1 <0>         0.1387
     41 H19        -0.9251   -0.5624    0.1746 H         1 <0>         0.4310
@<TRIPOS>BOND
     1    1    2 1
     2    1   24 1
     3    1   25 1
     4    1   26 1
     5    2    3 1
     6    2   27 1
     7    2   41 1
     8    3    4 1
     9    3   28 1
    10    3   29 1
    11    4    5 1
    12    4   30 1
    13    4   31 1
    14    5    6 1
    15    5    7 1
    16    5   13 1
    17    7   12 ar
    18    7    8 ar
    19    8    9 ar
    20    8   32 1
    21    9   10 ar
    22    9   33 1
    23   10   11 ar
    24   10   34 1
    25   11   12 ar
    26   11   35 1
    27   12   36 1
    28   13   14 1
    29   14   19 ar
    30   14   15 ar
    31   15   16 ar
    32   15   37 1
    33   16   17 ar
    34   16   38 1
    35   17   18 ar
    36   17   20 1
    37   18   19 ar
    38   18   39 1
    39   19   40 1
    40   20   21 1
    41   20   22 1
    42   20   23 1
@<TRIPOS>MOLECULE
ZINC00527386
   45    48     0     0     0
SMALL
USER_CHARGES

@<TRIPOS>ATOM
      1 C1         -0.0167    1.3782    0.0096 C.ar      1 <0>        -0.0786
      2 C2          1.1703    2.0860    0.0021 C.ar      1 <0>        -0.1478
      3 C3          2.3786    1.4101   -0.0131 C.ar      1 <0>         0.1155
      4 C4          2.3962    0.0256   -0.0207 C.ar      1 <0>        -0.1485
      5 C5          1.2079   -0.6800   -0.0132 C.ar      1 <0>        -0.0833
      6 C6          0.0021   -0.0041    0.0020 C.ar      1 <0>        -0.1160
      7 C7         -1.2930   -0.7747    0.0103 C.3       1 <0>        -0.0467
      8 H1         -2.1314   -0.0783    0.0220 H         1 <0>         0.1035
      9 C8         -1.3504   -1.6663    1.2540 C.3       1 <0>        -0.1398
     10 C9         -2.6302   -2.5042    1.2156 C.3       1 <0>        -0.0090
     11 N1         -2.6348   -3.3421    0.0104 N.4       1 <0>        -0.5052
     12 C10        -2.6523   -2.4927   -1.1866 C.3       1 <0>        -0.0061
     13 C11        -1.3743   -1.6529   -1.2416 C.3       1 <0>        -0.1007
     14 H2         -0.5077   -2.3130   -1.2801 H         1 <0>         0.1106
     15 C12        -1.3973   -0.7654   -2.4877 C.3       1 <0>         0.0632
     16 O1         -1.3556   -1.5854   -3.6573 O.3       1 <0>        -0.3149
     17 C13        -1.3694   -0.9484   -4.8586 C.ar      1 <0>         0.1338
     18 C14        -1.4163    0.4369   -4.9082 C.ar      1 <0>        -0.1955
     19 C15        -1.4304    1.0865   -6.1281 C.ar      1 <0>        -0.0597
     20 C16        -1.3978    0.3558   -7.3046 C.ar      1 <0>         0.0066
     21 C17        -1.3507   -1.0351   -7.2573 C.ar      1 <0>         0.0775
     22 C18        -1.3310   -1.6838   -6.0334 C.ar      1 <0>        -0.1326
     23 O2         -1.3260   -1.5147   -8.5352 O.3       1 <0>        -0.3028
     24 C19        -1.7704   -0.4244   -9.3640 C.3       1 <0>         0.2131
     25 O3         -1.4025    0.7478   -8.6132 O.3       1 <0>        -0.3042
     26 F1          3.5396    2.1009   -0.0209 F         1 <0>        -0.1301
     27 H3         -0.9592    1.9052    0.0260 H         1 <0>         0.1361
     28 H4          1.1554    3.1659    0.0077 H         1 <0>         0.1428
     29 H5          3.3381   -0.5027   -0.0329 H         1 <0>         0.1414
     30 H6          1.2213   -1.7599   -0.0195 H         1 <0>         0.1298
     31 H7         -0.4833   -2.3267    1.2687 H         1 <0>         0.0938
     32 H8         -1.3497   -1.0436    2.1486 H         1 <0>         0.1200
     33 H9         -2.6744   -3.1401    2.0998 H         1 <0>         0.1375
     34 H10        -3.4966   -1.8429    1.2011 H         1 <0>         0.1332
     35 H11        -1.8072   -3.9191    0.0000 H         1 <0>         0.4292
     36 H12        -2.7128   -3.1202   -2.0759 H         1 <0>         0.1435
     37 H13        -3.5182   -1.8317   -1.1499 H         1 <0>         0.1340
     38 H14        -2.3107   -0.1706   -2.4933 H         1 <0>         0.0766
     39 H15        -0.5321   -0.1026   -2.4777 H         1 <0>         0.0872
     40 H16        -1.4421    1.0088   -3.9923 H         1 <0>         0.1409
     41 H17        -1.4672    2.1652   -6.1642 H         1 <0>         0.1431
     42 H18        -1.2900   -2.7623   -5.9944 H         1 <0>         0.1446
     43 H19        -1.2571   -0.4402  -10.3254 H         1 <0>         0.1387
     44 H20        -2.8505   -0.4658   -9.5047 H         1 <0>         0.0906
     45 H21        -3.4535   -3.9318    0.0151 H         1 <0>         0.4349
@<TRIPOS>BOND
     1    1    6 ar
     2    1    2 ar
     3    1   27 1
     4    2    3 ar
     5    2   28 1
     6    3    4 ar
     7    3   26 1
     8    4    5 ar
     9    4   29 1
    10    5    6 ar
    11    5   30 1
    12    6    7 1
    13    7    8 1
    14    7   13 1
    15    7    9 1
    16    9   10 1
    17    9   31 1
    18    9   32 1
    19   10   11 1
    20   10   33 1
    21   10   34 1
    22   11   12 1
    23   11   35 1
    24   11   45 1
    25   12   13 1
    26   12   36 1
    27   12   37 1
    28   13   14 1
    29   13   15 1
    30   15   16 1
    31   15   38 1
    32   15   39 1
    33   16   17 1
    34   17   22 ar
    35   17   18 ar
    36   18   19 ar
    37   18   40 1
    38   19   20 ar
    39   19   41 1
    40   20   25 1
    41   20   21 ar
    42   21   22 ar
    43   21   23 1
    44   22   42 1
    45   23   24 1
    46   24   25 1
    47   24   43 1
    48   24   44 1
@<TRIPOS>MOLECULE
ZINC00968264
   44    47     0     0     0
SMALL
USER_CHARGES

@<TRIPOS>ATOM
      1 C1         -0.0178    1.4648    0.0101 C.3       1 <0>        -0.0478
      2 N1          0.0021   -0.0041    0.0020 N.4       1 <0>        -0.3841
      3 C2          0.6740   -0.4746   -1.2151 C.3       1 <0>        -0.0028
      4 C3          0.5450   -1.9989   -1.3133 C.3       1 <0>        -0.1085
      5 C4          1.0748   -2.6020   -0.0289 C.2       1 <0>        -0.1670
      6 C5          1.9463   -3.6220   -0.0482 C.2       1 <0>         0.0275
      7 C6          2.4250   -4.1895   -1.3301 C.ar      1 <0>        -0.0560
      8 C7          3.0785   -3.3773   -2.2512 C.ar      1 <0>        -0.1121
      9 C8          3.5665   -3.9181   -3.4240 C.ar      1 <0>        -0.1123
     10 C9          3.4131   -5.2699   -3.6864 C.ar      1 <0>        -0.1066
     11 C10         2.7520   -6.0862   -2.7951 C.ar      1 <0>        -0.0999
     12 C11         2.2259   -5.5538   -1.6113 C.ar      1 <0>        -0.0362
     13 C12         1.4464   -6.4065   -0.7195 C.2       1 <0>        -0.1006
     14 C13         1.4561   -6.4157    0.5971 C.2       1 <0>        -0.0999
     15 C14         2.2540   -5.5751    1.4858 C.ar      1 <0>        -0.0373
     16 C15         2.4604   -4.2071    1.2114 C.ar      1 <0>        -0.0565
     17 C16         3.1556   -3.4081    2.1146 C.ar      1 <0>        -0.1114
     18 C17         3.6869   -3.9641    3.2610 C.ar      1 <0>        -0.1127
     19 C18         3.5355   -5.3176    3.5164 C.ar      1 <0>        -0.1067
     20 C19         2.8191   -6.1278    2.6417 C.ar      1 <0>        -0.0996
     21 C20         0.5864   -2.0126    1.2782 C.3       1 <0>        -0.1083
     22 C21         0.7124   -0.4873    1.1920 C.3       1 <0>        -0.0026
     23 H1          1.0047    1.8421    0.0024 H         1 <0>         0.1214
     24 H2         -0.5450    1.8259   -0.8730 H         1 <0>         0.1241
     25 H3         -0.5280    1.8163    0.9069 H         1 <0>         0.1241
     26 H4          0.2103   -0.0138   -2.0873 H         1 <0>         0.1333
     27 H5          1.7283   -0.2009   -1.1770 H         1 <0>         0.1279
     28 H6         -0.5023   -2.2718   -1.4432 H         1 <0>         0.0981
     29 H7          1.1283   -2.3636   -2.1588 H         1 <0>         0.1230
     30 H8          3.2037   -2.3238   -2.0490 H         1 <0>         0.1227
     31 H9          4.0694   -3.2849   -4.1399 H         1 <0>         0.1302
     32 H10         3.8150   -5.6873   -4.5979 H         1 <0>         0.1314
     33 H11         2.6391   -7.1387   -3.0096 H         1 <0>         0.1325
     34 H12         0.7830   -7.1132   -1.1958 H         1 <0>         0.1237
     35 H13         0.7981   -7.1264    1.0749 H         1 <0>         0.1239
     36 H14         3.2796   -2.3534    1.9184 H         1 <0>         0.1227
     37 H15         4.2233   -3.3416    3.9618 H         1 <0>         0.1303
     38 H16         3.9745   -5.7475    4.4045 H         1 <0>         0.1315
     39 H17         2.7036   -7.1817    2.8475 H         1 <0>         0.1336
     40 H18        -0.4562   -2.2871    1.4386 H         1 <0>         0.0981
     41 H19         1.1963   -2.3861    2.1007 H         1 <0>         0.1228
     42 H20         1.7651   -0.2131    1.1231 H         1 <0>         0.1280
     43 H21         0.2770   -0.0359    2.0834 H         1 <0>         0.1333
     44 H22        -0.9452   -0.3513    0.0141 H         1 <0>         0.4247
@<TRIPOS>BOND
     1    1    2 1
     2    1   23 1
     3    1   24 1
     4    1   25 1
     5    2   22 1
     6    2    3 1
     7    2   44 1
     8    3    4 1
     9    3   26 1
    10    3   27 1
    11    4    5 1
    12    4   28 1
    13    4   29 1
    14    5    6 2
    15    5   21 1
    16    6   16 1
    17    6    7 1
    18    7   12 ar
    19    7    8 ar
    20    8    9 ar
    21    8   30 1
    22    9   10 ar
    23    9   31 1
    24   10   11 ar
    25   10   32 1
    26   11   12 ar
    27   11   33 1
    28   12   13 1
    29   13   14 2
    30   13   34 1
    31   14   15 1
    32   14   35 1
    33   15   20 ar
    34   15   16 ar
    35   16   17 ar
    36   17   18 ar
    37   17   36 1
    38   18   19 ar
    39   18   37 1
    40   19   20 ar
    41   19   38 1
    42   20   39 1
    43   21   22 1
    44   21   40 1
    45   21   41 1
    46   22   42 1
    47   22   43 1
@<TRIPOS>MOLECULE
ZINC04216004
   49    51     0     0     0
SMALL
USER_CHARGES
3-[(4-methoxyphenoxy)methyl]-1-methyl-4-phenyl-piperidine
@<TRIPOS>ATOM
      1 C1          0.0021   -0.0041    0.0020 C.3       1 <0>        -0.0421
      2 C2         -0.7848    1.9744    1.1540 C.3       1 <0>        -0.0034
      3 C3         -0.9072    3.4963    1.0504 C.3       1 <0>        -0.1388
      4 C4          0.4928    4.1162    1.0339 C.3       1 <0>        -0.0478
      5 H1          1.0033    3.8878    1.9695 H         1 <0>         0.0992
      6 C5          1.2870    3.5326   -0.1380 C.3       1 <0>        -0.0994
      7 H2          0.7970    3.7944   -1.0758 H         1 <0>         0.1080
      8 C6          1.3458    2.0096    0.0000 C.3       1 <0>         0.0009
      9 C7          2.7071    4.1018   -0.1264 C.3       1 <0>         0.0663
     10 O1          3.4128    3.6448   -1.2819 O.3       1 <0>        -0.3209
     11 C8          4.6990    4.0624   -1.4250 C.ar      1 <0>         0.0820
     12 C9          5.2662    4.8991   -0.4752 C.ar      1 <0>        -0.1629
     13 C10         6.5740    5.3201   -0.6186 C.ar      1 <0>        -0.1700
     14 C11         7.3173    4.9129   -1.7165 C.ar      1 <0>         0.1043
     15 C12         6.7484    4.0806   -2.6690 C.ar      1 <0>        -0.1116
     16 C13         5.4419    3.6564   -2.5236 C.ar      1 <0>        -0.1051
     17 O2          8.6036    5.3302   -1.8593 O.3       1 <0>        -0.3143
     18 C14         9.1249    6.1860   -0.8406 C.3       1 <0>         0.0255
     19 C15         0.3803    5.6102    0.8717 C.ar      1 <0>        -0.1008
     20 C16        -0.2325    6.1396   -0.2486 C.ar      1 <0>        -0.1139
     21 C17        -0.3401    7.5100   -0.3950 C.ar      1 <0>        -0.1125
     22 C18         0.1745    8.3511    0.5738 C.ar      1 <0>        -0.1076
     23 C19         0.7920    7.8217    1.6916 C.ar      1 <0>        -0.1121
     24 C20         0.8949    6.4513    1.8406 C.ar      1 <0>        -0.1108
     25 H3          0.5293   -0.3651    0.8851 H         1 <0>         0.1230
     26 H4         -1.0205   -0.3814    0.0098 H         1 <0>         0.1231
     27 H5          0.5123   -0.3556   -0.8948 H         1 <0>         0.1229
     28 H6         -1.7797    1.5290    1.1516 H         1 <0>         0.1324
     29 H7         -0.2725    1.7134    2.0800 H         1 <0>         0.1316
     30 H8         -1.4632    3.8759    1.9077 H         1 <0>         0.1181
     31 H9         -1.4320    3.7581    0.1316 H         1 <0>         0.0924
     32 H10         1.8481    1.7485    0.9314 H         1 <0>         0.1316
     33 H11         1.8983    1.5900   -0.8407 H         1 <0>         0.1385
     34 H12         2.6622    5.1908   -0.1353 H         1 <0>         0.0834
     35 H13         3.2255    3.7668    0.7720 H         1 <0>         0.0703
     36 H14         4.6864    5.2188    0.3779 H         1 <0>         0.1280
     37 H15         7.0168    5.9686    0.1229 H         1 <0>         0.1339
     38 H16         7.3270    3.7638   -3.5241 H         1 <0>         0.1426
     39 H17         4.9989    3.0082   -3.2653 H         1 <0>         0.1384
     40 H18        10.1575    6.4439   -1.0760 H         1 <0>         0.1053
     41 H19         8.5262    7.0953   -0.7884 H         1 <0>         0.0566
     42 H20         9.0888    5.6716    0.1197 H         1 <0>         0.0563
     43 H21        -0.6306    5.4825   -1.0076 H         1 <0>         0.1186
     44 H22        -0.8221    7.9235   -1.2685 H         1 <0>         0.1273
     45 H23         0.0945    9.4218    0.4573 H         1 <0>         0.1282
     46 H24         1.1943    8.4788    2.4484 H         1 <0>         0.1282
     47 H25         1.3776    6.0377    2.7137 H         1 <0>         0.1238
     48 N1         -0.0316    1.4729   -0.0153 N.4       1 <0>        -0.3960
     49 H26        -0.5013    1.7857   -0.8731 H         1 <0>         0.4295
@<TRIPOS>BOND
     1    1   25 1
     2    1   26 1
     3    1   27 1
     4    1   48 1
     5    2    3 1
     6    2   28 1
     7    2   29 1
     8    2   48 1
     9    3    4 1
    10    3   30 1
    11    3   31 1
    12    4    5 1
    13    4    6 1
    14    4   19 1
    15    6    7 1
    16    6    8 1
    17    6    9 1
    18    8   32 1
    19    8   33 1
    20    8   48 1
    21    9   10 1
    22    9   34 1
    23    9   35 1
    24   10   11 1
    25   11   16 ar
    26   11   12 ar
    27   12   13 ar
    28   12   36 1
    29   13   14 ar
    30   13   37 1
    31   14   15 ar
    32   14   17 1
    33   15   16 ar
    34   15   38 1
    35   16   39 1
    36   17   18 1
    37   18   40 1
    38   18   41 1
    39   18   42 1
    40   19   24 ar
    41   19   20 ar
    42   20   21 ar
    43   20   43 1
    44   21   22 ar
    45   21   44 1
    46   22   23 ar
    47   22   45 1
    48   23   24 ar
    49   23   46 1
    50   24   47 1
    51   48   49 1
@<TRIPOS>MOLECULE
ZINC13813276
   43    46     0     0     0
SMALL
USER_CHARGES

@<TRIPOS>ATOM
      1 C1         -0.0157    1.7724   -0.3647 C.3       1 <0>        -0.1497
      2 S1          0.0021   -0.0041    0.0020 S.3       1 <0>        -0.0950
      3 C2         -1.7016   -0.4536    0.0159 C.ar      1 <0>        -0.0687
      4 C3         -2.6769    0.5048   -0.2325 C.ar      1 <0>        -0.1245
      5 C4         -4.0110    0.1489   -0.2207 C.ar      1 <0>        -0.0772
      6 C5         -4.3771   -1.1595    0.0377 C.ar      1 <0>        -0.1209
      7 C6         -3.4093   -2.1158    0.2857 C.ar      1 <0>        -0.1082
      8 C7         -2.0730   -1.7685    0.2695 C.ar      1 <0>        -0.0898
      9 C8         -5.8342   -1.5439    0.0496 C.3       1 <0>        -0.0216
     10 H1         -6.4384   -0.6417    0.1452 H         1 <0>         0.1331
     11 C9         -6.1788   -2.2383   -1.2746 C.3       1 <0>         0.0075
     12 N1         -5.7030   -3.6106   -1.1818 N.4       1 <0>        -0.3973
     13 C10        -5.7528   -4.4073   -2.4150 C.3       1 <0>        -0.0065
     14 C11        -5.6907   -5.8708   -1.8959 C.3       1 <0>        -0.1454
     15 C12        -6.2298   -5.8002   -0.4420 C.3       1 <0>        -0.1430
     16 C13        -6.6303   -4.3350   -0.2717 C.3       1 <0>         0.0842
     17 H2         -7.6584   -4.1932   -0.6047 H         1 <0>         0.1464
     18 C14        -6.4628   -3.7668    1.0979 C.ar      1 <0>        -0.1310
     19 C15        -6.0963   -2.4379    1.2339 C.ar      1 <0>        -0.0825
     20 C16        -5.9618   -1.9042    2.5067 C.ar      1 <0>        -0.0939
     21 C17        -6.1772   -2.6874    3.6226 C.ar      1 <0>        -0.0903
     22 C18        -6.5285   -4.0163    3.4782 C.ar      1 <0>        -0.1029
     23 C19        -6.6717   -4.5503    2.2164 C.ar      1 <0>        -0.0856
     24 H3          1.0072    2.1475   -0.3947 H         1 <0>         0.1175
     25 H4         -0.4924    1.9392   -1.3307 H         1 <0>         0.0878
     26 H5         -0.5728    2.2979    0.4109 H         1 <0>         0.0885
     27 H6         -2.3917    1.5268   -0.4340 H         1 <0>         0.1331
     28 H7         -4.7695    0.8933   -0.4133 H         1 <0>         0.1344
     29 H8         -3.6989   -3.1365    0.4876 H         1 <0>         0.1154
     30 H9         -1.3175   -2.5169    0.4582 H         1 <0>         0.1358
     31 H10        -7.2579   -2.2297   -1.4278 H         1 <0>         0.1375
     32 H11        -5.6822   -1.7289   -2.1004 H         1 <0>         0.1372
     33 H12        -6.6849   -4.2286   -2.9511 H         1 <0>         0.1361
     34 H13        -4.8945   -4.1876   -3.0499 H         1 <0>         0.1358
     35 H14        -6.3240   -6.5163   -2.5043 H         1 <0>         0.1154
     36 H15        -4.6623   -6.2321   -1.9020 H         1 <0>         0.1020
     37 H16        -7.0967   -6.4502   -0.3233 H         1 <0>         0.1188
     38 H17        -5.4487   -6.0686    0.2693 H         1 <0>         0.1021
     39 H18        -5.6857   -0.8670    2.6259 H         1 <0>         0.1325
     40 H19        -6.0708   -2.2616    4.6094 H         1 <0>         0.1366
     41 H20        -6.6912   -4.6323    4.3503 H         1 <0>         0.1386
     42 H21        -6.9473   -5.5883    2.1019 H         1 <0>         0.1356
     43 H22        -4.7690   -3.6244   -0.8003 H         1 <0>         0.4220
@<TRIPOS>BOND
     1    1    2 1
     2    1   24 1
     3    1   25 1
     4    1   26 1
     5    2    3 1
     6    3    8 ar
     7    3    4 ar
     8    4    5 ar
     9    4   27 1
    10    5    6 ar
    11    5   28 1
    12    6    7 ar
    13    6    9 1
    14    7    8 ar
    15    7   29 1
    16    8   30 1
    17    9   10 1
    18    9   19 1
    19    9   11 1
    20   11   12 1
    21   11   31 1
    22   11   32 1
    23   12   16 1
    24   12   13 1
    25   12   43 1
    26   13   14 1
    27   13   33 1
    28   13   34 1
    29   14   15 1
    30   14   35 1
    31   14   36 1
    32   15   16 1
    33   15   37 1
    34   15   38 1
    35   16   17 1
    36   16   18 1
    37   18   23 ar
    38   18   19 ar
    39   19   20 ar
    40   20   21 ar
    41   20   39 1
    42   21   22 ar
    43   21   40 1
    44   22   23 ar
    45   22   41 1
    46   23   42 1
@<TRIPOS>MOLECULE
ZINC13813276
   42    45     0     0     0
SMALL
USER_CHARGES

@<TRIPOS>ATOM
      1 C1         -0.0225    1.8097    0.0120 C.3       1 <0>        -0.1425
      2 S1          0.0021   -0.0041    0.0020 S.3       1 <0>        -0.1260
      3 C2          0.8767   -0.4266    1.4721 C.ar      1 <0>        -0.0824
      4 C3          1.3495    0.5736    2.3131 C.ar      1 <0>        -0.1374
      5 C4          2.0346    0.2388    3.4643 C.ar      1 <0>        -0.0992
      6 C5          2.2504   -1.0902    3.7808 C.ar      1 <0>        -0.0760
      7 C6          1.7817   -2.0882    2.9460 C.ar      1 <0>        -0.0702
      8 C7          1.0904   -1.7610    1.7963 C.ar      1 <0>        -0.1045
      9 C8          2.9985   -1.4515    5.0381 C.3       1 <0>         0.0007
     10 H1          3.2834   -0.5361    5.5566 H         1 <0>         0.0891
     11 C9          2.0777   -2.2748    5.9478 C.3       1 <0>         0.0622
     12 N1          2.0704   -3.6377    5.4384 N.3       1 <0>        -0.5206
     13 C10         1.0916   -4.5762    6.0011 C.3       1 <0>         0.0437
     14 C11         1.6536   -5.9660    5.5929 C.3       1 <0>        -0.1213
     15 C12         3.1740   -5.7354    5.3845 C.3       1 <0>        -0.1126
     16 C13         3.3787   -4.2671    5.7610 C.3       1 <0>         0.0984
     17 H2          3.5758   -4.1834    6.8298 H         1 <0>         0.0618
     18 C14         4.4338   -3.5452    4.9887 C.ar      1 <0>        -0.0621
     19 C15         4.2445   -2.2124    4.6658 C.ar      1 <0>        -0.0574
     20 C16         5.2388   -1.5424    3.9677 C.ar      1 <0>        -0.1129
     21 C17         6.3936   -2.1958    3.5890 C.ar      1 <0>        -0.1193
     22 C18         6.5681   -3.5306    3.9026 C.ar      1 <0>        -0.1187
     23 C19         5.5885   -4.1993    4.6028 C.ar      1 <0>        -0.1122
     24 H3          1.0001    2.1870    0.0043 H         1 <0>         0.0832
     25 H4         -0.5497    2.1708   -0.8711 H         1 <0>         0.1088
     26 H5         -0.5327    2.1613    0.9088 H         1 <0>         0.0832
     27 H6          1.1817    1.6116    2.0664 H         1 <0>         0.1206
     28 H7          2.4026    1.0155    4.1182 H         1 <0>         0.1222
     29 H8          1.9523   -3.1249    3.1961 H         1 <0>         0.1459
     30 H9          0.7202   -2.5410    1.1475 H         1 <0>         0.1245
     31 H10         2.4584   -2.2628    6.9691 H         1 <0>         0.0441
     32 H11         1.0683   -1.8643    5.9227 H         1 <0>         0.0838
     33 H12         1.0487   -4.4824    7.0862 H         1 <0>         0.0424
     34 H13         0.1075   -4.4151    5.5610 H         1 <0>         0.0838
     35 H14         1.4857   -6.6916    6.3887 H         1 <0>         0.0702
     36 H15         1.1910   -6.3048    4.6659 H         1 <0>         0.0747
     37 H16         3.7527   -6.3832    6.0429 H         1 <0>         0.0721
     38 H17         3.4472   -5.9047    4.3430 H         1 <0>         0.0771
     39 H18         5.1075   -0.4999    3.7181 H         1 <0>         0.1180
     40 H19         7.1615   -1.6639    3.0469 H         1 <0>         0.1207
     41 H20         7.4682   -4.0457    3.6012 H         1 <0>         0.1225
     42 H21         5.7235   -5.2420    4.8495 H         1 <0>         0.1216
@<TRIPOS>BOND
     1    1    2 1
     2    1   24 1
     3    1   25 1
     4    1   26 1
     5    2    3 1
     6    3    8 ar
     7    3    4 ar
     8    4    5 ar
     9    4   27 1
    10    5    6 ar
    11    5   28 1
    12    6    7 ar
    13    6    9 1
    14    7    8 ar
    15    7   29 1
    16    8   30 1
    17    9   10 1
    18    9   19 1
    19    9   11 1
    20   11   12 1
    21   11   31 1
    22   11   32 1
    23   12   16 1
    24   12   13 1
    25   13   14 1
    26   13   33 1
    27   13   34 1
    28   14   15 1
    29   14   35 1
    30   14   36 1
    31   15   16 1
    32   15   37 1
    33   15   38 1
    34   16   17 1
    35   16   18 1
    36   18   23 ar
    37   18   19 ar
    38   19   20 ar
    39   20   21 ar
    40   20   39 1
    41   21   22 ar
    42   21   40 1
    43   22   23 ar
    44   22   41 1
    45   23   42 1
