@<TRIPOS>MOLECULE
ZINC01910267
   47    50     0     0     0
SMALL
USER_CHARGES
4-(2-fluorophenyl)-3-isopropyl-5-(4-phenylphenyl)-1,2,4-triazole
@<TRIPOS>ATOM
      1 C1          1.8440    7.7574   -1.4676 C.3       1 <0>        -0.1415
      2 C2          2.5057    6.9395   -0.3567 C.3       1 <0>        -0.0068
      3 C3          2.5139    7.7525    0.9394 C.3       1 <0>        -0.1430
      4 C4          1.7329    5.6633   -0.1443 C.2       1 <0>         0.2034
      5 N1          0.4776    5.5685    0.2053 N.2       1 <0>        -0.2779
      6 N2          0.1364    4.3329    0.2980 N.2       1 <0>        -0.2694
      7 C5          1.1645    3.5647    0.0101 C.2       1 <0>         0.2275
      8 N3          2.2168    4.3959   -0.2753 N.pl3     1 <0>        -0.4321
      9 C6          3.5204    4.0200   -0.6310 C.ar      1 <0>         0.0692
     10 C7          3.8513    3.8358   -1.9662 C.ar      1 <0>        -0.0695
     11 C8          5.1359    3.4655   -2.3138 C.ar      1 <0>        -0.1149
     12 C9          6.0932    3.2784   -1.3335 C.ar      1 <0>        -0.0682
     13 C10         5.7687    3.4611   -0.0021 C.ar      1 <0>        -0.1445
     14 C11         4.4855    3.8366    0.3527 C.ar      1 <0>         0.1158
     15 F1          4.1694    4.0203    1.6533 F         1 <0>        -0.1229
     16 C12         1.1835    2.0869    0.0020 C.ar      1 <0>        -0.0202
     17 C13        -0.0166    1.3726    0.0096 C.ar      1 <0>        -0.0676
     18 C14         0.0021   -0.0041    0.0020 C.ar      1 <0>        -0.1089
     19 C15         1.2191   -0.6854   -0.0133 C.ar      1 <0>        -0.0260
     20 C16         2.4183    0.0271   -0.0209 C.ar      1 <0>        -0.1075
     21 C17         2.4015    1.4038   -0.0133 C.ar      1 <0>        -0.1031
     22 C18         1.2382   -2.1682   -0.0209 C.ar      1 <0>        -0.0522
     23 C19         0.0417   -2.8833   -0.0070 C.ar      1 <0>        -0.1068
     24 C20         0.0655   -4.2631   -0.0182 C.ar      1 <0>        -0.1173
     25 C21         1.2738   -4.9365   -0.0338 C.ar      1 <0>        -0.1150
     26 C22         2.4643   -4.2321   -0.0428 C.ar      1 <0>        -0.1181
     27 C23         2.4527   -2.8522   -0.0362 C.ar      1 <0>        -0.1081
     28 H1          0.8196    7.9963   -1.1821 H         1 <0>         0.0719
     29 H2          2.4030    8.6805   -1.6213 H         1 <0>         0.0711
     30 H3          1.8382    7.1782   -2.3910 H         1 <0>         0.0551
     31 H4          3.5301    6.7007   -0.6423 H         1 <0>         0.0838
     32 H5          2.9852    7.1698    1.7308 H         1 <0>         0.0554
     33 H6          3.0728    8.6756    0.7857 H         1 <0>         0.0712
     34 H7          1.4894    7.9913    1.2250 H         1 <0>         0.0720
     35 H8          3.1050    3.9822   -2.7330 H         1 <0>         0.1419
     36 H9          5.3932    3.3222   -3.3528 H         1 <0>         0.1459
     37 H10         7.0967    2.9892   -1.6086 H         1 <0>         0.1470
     38 H11         6.5186    3.3146    0.7612 H         1 <0>         0.1511
     39 H12        -0.9590    1.9000    0.0169 H         1 <0>         0.1409
     40 H13        -0.9259   -0.5566    0.0076 H         1 <0>         0.1358
     41 H14         3.3601   -0.5013   -0.0324 H         1 <0>         0.1317
     42 H15         3.3301    1.9554   -0.0189 H         1 <0>         0.1227
     43 H16        -0.9021   -2.3586    0.0090 H         1 <0>         0.1273
     44 H17        -0.8608   -4.8182   -0.0112 H         1 <0>         0.1261
     45 H18         1.2877   -6.0164   -0.0386 H         1 <0>         0.1242
     46 H19         3.4046   -4.7631   -0.0546 H         1 <0>         0.1254
     47 H20         3.3827   -2.3032   -0.0425 H         1 <0>         0.1251
@<TRIPOS>BOND
     1    1    2 1
     2    1   28 1
     3    1   29 1
     4    1   30 1
     5    2    3 1
     6    2    4 1
     7    2   31 1
     8    3   32 1
     9    3   33 1
    10    3   34 1
    11    4    8 1
    12    4    5 2
    13    5    6 1
    14    6    7 2
    15    7    8 1
    16    7   16 1
    17    8    9 1
    18    9   14 ar
    19    9   10 ar
    20   10   11 ar
    21   10   35 1
    22   11   12 ar
    23   11   36 1
    24   12   13 ar
    25   12   37 1
    26   13   14 ar
    27   13   38 1
    28   14   15 1
    29   16   21 ar
    30   16   17 ar
    31   17   18 ar
    32   17   39 1
    33   18   19 ar
    34   18   40 1
    35   19   20 ar
    36   19   22 1
    37   20   21 ar
    38   20   41 1
    39   21   42 1
    40   22   27 ar
    41   22   23 ar
    42   23   24 ar
    43   23   43 1
    44   24   25 ar
    45   24   44 1
    46   25   26 ar
    47   25   45 1
    48   26   27 ar
    49   26   46 1
    50   27   47 1
@<TRIPOS>MOLECULE
ZINC00003106
   45    48     0     0     0
SMALL
USER_CHARGES

@<TRIPOS>ATOM
      1 C1         -1.5875    2.2874   -2.5088 C.3       1 <0>        -0.0664
      2 C2         -1.9595    2.4835   -1.0616 C.2       1 <0>         0.1960
      3 N1         -3.0323    3.0791   -0.6129 N.2       1 <0>        -0.2880
      4 N2         -3.0347    3.0764    0.6724 N.2       1 <0>        -0.2737
      5 C3         -1.9564    2.4688    1.1178 C.2       1 <0>         0.2272
      6 N3         -1.2400    2.0697    0.0192 N.pl3     1 <0>        -0.4190
      7 C4         -0.0167    1.3829    0.0096 C.ar      1 <0>         0.0665
      8 C5          0.0021   -0.0041    0.0020 C.ar      1 <0>        -0.0647
      9 C6          1.2080   -0.6783   -0.0131 C.ar      1 <0>        -0.1452
     10 C7          2.3981    0.0261   -0.0212 C.ar      1 <0>        -0.0563
     11 C8          2.3874    1.4082   -0.0136 C.ar      1 <0>        -0.1998
     12 C9          1.1820    2.0920    0.0020 C.ar      1 <0>         0.1516
     13 O1          1.1698    3.4513    0.0090 O.3       1 <0>        -0.3061
     14 C10         2.4371    4.1116    0.0004 C.3       1 <0>         0.0241
     15 C11        -1.5876    2.2565    2.5331 C.ar      1 <0>        -0.0150
     16 C12        -0.5953    1.3317    2.8654 C.ar      1 <0>        -0.1055
     17 C13        -0.2493    1.1377    4.1839 C.ar      1 <0>        -0.1088
     18 C14        -0.8967    1.8571    5.1884 C.ar      1 <0>        -0.0298
     19 C15        -1.8913    2.7776    4.8578 C.ar      1 <0>        -0.1094
     20 C16        -2.2352    2.9764    3.5395 C.ar      1 <0>        -0.0702
     21 C17        -0.5270    1.6437    6.6085 C.ar      1 <0>        -0.0503
     22 C18        -1.1677    2.3655    7.6143 C.ar      1 <0>        -0.1078
     23 C19        -0.8229    2.1592    8.9346 C.ar      1 <0>        -0.1173
     24 C20         0.1635    1.2455    9.2599 C.ar      1 <0>        -0.1161
     25 C21         0.8063    0.5302    8.2656 C.ar      1 <0>        -0.1182
     26 C22         0.4665    0.7247    6.9423 C.ar      1 <0>        -0.1090
     27 H1         -2.0012    1.3442   -2.8656 H         1 <0>         0.0881
     28 H2         -1.9903    3.1083   -3.1019 H         1 <0>         0.0982
     29 H3         -0.5020    2.2678   -2.6055 H         1 <0>         0.0760
     30 H4         -0.9257   -0.5568    0.0075 H         1 <0>         0.1394
     31 H5          1.2213   -1.7582   -0.0190 H         1 <0>         0.1402
     32 H6          3.3383   -0.5051   -0.0330 H         1 <0>         0.1382
     33 H7          3.3185    1.9554   -0.0199 H         1 <0>         0.1419
     34 H8          2.2845    5.1908    0.0073 H         1 <0>         0.1059
     35 H9          3.0050    3.8193    0.8837 H         1 <0>         0.0611
     36 H10         2.9883    3.8283   -0.8962 H         1 <0>         0.0614
     37 H11        -0.0970    0.7713    2.0882 H         1 <0>         0.1296
     38 H12         0.5207    0.4252    4.4408 H         1 <0>         0.1303
     39 H13        -2.3920    3.3342    5.6362 H         1 <0>         0.1344
     40 H14        -3.0053    3.6891    3.2838 H         1 <0>         0.1397
     41 H15        -1.9348    3.0823    7.3611 H         1 <0>         0.1272
     42 H16        -1.3214    2.7149    9.7150 H         1 <0>         0.1258
     43 H17         0.4330    1.0903   10.2942 H         1 <0>         0.1238
     44 H18         1.5759   -0.1816    8.5254 H         1 <0>         0.1250
     45 H19         0.9695    0.1662    6.1668 H         1 <0>         0.1250
@<TRIPOS>BOND
     1    1    2 1
     2    1   27 1
     3    1   28 1
     4    1   29 1
     5    2    6 1
     6    2    3 2
     7    3    4 1
     8    4    5 2
     9    5    6 1
    10    5   15 1
    11    6    7 1
    12    7   12 ar
    13    7    8 ar
    14    8    9 ar
    15    8   30 1
    16    9   10 ar
    17    9   31 1
    18   10   11 ar
    19   10   32 1
    20   11   12 ar
    21   11   33 1
    22   12   13 1
    23   13   14 1
    24   14   34 1
    25   14   35 1
    26   14   36 1
    27   15   20 ar
    28   15   16 ar
    29   16   17 ar
    30   16   37 1
    31   17   18 ar
    32   17   38 1
    33   18   19 ar
    34   18   21 1
    35   19   20 ar
    36   19   39 1
    37   20   40 1
    38   21   26 ar
    39   21   22 ar
    40   22   23 ar
    41   22   41 1
    42   23   24 ar
    43   23   42 1
    44   24   25 ar
    45   24   43 1
    46   25   26 ar
    47   25   44 1
    48   26   45 1
