@<TRIPOS>MOLECULE
ZINC03812918
   62    64     0     0     0
SMALL
USER_CHARGES

@<TRIPOS>ATOM
      1 C1          0.0184    1.1674    0.0635 C.3       1 <0>        -0.1474
      2 C2          0.0287   -0.3496   -0.1352 C.3       1 <0>        -0.0947
      3 C3          0.8187   -1.0070    0.9982 C.3       1 <0>        -0.1518
      4 C4         -1.4083   -0.8748   -0.1267 C.3       1 <0>         0.0663
      5 O1         -2.1137   -0.3508   -1.2536 O.3       1 <0>        -0.3920
      6 C5         -3.4732   -0.7822   -1.3402 C.3       1 <0>         0.0403
      7 C6         -4.1268   -0.1633   -2.5774 C.3       1 <0>         0.0087
      8 H1         -3.5364   -0.4070   -3.4606 H         1 <0>         0.1470
      9 C7         -5.5419   -0.7218   -2.7399 C.3       1 <0>         0.1111
     10 N1         -5.4715   -2.1608   -3.0055 N.pl3     1 <0>        -0.6164
     11 C8         -5.6171   -3.1168   -1.9050 C.3       1 <0>         0.1596
     12 C9         -7.0717   -3.4743   -1.7394 C.ar      1 <0>        -0.1190
     13 C10        -7.8753   -2.7280   -0.8979 C.ar      1 <0>        -0.1104
     14 C11        -9.2096   -3.0559   -0.7459 C.ar      1 <0>        -0.1193
     15 C12        -9.7403   -4.1299   -1.4358 C.ar      1 <0>        -0.1083
     16 C13        -8.9368   -4.8756   -2.2780 C.ar      1 <0>        -0.1151
     17 C14        -7.6036   -4.5451   -2.4332 C.ar      1 <0>        -0.0996
     18 C15        -5.2654   -2.6213   -4.3080 C.ar      1 <0>         0.2010
     19 C16        -5.2314   -1.7228   -5.3668 C.ar      1 <0>        -0.1983
     20 C17        -5.0270   -2.1814   -6.6533 C.ar      1 <0>        -0.0720
     21 C18        -4.8568   -3.5335   -6.8881 C.ar      1 <0>        -0.1599
     22 C19        -4.8901   -4.4307   -5.8364 C.ar      1 <0>        -0.0679
     23 C20        -5.0883   -3.9782   -4.5467 C.ar      1 <0>        -0.1821
     24 N2         -4.1915    1.2957   -2.4189 N.4       1 <0>        -0.3869
     25 C21        -2.8266    1.8785   -2.4802 C.3       1 <0>         0.0043
     26 C22        -3.0891    3.3561   -2.8654 C.3       1 <0>        -0.1475
     27 C23        -4.2702    3.2502   -3.8572 C.3       1 <0>        -0.1425
     28 C24        -4.9382    1.8984   -3.5443 C.3       1 <0>        -0.0147
     29 H2          1.0421    1.5416    0.0574 H         1 <0>         0.0626
     30 H3         -0.5444    1.6358   -0.7440 H         1 <0>         0.0530
     31 H4         -0.4499    1.4056    1.0185 H         1 <0>         0.0556
     32 H5          0.4969   -0.5878   -1.0902 H         1 <0>         0.0817
     33 H6          0.3504   -0.7688    1.9533 H         1 <0>         0.0592
     34 H7          0.8260   -2.0878    0.8567 H         1 <0>         0.0601
     35 H8          1.8424   -0.6328    0.9922 H         1 <0>         0.0686
     36 H9         -1.3976   -1.9635   -0.1789 H         1 <0>         0.0597
     37 H10        -1.9048   -0.5600    0.7912 H         1 <0>         0.0577
     38 H11        -3.5053   -1.8690   -1.4177 H         1 <0>         0.0975
     39 H12        -4.0126   -0.4655   -0.4475 H         1 <0>         0.0706
     40 H13        -6.1083   -0.5485   -1.8249 H         1 <0>         0.0990
     41 H14        -6.0362   -0.2223   -3.5732 H         1 <0>         0.1014
     42 H15        -5.0447   -4.0172   -2.1278 H         1 <0>         0.0941
     43 H16        -5.2457   -2.6690   -0.9832 H         1 <0>         0.0829
     44 H17        -7.4607   -1.8890   -0.3589 H         1 <0>         0.1141
     45 H18        -9.8373   -2.4733   -0.0880 H         1 <0>         0.1242
     46 H19       -10.7826   -4.3865   -1.3165 H         1 <0>         0.1261
     47 H20        -9.3514   -5.7149   -2.8167 H         1 <0>         0.1263
     48 H21        -6.9768   -5.1254   -3.0940 H         1 <0>         0.1228
     49 H22        -5.3650   -0.6667   -5.1842 H         1 <0>         0.1104
     50 H23        -5.0005   -1.4834   -7.4770 H         1 <0>         0.1243
     51 H24        -4.6978   -3.8896   -7.8953 H         1 <0>         0.1246
     52 H25        -4.7568   -5.4861   -6.0232 H         1 <0>         0.1273
     53 H26        -5.1097   -4.6790   -3.7252 H         1 <0>         0.1251
     54 H27        -2.3374    1.8155   -1.5082 H         1 <0>         0.1430
     55 H28        -2.2301    1.3816   -3.2452 H         1 <0>         0.1326
     56 H29        -3.3725    3.9388   -1.9889 H         1 <0>         0.0961
     57 H30        -2.2148    3.7891   -3.3516 H         1 <0>         0.1156
     58 H31        -4.9743    4.0665   -3.6956 H         1 <0>         0.1049
     59 H32        -3.9044    3.2628   -4.8839 H         1 <0>         0.1035
     60 H33        -4.8847    1.2471   -4.4166 H         1 <0>         0.1285
     61 H34        -5.9782    2.0555   -3.2582 H         1 <0>         0.1323
     62 H35        -4.6326    1.5317   -1.5426 H         1 <0>         0.4221
@<TRIPOS>BOND
     1    1    2 1
     2    1   29 1
     3    1   30 1
     4    1   31 1
     5    2    3 1
     6    2    4 1
     7    2   32 1
     8    3   33 1
     9    3   34 1
    10    3   35 1
    11    4    5 1
    12    4   36 1
    13    4   37 1
    14    5    6 1
    15    6    7 1
    16    6   38 1
    17    6   39 1
    18    7    8 1
    19    7    9 1
    20    7   24 1
    21    9   10 1
    22    9   40 1
    23    9   41 1
    24   10   11 1
    25   10   18 1
    26   11   12 1
    27   11   42 1
    28   11   43 1
    29   12   17 ar
    30   12   13 ar
    31   13   14 ar
    32   13   44 1
    33   14   15 ar
    34   14   45 1
    35   15   16 ar
    36   15   46 1
    37   16   17 ar
    38   16   47 1
    39   17   48 1
    40   18   23 ar
    41   18   19 ar
    42   19   20 ar
    43   19   49 1
    44   20   21 ar
    45   20   50 1
    46   21   22 ar
    47   21   51 1
    48   22   23 ar
    49   22   52 1
    50   23   53 1
    51   24   28 1
    52   24   25 1
    53   24   62 1
    54   25   26 1
    55   25   54 1
    56   25   55 1
    57   26   27 1
    58   26   56 1
    59   26   57 1
    60   27   28 1
    61   27   58 1
    62   27   59 1
    63   28   60 1
    64   28   61 1
@<TRIPOS>MOLECULE
ZINC03830283
   62    64     0     0     0
SMALL
USER_CHARGES

@<TRIPOS>ATOM
      1 C1          0.2141    1.5244   -0.3937 C.3       1 <0>        -0.1472
      2 C2          0.1828   -0.0046   -0.4414 C.3       1 <0>        -0.0916
      3 C3          1.0078   -0.5679    0.7174 C.3       1 <0>        -0.1523
      4 C4         -1.2634   -0.4891   -0.3208 C.3       1 <0>         0.0673
      5 O1         -2.0064   -0.0600   -1.4635 O.3       1 <0>        -0.3943
      6 C5         -3.3774   -0.4626   -1.4501 C.3       1 <0>         0.0400
      7 C6         -4.0716    0.0488   -2.7140 C.3       1 <0>         0.0084
      8 H1         -3.9361    1.1276   -2.7917 H         1 <0>         0.1440
      9 C7         -5.5654   -0.2737   -2.6415 C.3       1 <0>         0.1067
     10 N1         -6.1702    0.4616   -1.5280 N.pl3     1 <0>        -0.6157
     11 C8         -6.6124    1.8453   -1.7182 C.3       1 <0>         0.1618
     12 C9         -8.0199    1.8534   -2.2567 C.ar      1 <0>        -0.1184
     13 C10        -8.2378    1.8344   -3.6217 C.ar      1 <0>        -0.1123
     14 C11        -9.5288    1.8418   -4.1157 C.ar      1 <0>        -0.1189
     15 C12       -10.6020    1.8677   -3.2448 C.ar      1 <0>        -0.1086
     16 C13       -10.3841    1.8857   -1.8798 C.ar      1 <0>        -0.1141
     17 C14        -9.0931    1.8740   -1.3857 C.ar      1 <0>        -0.0997
     18 C15        -6.3253   -0.1565   -0.2851 C.ar      1 <0>         0.1996
     19 C16        -5.9013   -1.4665   -0.1015 C.ar      1 <0>        -0.2011
     20 C17        -6.0557   -2.0746    1.1288 C.ar      1 <0>        -0.0722
     21 C18        -6.6320   -1.3810    2.1772 C.ar      1 <0>        -0.1599
     22 C19        -7.0551   -0.0767    1.9978 C.ar      1 <0>        -0.0677
     23 C20        -6.8986    0.5393    0.7717 C.ar      1 <0>        -0.1828
     24 N2         -3.4863   -0.6043   -3.8925 N.4       1 <0>        -0.3840
     25 C21        -2.0641   -0.2208   -4.0189 C.3       1 <0>         0.0051
     26 C22        -1.8182   -0.1105   -5.5443 C.3       1 <0>        -0.1458
     27 C23        -3.1600    0.4939   -6.0352 C.3       1 <0>        -0.1396
     28 C24        -4.1998   -0.1684   -5.1069 C.3       1 <0>        -0.0198
     29 H2          1.2444    1.8696   -0.4797 H         1 <0>         0.0598
     30 H3         -0.3736    1.9257   -1.2193 H         1 <0>         0.0567
     31 H4         -0.2063    1.8670    0.5518 H         1 <0>         0.0558
     32 H5          0.6032   -0.3472   -1.3869 H         1 <0>         0.0771
     33 H6          0.5874   -0.2253    1.6629 H         1 <0>         0.0602
     34 H7          0.9855   -1.6572    0.6834 H         1 <0>         0.0585
     35 H8          2.0381   -0.2227    0.6315 H         1 <0>         0.0682
     36 H9         -1.2784   -1.5776   -0.2654 H         1 <0>         0.0564
     37 H10        -1.7119   -0.0732    0.5814 H         1 <0>         0.0597
     38 H11        -3.4364   -1.5505   -1.4181 H         1 <0>         0.0704
     39 H12        -3.8698   -0.0461   -0.5713 H         1 <0>         0.1022
     40 H13        -6.0463    0.0199   -3.5746 H         1 <0>         0.1013
     41 H14        -5.6989   -1.3441   -2.4851 H         1 <0>         0.1019
     42 H15        -6.5859    2.3698   -0.7630 H         1 <0>         0.0958
     43 H16        -5.9500    2.3445   -2.4253 H         1 <0>         0.0814
     44 H17        -7.3993    1.8141   -4.3021 H         1 <0>         0.1126
     45 H18        -9.6990    1.8277   -5.1821 H         1 <0>         0.1242
     46 H19       -11.6106    1.8742   -3.6308 H         1 <0>         0.1262
     47 H20       -11.2226    1.9063   -1.1994 H         1 <0>         0.1265
     48 H21        -8.9230    1.8844   -0.3193 H         1 <0>         0.1229
     49 H22        -5.4518   -2.0090   -0.9201 H         1 <0>         0.1144
     50 H23        -5.7262   -3.0930    1.2723 H         1 <0>         0.1244
     51 H24        -6.7521   -1.8590    3.1381 H         1 <0>         0.1246
     52 H25        -7.5048    0.4622    2.8187 H         1 <0>         0.1275
     53 H26        -7.2252    1.5594    0.6335 H         1 <0>         0.1260
     54 H27        -1.8856    0.7396   -3.5353 H         1 <0>         0.1385
     55 H28        -1.4239   -0.9894   -3.5859 H         1 <0>         0.1341
     56 H29        -0.9863    0.5606   -5.7582 H         1 <0>         0.1156
     57 H30        -1.6483   -1.0931   -5.9845 H         1 <0>         0.0965
     58 H31        -3.1644    1.5765   -5.9083 H         1 <0>         0.0977
     59 H32        -3.3459    0.2260   -7.0752 H         1 <0>         0.1123
     60 H33        -4.6455   -1.0298   -5.6044 H         1 <0>         0.1336
     61 H34        -4.9741    0.5521   -4.8436 H         1 <0>         0.1293
     62 H35        -3.5586   -1.6062   -3.7973 H         1 <0>         0.4213
@<TRIPOS>BOND
     1    1    2 1
     2    1   29 1
     3    1   30 1
     4    1   31 1
     5    2    3 1
     6    2    4 1
     7    2   32 1
     8    3   33 1
     9    3   34 1
    10    3   35 1
    11    4    5 1
    12    4   36 1
    13    4   37 1
    14    5    6 1
    15    6    7 1
    16    6   38 1
    17    6   39 1
    18    7    8 1
    19    7    9 1
    20    7   24 1
    21    9   10 1
    22    9   40 1
    23    9   41 1
    24   10   11 1
    25   10   18 1
    26   11   12 1
    27   11   42 1
    28   11   43 1
    29   12   17 ar
    30   12   13 ar
    31   13   14 ar
    32   13   44 1
    33   14   15 ar
    34   14   45 1
    35   15   16 ar
    36   15   46 1
    37   16   17 ar
    38   16   47 1
    39   17   48 1
    40   18   23 ar
    41   18   19 ar
    42   19   20 ar
    43   19   49 1
    44   20   21 ar
    45   20   50 1
    46   21   22 ar
    47   21   51 1
    48   22   23 ar
    49   22   52 1
    50   23   53 1
    51   24   28 1
    52   24   25 1
    53   24   62 1
    54   25   26 1
    55   25   54 1
    56   25   55 1
    57   26   27 1
    58   26   56 1
    59   26   57 1
    60   27   28 1
    61   27   58 1
    62   27   59 1
    63   28   60 1
    64   28   61 1
@<TRIPOS>MOLECULE
ZINC01530939
   55    56     0     0     0
SMALL
USER_CHARGES

@<TRIPOS>ATOM
      1 C1          0.0744    1.3156    0.8085 C.3       1 <0>        -0.1531
      2 C2          0.0685   -0.2143    0.8205 C.3       1 <0>        -0.1218
      3 C3         -1.3718   -0.7197    0.7157 C.3       1 <0>        -0.1205
      4 C4         -1.3777   -2.2496    0.7277 C.3       1 <0>         0.0696
      5 O1         -2.7229   -2.7216    0.6298 O.3       1 <0>        -0.3068
      6 C5         -2.9052   -4.0652    0.6270 C.ar      1 <0>         0.3470
      7 C6         -4.2076   -4.5691    0.5268 C.ar      1 <0>        -0.1285
      8 C7         -4.4093   -5.9417    0.5226 C.ar      1 <0>        -0.0568
      9 C8         -3.2246   -6.7941    0.6252 C.ar      1 <0>        -0.0938
     10 C9         -3.3250   -8.1899    0.6288 C.ar      1 <0>        -0.0951
     11 C10        -2.1946   -8.9458    0.7258 C.ar      1 <0>        -0.1169
     12 C11        -0.9413   -8.3455    0.8217 C.ar      1 <0>        -0.0837
     13 C12        -0.8090   -6.9908    0.8210 C.ar      1 <0>        -0.1036
     14 C13        -1.9527   -6.1785    0.7220 C.ar      1 <0>         0.1666
     15 N1         -1.8541   -4.8461    0.7128 N.ar      1 <0>        -0.5131
     16 C14        -5.7670   -6.5199    0.4192 C.2       1 <0>         0.5790
     17 O2         -5.9091   -7.7226    0.3163 O.2       1 <0>        -0.5034
     18 N2         -6.8464   -5.7130    0.4391 N.am      1 <0>        -0.7269
     19 C15        -8.1910   -6.2856    0.3366 C.3       1 <0>         0.0961
     20 C16        -9.2286   -5.1623    0.3837 C.3       1 <0>        -0.0284
     21 N3        -10.5785   -5.7417    0.3705 N.4       1 <0>        -0.3820
     22 C17       -10.7959   -6.5049    1.6066 C.3       1 <0>        -0.0194
     23 C18       -12.1519   -7.2104    1.5386 C.3       1 <0>        -0.1885
     24 C19       -11.5729   -4.6643    0.2789 C.3       1 <0>        -0.0151
     25 C20       -11.4512   -3.9721   -1.0802 C.3       1 <0>        -0.1904
     26 H1          1.1005    1.6756    0.8832 H         1 <0>         0.0599
     27 H2         -0.3695    1.6733   -0.1205 H         1 <0>         0.0559
     28 H3         -0.5037    1.6878    1.6543 H         1 <0>         0.0558
     29 H4          0.6466   -0.5865   -0.0252 H         1 <0>         0.0666
     30 H5          0.5123   -0.5721    1.7496 H         1 <0>         0.0666
     31 H6         -1.9499   -0.3475    1.5615 H         1 <0>         0.0729
     32 H7         -1.8157   -0.3619   -0.2134 H         1 <0>         0.0730
     33 H8         -0.7996   -2.6218   -0.1181 H         1 <0>         0.0710
     34 H9         -0.9338   -2.6074    1.6568 H         1 <0>         0.0710
     35 H10        -5.0481   -3.8949    0.4538 H         1 <0>         0.1469
     36 H11        -4.2920   -8.6653    0.5556 H         1 <0>         0.1594
     37 H12        -2.2718  -10.0230    0.7286 H         1 <0>         0.1331
     38 H13        -0.0600   -8.9652    0.8983 H         1 <0>         0.1364
     39 H14         0.1702   -6.5416    0.8965 H         1 <0>         0.1410
     40 H15        -6.7329   -4.7532    0.5212 H         1 <0>         0.4099
     41 H16        -8.2844   -6.8273   -0.6046 H         1 <0>         0.0950
     42 H17        -8.3586   -6.9702    1.1680 H         1 <0>         0.0933
     43 H18        -9.0922   -4.5797    1.2948 H         1 <0>         0.1389
     44 H19        -9.1026   -4.5146   -0.4839 H         1 <0>         0.1421
     45 H20       -10.0055   -7.2470    1.7192 H         1 <0>         0.1334
     46 H21       -10.7816   -5.8266    2.4597 H         1 <0>         0.1320
     47 H22       -12.3132   -7.7768    2.4558 H         1 <0>         0.1082
     48 H23       -12.9423   -6.4683    1.4260 H         1 <0>         0.0814
     49 H24       -12.1661   -7.8887    0.6854 H         1 <0>         0.0820
     50 H25       -12.5735   -5.0834    0.3848 H         1 <0>         0.1367
     51 H26       -11.3968   -3.9389    1.0731 H         1 <0>         0.1310
     52 H27       -10.4343   -3.6015   -1.2094 H         1 <0>         0.0793
     53 H28       -11.6818   -4.6842   -1.8725 H         1 <0>         0.0824
     54 H29       -12.1508   -3.1375   -1.1268 H         1 <0>         0.1084
     55 H30       -10.6732   -6.3553   -0.4248 H         1 <0>         0.4257
@<TRIPOS>BOND
     1    1    2 1
     2    1   26 1
     3    1   27 1
     4    1   28 1
     5    2    3 1
     6    2   29 1
     7    2   30 1
     8    3    4 1
     9    3   31 1
    10    3   32 1
    11    4    5 1
    12    4   33 1
    13    4   34 1
    14    5    6 1
    15    6   15 ar
    16    6    7 ar
    17    7    8 ar
    18    7   35 1
    19    8    9 ar
    20    8   16 1
    21    9   14 ar
    22    9   10 ar
    23   10   11 ar
    24   10   36 1
    25   11   12 ar
    26   11   37 1
    27   12   13 ar
    28   12   38 1
    29   13   14 ar
    30   13   39 1
    31   14   15 ar
    32   16   17 2
    33   16   18 am
    34   18   19 1
    35   18   40 1
    36   19   20 1
    37   19   41 1
    38   19   42 1
    39   20   21 1
    40   20   43 1
    41   20   44 1
    42   21   22 1
    43   21   24 1
    44   21   55 1
    45   22   23 1
    46   22   45 1
    47   22   46 1
    48   23   47 1
    49   23   48 1
    50   23   49 1
    51   24   25 1
    52   24   50 1
    53   24   51 1
    54   25   52 1
    55   25   53 1
    56   25   54 1
@<TRIPOS>MOLECULE
ZINC01530812
   50    51     0     0     0
SMALL
USER_CHARGES

@<TRIPOS>ATOM
      1 C1         -4.1301   -2.9572    0.7995 C.3       1 <0>        -0.1577
      2 C2         -2.9509   -3.8692    0.4550 C.3       1 <0>        -0.1204
      3 C3         -2.0836   -3.2000   -0.6131 C.3       1 <0>        -0.1433
      4 C4         -0.9044   -4.1120   -0.9576 C.3       1 <0>        -0.0203
      5 N1         -0.0717   -3.4695   -1.9832 N.4       1 <0>        -0.3683
      6 C5         -0.8375   -3.3515   -3.2298 C.3       1 <0>        -0.0106
      7 C6         -0.0036   -2.6103   -4.2770 C.3       1 <0>        -0.1483
      8 C7          1.2867   -3.3919   -4.5407 C.3       1 <0>        -0.1343
      9 C8          2.0409   -3.5733   -3.2203 C.3       1 <0>        -0.1362
     10 C9          1.1312   -4.2788   -2.2123 C.3       1 <0>         0.0106
     11 H1          0.8431   -5.2543   -2.6042 H         1 <0>         0.1557
     12 C10         1.8694   -4.4598   -0.9110 C.2       1 <0>         0.5008
     13 O1          1.7955   -3.6101   -0.0486 O.2       1 <0>        -0.4992
     14 N2          2.6119   -5.5657   -0.7056 N.am      1 <0>        -0.6452
     15 C11         3.2041   -5.7889    0.5424 C.ar      1 <0>         0.1048
     16 C12         2.9388   -6.9606    1.2390 C.ar      1 <0>        -0.0805
     17 C13         3.5249   -7.1779    2.4705 C.ar      1 <0>        -0.1144
     18 C14         4.3753   -6.2302    3.0100 C.ar      1 <0>        -0.0972
     19 C15         4.6412   -5.0623    2.3191 C.ar      1 <0>        -0.1150
     20 C16         4.0630   -4.8417    1.0843 C.ar      1 <0>        -0.0604
     21 C17         4.3590   -3.5718    0.3288 C.3       1 <0>        -0.1091
     22 C18         2.0118   -7.9937    0.6520 C.3       1 <0>        -0.1172
     23 H2         -3.7554   -2.0066    1.1789 H         1 <0>         0.0598
     24 H3         -4.7269   -2.7814   -0.0954 H         1 <0>         0.0591
     25 H4         -4.7479   -3.4340    1.5604 H         1 <0>         0.0669
     26 H5         -2.3540   -4.0451    1.3499 H         1 <0>         0.0731
     27 H6         -3.3256   -4.8199    0.0756 H         1 <0>         0.0722
     28 H7         -2.6805   -3.0242   -1.5081 H         1 <0>         0.0867
     29 H8         -1.7089   -2.2494   -0.2337 H         1 <0>         0.0883
     30 H9         -0.3076   -4.2879   -0.0627 H         1 <0>         0.1343
     31 H10        -1.2791   -5.0627   -1.3371 H         1 <0>         0.1284
     32 H11        -1.0837   -4.3467   -3.6000 H         1 <0>         0.1310
     33 H12        -1.7570   -2.7978   -3.0399 H         1 <0>         0.1384
     34 H13        -0.5732   -2.5253   -5.2024 H         1 <0>         0.1172
     35 H14         0.2429   -1.6148   -3.9078 H         1 <0>         0.0906
     36 H15         1.0422   -4.3688   -4.9579 H         1 <0>         0.0860
     37 H16         1.9102   -2.8396   -5.2437 H         1 <0>         0.1019
     38 H17         2.9326   -4.1766   -3.3903 H         1 <0>         0.1161
     39 H18         2.3299   -2.5977   -2.8292 H         1 <0>         0.0980
     40 H19         2.7356   -6.2069   -1.4228 H         1 <0>         0.4154
     41 H20         3.3187   -8.0887    3.0129 H         1 <0>         0.1327
     42 H21         4.8324   -6.4025    3.9732 H         1 <0>         0.1323
     43 H22         5.3055   -4.3239    2.7433 H         1 <0>         0.1315
     44 H23         3.7221   -2.7700    0.7024 H         1 <0>         0.0840
     45 H24         5.4052   -3.3005    0.4700 H         1 <0>         0.0697
     46 H25         4.1637   -3.7265   -0.7323 H         1 <0>         0.0511
     47 H26         2.5951   -8.7425    0.1160 H         1 <0>         0.0780
     48 H27         1.4506   -8.4751    1.4528 H         1 <0>         0.0767
     49 H28         1.3194   -7.5106   -0.0375 H         1 <0>         0.0572
     50 H29         0.1980   -2.5496   -1.6682 H         1 <0>         0.4295
@<TRIPOS>BOND
     1    1    2 1
     2    1   23 1
     3    1   24 1
     4    1   25 1
     5    2    3 1
     6    2   26 1
     7    2   27 1
     8    3    4 1
     9    3   28 1
    10    3   29 1
    11    4    5 1
    12    4   30 1
    13    4   31 1
    14    5   10 1
    15    5    6 1
    16    5   50 1
    17    6    7 1
    18    6   32 1
    19    6   33 1
    20    7    8 1
    21    7   34 1
    22    7   35 1
    23    8    9 1
    24    8   36 1
    25    8   37 1
    26    9   10 1
    27    9   38 1
    28    9   39 1
    29   10   11 1
    30   10   12 1
    31   12   13 2
    32   12   14 am
    33   14   15 1
    34   14   40 1
    35   15   20 ar
    36   15   16 ar
    37   16   17 ar
    38   16   22 1
    39   17   18 ar
    40   17   41 1
    41   18   19 ar
    42   18   42 1
    43   19   20 ar
    44   19   43 1
    45   20   21 1
    46   21   44 1
    47   21   45 1
    48   21   46 1
    49   22   47 1
    50   22   48 1
    51   22   49 1
@<TRIPOS>MOLECULE
ZINC01530814
   50    51     0     0     0
SMALL
USER_CHARGES

@<TRIPOS>ATOM
      1 C1          0.0007    1.2716   -4.2231 C.3       1 <0>        -0.1579
      2 C2         -0.0123    0.0314   -3.3271 C.3       1 <0>        -0.1204
      3 C3          0.9355   -1.0231   -3.9020 C.3       1 <0>        -0.1434
      4 C4          0.9225   -2.2632   -3.0060 C.3       1 <0>        -0.0255
      5 N1          1.8326   -3.2757   -3.5579 N.4       1 <0>        -0.3686
      6 C5          3.2124   -2.7797   -3.4909 C.3       1 <0>        -0.0107
      7 C6          4.1557   -3.7958   -4.1382 C.3       1 <0>        -0.1484
      8 C7          4.0536   -5.1279   -3.3897 C.3       1 <0>        -0.1343
      9 C8          2.5964   -5.5988   -3.4022 C.3       1 <0>        -0.1344
     10 C9          1.7109   -4.5158   -2.7822 C.3       1 <0>         0.0108
     11 H1          2.0260   -4.3335   -1.7548 H         1 <0>         0.1555
     12 C10         0.2755   -4.9749   -2.7920 C.2       1 <0>         0.5006
     13 O1         -0.4515   -4.6728   -3.7146 O.2       1 <0>        -0.5002
     14 N2         -0.2003   -5.7212   -1.7756 N.am      1 <0>        -0.6447
     15 C11        -1.4965   -6.2444   -1.8388 C.ar      1 <0>         0.1066
     16 C12        -1.7012   -7.6126   -1.7182 C.ar      1 <0>        -0.0788
     17 C13        -2.9819   -8.1259   -1.7810 C.ar      1 <0>        -0.1131
     18 C14        -4.0596   -7.2790   -1.9639 C.ar      1 <0>        -0.0973
     19 C15        -3.8590   -5.9162   -2.0848 C.ar      1 <0>        -0.1147
     20 C16        -2.5814   -5.3960   -2.0166 C.ar      1 <0>        -0.0631
     21 C17        -2.3644   -3.9099   -2.1413 C.3       1 <0>        -0.1098
     22 C18        -0.5272   -8.5364   -1.5193 C.3       1 <0>        -0.1185
     23 H2          1.0114    1.6771   -4.2675 H         1 <0>         0.0590
     24 H3         -0.3255    0.9982   -5.2266 H         1 <0>         0.0599
     25 H4         -0.6746    2.0228   -3.8136 H         1 <0>         0.0670
     26 H5          0.3139    0.3048   -2.3236 H         1 <0>         0.0723
     27 H6         -1.0231   -0.3741   -3.2827 H         1 <0>         0.0733
     28 H7          0.6093   -1.2964   -4.9055 H         1 <0>         0.0886
     29 H8          1.9463   -0.6175   -3.9464 H         1 <0>         0.0868
     30 H9          1.2487   -1.9899   -2.0025 H         1 <0>         0.1287
     31 H10        -0.0883   -2.6688   -2.9616 H         1 <0>         0.1360
     32 H11         3.2828   -1.8300   -4.0213 H         1 <0>         0.1384
     33 H12         3.4956   -2.6344   -2.4484 H         1 <0>         0.1311
     34 H13         3.8736   -3.9417   -5.1809 H         1 <0>         0.0906
     35 H14         5.1799   -3.4265   -4.0859 H         1 <0>         0.1173
     36 H15         4.6810   -5.8714   -3.8814 H         1 <0>         0.1020
     37 H16         4.3844   -4.9937   -2.3599 H         1 <0>         0.0861
     38 H17         2.2819   -5.7820   -4.4296 H         1 <0>         0.0976
     39 H18         2.5060   -6.5182   -2.8237 H         1 <0>         0.1161
     40 H19         0.3559   -5.8956   -1.0002 H         1 <0>         0.4155
     41 H20        -3.1417   -9.1899   -1.6876 H         1 <0>         0.1332
     42 H21        -5.0601   -7.6829   -2.0127 H         1 <0>         0.1325
     43 H22        -4.7028   -5.2574   -2.2279 H         1 <0>         0.1313
     44 H23        -2.3523   -3.6316   -3.1951 H         1 <0>         0.0839
     45 H24        -3.1720   -3.3810   -1.6352 H         1 <0>         0.0714
     46 H25        -1.4120   -3.6422   -1.6839 H         1 <0>         0.0474
     47 H26        -0.3888   -8.7239   -0.4546 H         1 <0>         0.0779
     48 H27        -0.7157   -9.4792   -2.0329 H         1 <0>         0.0773
     49 H28         0.3719   -8.0741   -1.9268 H         1 <0>         0.0593
     50 H29         1.5888   -3.4568   -4.5202 H         1 <0>         0.4297
@<TRIPOS>BOND
     1    1    2 1
     2    1   23 1
     3    1   24 1
     4    1   25 1
     5    2    3 1
     6    2   26 1
     7    2   27 1
     8    3    4 1
     9    3   28 1
    10    3   29 1
    11    4    5 1
    12    4   30 1
    13    4   31 1
    14    5   10 1
    15    5    6 1
    16    5   50 1
    17    6    7 1
    18    6   32 1
    19    6   33 1
    20    7    8 1
    21    7   34 1
    22    7   35 1
    23    8    9 1
    24    8   36 1
    25    8   37 1
    26    9   10 1
    27    9   38 1
    28    9   39 1
    29   10   11 1
    30   10   12 1
    31   12   13 2
    32   12   14 am
    33   14   15 1
    34   14   40 1
    35   15   20 ar
    36   15   16 ar
    37   16   17 ar
    38   16   22 1
    39   17   18 ar
    40   17   41 1
    41   18   19 ar
    42   18   42 1
    43   19   20 ar
    44   19   43 1
    45   20   21 1
    46   21   44 1
    47   21   45 1
    48   21   46 1
    49   22   47 1
    50   22   48 1
    51   22   49 1
@<TRIPOS>MOLECULE
ZINC00020245
   46    48     0     0     0
SMALL
USER_CHARGES

@<TRIPOS>ATOM
      1 C1         -5.6836    1.3838    0.0162 C.3       1 <0>        -0.0473
      2 N1         -5.6620   -0.0833   -0.0564 N.4       1 <0>        -0.3868
      3 C2         -6.3713   -0.5242   -1.2649 C.3       1 <0>        -0.0522
      4 C3         -4.2702   -0.5505   -0.1076 C.3       1 <0>        -0.0086
      5 C4         -4.2434   -2.0795   -0.0575 C.3       1 <0>        -0.1781
      6 C5         -2.7938   -2.5661   -0.1108 C.3       1 <0>         0.1490
      7 N2         -2.7704   -4.0309   -0.1190 N.pl3     1 <0>        -0.6108
      8 C6         -2.7295   -4.7451   -1.3212 C.ar      1 <0>         0.1758
      9 C7         -1.6865   -4.4783   -2.2022 C.ar      1 <0>        -0.1411
     10 C8         -1.5734   -5.1772   -3.3856 C.ar      1 <0>        -0.1022
     11 C9         -2.5089   -6.1508   -3.6854 C.ar      1 <0>        -0.1266
     12 C10        -3.5489   -6.4041   -2.8209 C.ar      1 <0>        -0.1101
     13 C11        -3.6933   -5.6947   -1.6266 C.ar      1 <0>        -0.0998
     14 C12        -4.9357   -6.0340   -0.8354 C.3       1 <0>        -0.0687
     15 C13        -5.1005   -5.1892    0.4158 C.3       1 <0>        -0.0773
     16 C14        -3.9592   -5.4030    1.3779 C.ar      1 <0>        -0.0996
     17 C15        -2.7824   -4.7590    1.0748 C.ar      1 <0>         0.1523
     18 C16        -1.6837   -4.8488    1.9126 C.ar      1 <0>        -0.1184
     19 C17        -1.7825   -5.6251    3.0560 C.ar      1 <0>        -0.1094
     20 C18        -2.9565   -6.2950    3.3488 C.ar      1 <0>        -0.1165
     21 C19        -4.0679   -6.1865    2.5030 C.ar      1 <0>        -0.1028
     22 H1         -6.7163    1.7305    0.0542 H         1 <0>         0.1245
     23 H2         -5.1573    1.7109    0.9129 H         1 <0>         0.1235
     24 H3         -5.1933    1.7984   -0.8646 H         1 <0>         0.1221
     25 H4         -6.3552   -1.6128   -1.3188 H         1 <0>         0.1231
     26 H5         -7.4040   -0.1775   -1.2269 H         1 <0>         0.1246
     27 H6         -5.8810   -0.1096   -2.1457 H         1 <0>         0.1227
     28 H7         -3.8061   -0.2091   -1.0329 H         1 <0>         0.1308
     29 H8         -3.7207   -0.1494    0.7440 H         1 <0>         0.1320
     30 H9         -4.7075   -2.4209    0.8678 H         1 <0>         0.0908
     31 H10        -4.7929   -2.4806   -0.9091 H         1 <0>         0.0915
     32 H11        -2.3174   -2.1901   -1.0161 H         1 <0>         0.0824
     33 H12        -2.2550   -2.1990    0.7627 H         1 <0>         0.0801
     34 H13        -0.9599   -3.7176   -1.9576 H         1 <0>         0.1215
     35 H14        -0.7646   -4.9667   -4.0697 H         1 <0>         0.1276
     36 H15        -2.4229   -6.7145   -4.6025 H         1 <0>         0.1250
     37 H16        -4.2693   -7.1687   -3.0712 H         1 <0>         0.1222
     38 H17        -5.8074   -5.8880   -1.4734 H         1 <0>         0.0793
     39 H18        -4.8898   -7.0837   -0.5452 H         1 <0>         0.0765
     40 H19        -5.1365   -4.1371    0.1334 H         1 <0>         0.0724
     41 H20        -6.0358   -5.4578    0.9068 H         1 <0>         0.0709
     42 H21        -0.7686   -4.3248    1.6795 H         1 <0>         0.1257
     43 H22        -0.9372   -5.7074    3.7231 H         1 <0>         0.1275
     44 H23        -3.0178   -6.9071    4.2365 H         1 <0>         0.1269
     45 H24        -4.9880   -6.7067    2.7249 H         1 <0>         0.1290
     46 H25        -6.1159   -0.4671    0.7589 H         1 <0>         0.4268
@<TRIPOS>BOND
     1    1    2 1
     2    1   22 1
     3    1   23 1
     4    1   24 1
     5    2    3 1
     6    2    4 1
     7    2   46 1
     8    3   25 1
     9    3   26 1
    10    3   27 1
    11    4    5 1
    12    4   28 1
    13    4   29 1
    14    5    6 1
    15    5   30 1
    16    5   31 1
    17    6    7 1
    18    6   32 1
    19    6   33 1
    20    7   17 1
    21    7    8 1
    22    8   13 ar
    23    8    9 ar
    24    9   10 ar
    25    9   34 1
    26   10   11 ar
    27   10   35 1
    28   11   12 ar
    29   11   36 1
    30   12   13 ar
    31   12   37 1
    32   13   14 1
    33   14   15 1
    34   14   38 1
    35   14   39 1
    36   15   16 1
    37   15   40 1
    38   15   41 1
    39   16   21 ar
    40   16   17 ar
    41   17   18 ar
    42   18   19 ar
    43   18   42 1
    44   19   20 ar
    45   19   43 1
    46   20   21 ar
    47   20   44 1
    48   21   45 1
@<TRIPOS>MOLECULE
ZINC19796080
   50    53     0     0     0
SMALL
USER_CHARGES

@<TRIPOS>ATOM
      1 C1          1.1999   -4.3108    0.6033 C.ar      1 <0>        -0.1045
      2 C2          2.5727   -4.4705    0.6845 C.ar      1 <0>        -0.1087
      3 C3          3.4121   -3.3916    0.4876 C.ar      1 <0>        -0.1058
      4 C4          2.8775   -2.1434    0.2069 C.ar      1 <0>         0.0821
      5 C5          1.4929   -1.9824    0.1246 C.ar      1 <0>         0.0920
      6 C6          0.6582   -3.0714    0.3243 C.ar      1 <0>        -0.1043
      7 N1          1.2602   -0.6400   -0.1657 N.am      1 <0>        -0.6411
      8 H1          0.3903   -0.2272   -0.2826 H         1 <0>         0.4374
      9 C7          2.4482   -0.0129   -0.2558 C.2       1 <0>         0.6805
     10 O1          2.5995    1.1696   -0.4994 O.2       1 <0>        -0.5388
     11 N2          3.4433   -0.8928   -0.0361 N.am      1 <0>        -0.4782
     12 C8          4.8068   -0.6025   -0.0486 C.2       1 <0>         0.1066
     13 C9          5.1801    0.6473   -0.1413 C.2       1 <0>        -0.1957
     14 C10         6.6194    1.0744   -0.1715 C.3       1 <0>         0.0972
     15 N3          7.4817   -0.0094    0.3161 N.3       1 <0>        -0.5354
     16 C11         7.1733   -1.2631   -0.3915 C.3       1 <0>         0.0574
     17 C12         5.7857   -1.7388    0.0512 C.3       1 <0>        -0.0777
     18 C13         8.9009    0.3414    0.1713 C.3       1 <0>         0.0546
     19 C14         9.2330    1.5146    1.0955 C.3       1 <0>        -0.1100
     20 C15        10.7111    1.8800    0.9447 C.3       1 <0>        -0.1656
     21 C16        11.0383    3.0356    1.8550 C.2       1 <0>         0.3976
     22 O2         10.1744    3.5193    2.5554 O.2       1 <0>        -0.4447
     23 C17        12.4047    3.5766    1.8940 C.ar      1 <0>        -0.1839
     24 C18        13.4025    3.0245    1.0830 C.ar      1 <0>        -0.0433
     25 C19        14.6808    3.5361    1.1244 C.ar      1 <0>        -0.1671
     26 C20        14.9801    4.5958    1.9680 C.ar      1 <0>         0.1315
     27 C21        13.9956    5.1477    2.7746 C.ar      1 <0>        -0.1661
     28 C22        12.7118    4.6496    2.7382 C.ar      1 <0>        -0.0318
     29 F1         16.2360    5.0923    2.0046 F         1 <0>        -0.1320
     30 H2          0.5499   -5.1600    0.7544 H         1 <0>         0.1363
     31 H3          2.9889   -5.4428    0.9031 H         1 <0>         0.1365
     32 H4          4.4825   -3.5198    0.5524 H         1 <0>         0.1388
     33 H5         -0.4133   -2.9507    0.2617 H         1 <0>         0.1339
     34 H6          4.4166    1.4090   -0.1993 H         1 <0>         0.1534
     35 H7          6.8997    1.3264   -1.1943 H         1 <0>         0.0497
     36 H8          6.7489    1.9517    0.4622 H         1 <0>         0.0942
     37 H9          7.1779   -1.0872   -1.4672 H         1 <0>         0.0436
     38 H10         7.9166   -2.0191   -0.1381 H         1 <0>         0.0880
     39 H11         5.8307   -2.0892    1.0823 H         1 <0>         0.0922
     40 H12         5.4611   -2.5548   -0.5945 H         1 <0>         0.0852
     41 H13         9.5166   -0.5174    0.4387 H         1 <0>         0.0791
     42 H14         9.1015    0.6247   -0.8619 H         1 <0>         0.0377
     43 H15         8.6174    2.3734    0.8281 H         1 <0>         0.0709
     44 H16         9.0324    1.2313    2.1287 H         1 <0>         0.0801
     45 H17        11.3268    1.0212    1.2121 H         1 <0>         0.1024
     46 H18        10.9118    2.1633   -0.0885 H         1 <0>         0.1002
     47 H19        13.1710    2.1990    0.4263 H         1 <0>         0.1436
     48 H20        15.4518    3.1109    0.4990 H         1 <0>         0.1437
     49 H21        14.2351    5.9726    3.4292 H         1 <0>         0.1436
     50 H22        11.9452    5.0830    3.3634 H         1 <0>         0.1448
@<TRIPOS>BOND
     1    1    6 ar
     2    1    2 ar
     3    1   30 1
     4    2    3 ar
     5    2   31 1
     6    3    4 ar
     7    3   32 1
     8    4   11 1
     9    4    5 ar
    10    5    6 ar
    11    5    7 1
    12    6   33 1
    13    7    8 1
    14    7    9 am
    15    9   10 2
    16    9   11 am
    17   11   12 1
    18   12   17 1
    19   12   13 2
    20   13   14 1
    21   13   34 1
    22   14   15 1
    23   14   35 1
    24   14   36 1
    25   15   16 1
    26   15   18 1
    27   16   17 1
    28   16   37 1
    29   16   38 1
    30   17   39 1
    31   17   40 1
    32   18   19 1
    33   18   41 1
    34   18   42 1
    35   19   20 1
    36   19   43 1
    37   19   44 1
    38   20   21 1
    39   20   45 1
    40   20   46 1
    41   21   22 2
    42   21   23 1
    43   23   28 ar
    44   23   24 ar
    45   24   25 ar
    46   24   47 1
    47   25   26 ar
    48   25   48 1
    49   26   27 ar
    50   26   29 1
    51   27   28 ar
    52   27   49 1
    53   28   50 1
@<TRIPOS>MOLECULE
ZINC01530762
   48    48     0     0     0
SMALL
USER_CHARGES

@<TRIPOS>ATOM
      1 C1          0.5360    0.6882   -2.0245 C.3       1 <0>        -0.1516
      2 C2          0.4345   -0.8295   -2.1895 C.3       1 <0>        -0.1254
      3 C3         -0.9946   -1.2814   -1.8823 C.3       1 <0>         0.0596
      4 O1         -1.0895   -2.6989   -2.0364 O.3       1 <0>        -0.3116
      5 C4         -2.3008   -3.2652   -1.7990 C.ar      1 <0>         0.1066
      6 C5         -3.3769   -2.4698   -1.4308 C.ar      1 <0>        -0.1805
      7 C6         -4.6081   -3.0391   -1.1883 C.ar      1 <0>        -0.0781
      8 C7         -4.7767   -4.4208   -1.3132 C.ar      1 <0>        -0.1280
      9 C8         -3.6941   -5.2232   -1.6844 C.ar      1 <0>        -0.1042
     10 C9         -2.4623   -4.6452   -1.9314 C.ar      1 <0>         0.1906
     11 N1         -1.3767   -5.4443   -2.3090 N.pl3     1 <0>        -0.8670
     12 C10        -6.0939   -5.0310   -1.0534 C.2       1 <0>         0.5236
     13 O2         -6.2390   -6.2325   -1.1623 O.2       1 <0>        -0.4890
     14 O3         -7.1365   -4.2562   -0.6951 O.3       1 <0>        -0.3661
     15 C11        -8.3829   -4.9142   -0.4591 C.3       1 <0>         0.0321
     16 C12        -9.4393   -3.8796   -0.0659 C.3       1 <0>        -0.0054
     17 N2         -9.6851   -2.9762   -1.1978 N.4       1 <0>        -0.3884
     18 C13       -10.2771   -3.7332   -2.3089 C.3       1 <0>        -0.0190
     19 C14       -10.4032   -2.8257   -3.5343 C.3       1 <0>        -0.1868
     20 C15       -10.6089   -1.9119   -0.7833 C.3       1 <0>        -0.0150
     21 C16        -9.9358   -1.0360    0.2752 C.3       1 <0>        -0.1887
     22 H1          1.5542    1.0101   -2.2434 H         1 <0>         0.0687
     23 H2         -0.1549    1.1755   -2.7124 H         1 <0>         0.0583
     24 H3          0.2813    0.9601   -1.0002 H         1 <0>         0.0587
     25 H4          0.6893   -1.1015   -3.2138 H         1 <0>         0.0755
     26 H5          1.1255   -1.3168   -1.5016 H         1 <0>         0.0758
     27 H6         -1.2494   -1.0094   -0.8580 H         1 <0>         0.0660
     28 H7         -1.6856   -0.7941   -2.5702 H         1 <0>         0.0653
     29 H8         -3.2488   -1.4018   -1.3337 H         1 <0>         0.1394
     30 H9         -5.4432   -2.4172   -0.9012 H         1 <0>         0.1322
     31 H10        -3.8202   -6.2914   -1.7819 H         1 <0>         0.1447
     32 H11        -0.5119   -5.0390   -2.4787 H         1 <0>         0.4092
     33 H12        -1.4893   -6.4034   -2.4009 H         1 <0>         0.4041
     34 H13        -8.6990   -5.4297   -1.3659 H         1 <0>         0.0931
     35 H14        -8.2648   -5.6375    0.3477 H         1 <0>         0.1157
     36 H15       -10.3655   -4.3892    0.2001 H         1 <0>         0.1509
     37 H16        -9.0834   -3.3035    0.7882 H         1 <0>         0.1450
     38 H17        -9.6388   -4.5831   -2.5504 H         1 <0>         0.1286
     39 H18       -11.2648   -4.0914   -2.0189 H         1 <0>         0.1324
     40 H19       -11.1236   -2.0342   -3.3277 H         1 <0>         0.0819
     41 H20        -9.4328   -2.3838   -3.7605 H         1 <0>         0.0801
     42 H21       -10.7429   -3.4126   -4.3876 H         1 <0>         0.1067
     43 H22       -10.8708   -1.3012   -1.6473 H         1 <0>         0.1332
     44 H23       -11.5121   -2.3570   -0.3658 H         1 <0>         0.1305
     45 H24        -9.7745   -1.6201    1.1812 H         1 <0>         0.0808
     46 H25        -8.9774   -0.6804   -0.1033 H         1 <0>         0.0809
     47 H26       -10.5758   -0.1833    0.5018 H         1 <0>         0.1065
     48 H27        -8.8127   -2.5667   -1.4969 H         1 <0>         0.4280
@<TRIPOS>BOND
     1    1    2 1
     2    1   22 1
     3    1   23 1
     4    1   24 1
     5    2    3 1
     6    2   25 1
     7    2   26 1
     8    3    4 1
     9    3   27 1
    10    3   28 1
    11    4    5 1
    12    5   10 ar
    13    5    6 ar
    14    6    7 ar
    15    6   29 1
    16    7    8 ar
    17    7   30 1
    18    8    9 ar
    19    8   12 1
    20    9   10 ar
    21    9   31 1
    22   10   11 1
    23   11   32 1
    24   11   33 1
    25   12   13 2
    26   12   14 1
    27   14   15 1
    28   15   16 1
    29   15   34 1
    30   15   35 1
    31   16   17 1
    32   16   36 1
    33   16   37 1
    34   17   18 1
    35   17   20 1
    36   17   48 1
    37   18   19 1
    38   18   38 1
    39   18   39 1
    40   19   40 1
    41   19   41 1
    42   19   42 1
    43   20   21 1
    44   20   43 1
    45   20   44 1
    46   21   45 1
    47   21   46 1
    48   21   47 1
@<TRIPOS>MOLECULE
ZINC00000365
   43    44     0     0     0
SMALL
USER_CHARGES

@<TRIPOS>ATOM
      1 C1         -0.0187    1.5258    0.0104 C.3       1 <0>        -0.1743
      2 C2          0.0021   -0.0041    0.0020 C.3       1 <0>         0.0597
      3 H1          0.5123   -0.3556   -0.8948 H         1 <0>         0.1079
      4 C3         -1.4333   -0.5336    0.0129 C.3       1 <0>        -0.0053
      5 N1         -1.4134   -2.0025    0.0048 N.4       1 <0>        -0.5105
      6 C4         -2.7915   -2.5110    0.0152 C.3       1 <0>         0.0248
      7 C5         -3.4685   -2.1226    1.3312 C.3       1 <0>        -0.1413
      8 C6         -4.9039   -2.6522    1.3421 C.3       1 <0>        -0.1177
      9 C7         -4.8862   -4.1762    1.2080 C.3       1 <0>        -0.1323
     10 C8         -4.2093   -4.5646   -0.1080 C.3       1 <0>        -0.1173
     11 C9         -2.7739   -4.0350   -0.1189 C.3       1 <0>        -0.1415
     12 O1          0.6932   -0.4774    1.1597 O.3       1 <0>        -0.3593
     13 C10         2.0226   -0.6627    1.0452 C.2       1 <0>         0.5151
     14 O2          2.5799   -0.4288   -0.0084 O.2       1 <0>        -0.4850
     15 C11         2.8027   -1.1502    2.2011 C.ar      1 <0>        -0.1419
     16 C12         2.1644   -1.4255    3.4120 C.ar      1 <0>        -0.0653
     17 C13         2.8989   -1.8805    4.4874 C.ar      1 <0>        -0.1313
     18 C14         4.2651   -2.0642    4.3680 C.ar      1 <0>        -0.0705
     19 C15         4.9041   -1.7929    3.1711 C.ar      1 <0>        -0.1257
     20 C16         4.1808   -1.3433    2.0859 C.ar      1 <0>        -0.0494
     21 H2          1.0039    1.9031    0.0027 H         1 <0>         0.0837
     22 H3         -0.5459    1.8868   -0.8726 H         1 <0>         0.0886
     23 H4         -0.5289    1.8773    0.9072 H         1 <0>         0.0802
     24 H5         -1.9435   -0.1821    0.9097 H         1 <0>         0.1462
     25 H6         -1.9605   -0.1726   -0.8702 H         1 <0>         0.1532
     26 H7         -0.9411   -2.3279   -0.8254 H         1 <0>         0.4277
     27 H8         -3.3444   -2.0792   -0.8190 H         1 <0>         0.1410
     28 H9         -2.9156   -2.5543    2.1655 H         1 <0>         0.0881
     29 H10        -3.4811   -1.0368    1.4267 H         1 <0>         0.0873
     30 H11        -5.3862   -2.3755    2.2796 H         1 <0>         0.0854
     31 H12        -5.4568   -2.2204    0.5078 H         1 <0>         0.0749
     32 H13        -4.3333   -4.6079    2.0422 H         1 <0>         0.0706
     33 H14        -5.9088   -4.5534    1.2157 H         1 <0>         0.0800
     34 H15        -4.1967   -5.6503   -0.2035 H         1 <0>         0.0856
     35 H16        -4.7622   -4.1328   -0.9423 H         1 <0>         0.0751
     36 H17        -2.2916   -4.3117   -1.0564 H         1 <0>         0.0878
     37 H18        -2.2210   -4.4667    0.7154 H         1 <0>         0.0874
     38 H19         1.0981   -1.2822    3.5067 H         1 <0>         0.1346
     39 H20         2.4065   -2.0935    5.4247 H         1 <0>         0.1366
     40 H21         4.8354   -2.4206    5.2131 H         1 <0>         0.1369
     41 H22         5.9708   -1.9378    3.0849 H         1 <0>         0.1401
     42 H23         4.6800   -1.1366    1.1508 H         1 <0>         0.1404
     43 H24        -0.9254   -2.3367    0.8222 H         1 <0>         0.4296
@<TRIPOS>BOND
     1    1    2 1
     2    1   21 1
     3    1   22 1
     4    1   23 1
     5    2    3 1
     6    2    4 1
     7    2   12 1
     8    4    5 1
     9    4   24 1
    10    4   25 1
    11    5    6 1
    12    5   26 1
    13    5   43 1
    14    6   11 1
    15    6    7 1
    16    6   27 1
    17    7    8 1
    18    7   28 1
    19    7   29 1
    20    8    9 1
    21    8   30 1
    22    8   31 1
    23    9   10 1
    24    9   32 1
    25    9   33 1
    26   10   11 1
    27   10   34 1
    28   10   35 1
    29   11   36 1
    30   11   37 1
    31   12   13 1
    32   13   14 2
    33   13   15 1
    34   15   20 ar
    35   15   16 ar
    36   16   17 ar
    37   16   38 1
    38   17   18 ar
    39   17   39 1
    40   18   19 ar
    41   18   40 1
    42   19   20 ar
    43   19   41 1
    44   20   42 1
@<TRIPOS>MOLECULE
ZINC02034892
   43    44     0     0     0
SMALL
USER_CHARGES

@<TRIPOS>ATOM
      1 C1         -0.0187    1.5258    0.0104 C.3       1 <0>        -0.1743
      2 C2          0.0021   -0.0041    0.0020 C.3       1 <0>         0.0598
      3 H1          0.5123   -0.3556   -0.8948 H         1 <0>         0.1070
      4 C3          0.7421   -0.5109    1.2415 C.3       1 <0>        -0.0057
      5 N1          0.8668   -1.9730    1.1737 N.4       1 <0>        -0.5108
      6 C4          1.5773   -2.4597    2.3638 C.3       1 <0>         0.0251
      7 C5          3.0126   -1.9301    2.3529 C.3       1 <0>        -0.1423
      8 C6          3.7526   -2.4369    3.5924 C.3       1 <0>        -0.1177
      9 C7          3.7734   -3.9667    3.5840 C.3       1 <0>        -0.1324
     10 C8          2.3380   -4.4963    3.5949 C.3       1 <0>        -0.1173
     11 C9          1.5980   -3.9895    2.3554 C.3       1 <0>        -0.1415
     12 O1         -1.3386   -0.4987    0.0122 O.3       1 <0>        -0.3575
     13 C10        -1.9238   -0.7039   -1.1837 C.2       1 <0>         0.5150
     14 O2         -1.3128   -0.4695   -2.2071 O.2       1 <0>        -0.4861
     15 C11        -3.3085   -1.2141   -1.2505 C.ar      1 <0>        -0.1422
     16 C12        -4.0156   -1.4793   -0.0761 C.ar      1 <0>        -0.0647
     17 C13        -5.3084   -1.9556   -0.1458 C.ar      1 <0>        -0.1314
     18 C14        -5.9044   -2.1707   -1.3758 C.ar      1 <0>        -0.0705
     19 C15        -5.2093   -1.9105   -2.5436 C.ar      1 <0>        -0.1261
     20 C16        -3.9181   -1.4280   -2.4884 C.ar      1 <0>        -0.0494
     21 H2          1.0039    1.9031    0.0027 H         1 <0>         0.0883
     22 H3         -0.5459    1.8868   -0.8726 H         1 <0>         0.0837
     23 H4         -0.5289    1.8773    0.9072 H         1 <0>         0.0807
     24 H5          1.7350   -0.0630    1.2804 H         1 <0>         0.1539
     25 H6          0.1838   -0.2350    2.1361 H         1 <0>         0.1461
     26 H7         -0.0524   -2.3877    1.1377 H         1 <0>         0.4312
     27 H8          1.0671   -2.1081    3.2606 H         1 <0>         0.1414
     28 H9          3.5228   -2.2816    1.4561 H         1 <0>         0.0880
     29 H10         2.9979   -0.8402    2.3589 H         1 <0>         0.0871
     30 H11         4.7752   -2.0596    3.5847 H         1 <0>         0.0855
     31 H12         3.2424   -2.0854    4.4892 H         1 <0>         0.0752
     32 H13         4.2836   -4.3183    2.6872 H         1 <0>         0.0706
     33 H14         4.3006   -4.3278    4.4671 H         1 <0>         0.0802
     34 H15         2.3528   -5.5862    3.5889 H         1 <0>         0.0857
     35 H16         1.8278   -4.1448    4.4917 H         1 <0>         0.0752
     36 H17         0.5754   -4.3668    2.3631 H         1 <0>         0.0880
     37 H18         2.1082   -4.3410    1.4586 H         1 <0>         0.0873
     38 H19        -3.5514   -1.3122    0.8846 H         1 <0>         0.1351
     39 H20        -5.8563   -2.1614    0.7618 H         1 <0>         0.1367
     40 H21        -6.9168   -2.5437   -1.4247 H         1 <0>         0.1369
     41 H22        -5.6802   -2.0813   -3.5004 H         1 <0>         0.1400
     42 H23        -3.3783   -1.2207   -3.4006 H         1 <0>         0.1403
     43 H24         1.3836   -2.2284    0.3456 H         1 <0>         0.4257
@<TRIPOS>BOND
     1    1    2 1
     2    1   21 1
     3    1   22 1
     4    1   23 1
     5    2    3 1
     6    2    4 1
     7    2   12 1
     8    4    5 1
     9    4   24 1
    10    4   25 1
    11    5    6 1
    12    5   26 1
    13    5   43 1
    14    6   11 1
    15    6    7 1
    16    6   27 1
    17    7    8 1
    18    7   28 1
    19    7   29 1
    20    8    9 1
    21    8   30 1
    22    8   31 1
    23    9   10 1
    24    9   32 1
    25    9   33 1
    26   10   11 1
    27   10   34 1
    28   10   35 1
    29   11   36 1
    30   11   37 1
    31   12   13 1
    32   13   14 2
    33   13   15 1
    34   15   20 ar
    35   15   16 ar
    36   16   17 ar
    37   16   38 1
    38   17   18 ar
    39   17   39 1
    40   18   19 ar
    41   18   40 1
    42   19   20 ar
    43   19   41 1
    44   20   42 1
@<TRIPOS>MOLECULE
ZINC02019492
   51    51     0     0     0
SMALL
USER_CHARGES

@<TRIPOS>ATOM
      1 C1          0.4879    1.5443   -0.5521 C.3       1 <0>        -0.1540
      2 C2          0.4330    0.0166   -0.4889 C.3       1 <0>        -0.1217
      3 C3         -1.0269   -0.4411   -0.4738 C.3       1 <0>        -0.1200
      4 C4         -1.0818   -1.9688   -0.4106 C.3       1 <0>         0.0607
      5 O1         -2.4452   -2.3962   -0.3966 O.3       1 <0>        -0.3156
      6 C5         -2.6717   -3.7363   -0.3416 C.ar      1 <0>         0.0465
      7 C6         -1.6083   -4.6147   -0.2966 C.ar      1 <0>        -0.0939
      8 C7         -1.8446   -5.9922   -0.2402 C.ar      1 <0>        -0.1721
      9 C8         -3.1571   -6.4739   -0.2296 C.ar      1 <0>        -0.0371
     10 C9         -4.2144   -5.5931   -0.2751 C.ar      1 <0>        -0.1911
     11 C10        -3.9802   -4.2232   -0.3249 C.ar      1 <0>         0.2501
     12 N1         -5.0527   -3.3357   -0.3640 N.pl3     1 <0>        -0.8511
     13 C11        -0.7121   -6.9342   -0.1925 C.2       1 <0>         0.5249
     14 O2          0.4262   -6.5215   -0.2961 O.2       1 <0>        -0.4967
     15 O3         -0.9389   -8.2531   -0.0341 O.3       1 <0>        -0.3674
     16 C12         0.2061   -9.0948    0.1159 C.3       1 <0>         0.0325
     17 C13        -0.2389  -10.5580    0.1606 C.3       1 <0>        -0.0062
     18 N2         -0.8522  -10.9228   -1.1234 N.4       1 <0>        -0.3883
     19 C14         0.1649  -10.8771   -2.1824 C.3       1 <0>        -0.0187
     20 C15        -0.4976  -11.1347   -3.5373 C.3       1 <0>        -0.1876
     21 C16        -1.4051  -12.2808   -1.0338 C.3       1 <0>        -0.0160
     22 C17        -2.5691  -12.2931   -0.0409 C.3       1 <0>        -0.1894
     23 H1          1.5279    1.8704   -0.5629 H         1 <0>         0.0595
     24 H2         -0.0102    1.8886   -1.4585 H         1 <0>         0.0569
     25 H3         -0.0149    1.9624    0.3199 H         1 <0>         0.0571
     26 H4          0.9358   -0.4014   -1.3610 H         1 <0>         0.0651
     27 H5          0.9311   -0.3276    0.4174 H         1 <0>         0.0654
     28 H6         -1.5297   -0.0230    0.3982 H         1 <0>         0.0755
     29 H7         -1.5250   -0.0968   -1.3802 H         1 <0>         0.0753
     30 H8         -0.5789   -2.3868   -1.2827 H         1 <0>         0.0634
     31 H9         -0.5837   -2.3130    0.4957 H         1 <0>         0.0635
     32 H10        -0.5957   -4.2393   -0.3054 H         1 <0>         0.1434
     33 H11        -3.3416   -7.5371   -0.1860 H         1 <0>         0.1334
     34 H12        -5.2277   -5.9667   -0.2675 H         1 <0>         0.1402
     35 H13        -4.8903   -2.3802   -0.4029 H         1 <0>         0.4118
     36 H14        -5.9620   -3.6731   -0.3525 H         1 <0>         0.4064
     37 H15         0.8798   -8.9456   -0.7279 H         1 <0>         0.0932
     38 H16         0.7228   -8.8437    1.0422 H         1 <0>         0.1145
     39 H17         0.6260  -11.1954    0.3442 H         1 <0>         0.1507
     40 H18        -0.9658  -10.6923    0.9617 H         1 <0>         0.1454
     41 H19         0.6376   -9.8950   -2.1900 H         1 <0>         0.1285
     42 H20         0.9188  -11.6418   -1.9953 H         1 <0>         0.1322
     43 H21         0.2570  -11.1008   -4.3230 H         1 <0>         0.1070
     44 H22        -0.9704  -12.1168   -3.5297 H         1 <0>         0.0817
     45 H23        -1.2515  -10.3700   -3.7243 H         1 <0>         0.0807
     46 H24        -1.7613  -12.5936   -2.0152 H         1 <0>         0.1339
     47 H25        -0.6297  -12.9670   -0.6930 H         1 <0>         0.1302
     48 H26        -2.2297  -11.9107    0.9217 H         1 <0>         0.0802
     49 H27        -3.3751  -11.6636   -0.4182 H         1 <0>         0.0821
     50 H28        -2.9319  -13.3136    0.0810 H         1 <0>         0.1067
     51 H29        -1.5923  -10.2720   -1.3396 H         1 <0>         0.4280
@<TRIPOS>BOND
     1    1    2 1
     2    1   23 1
     3    1   24 1
     4    1   25 1
     5    2    3 1
     6    2   26 1
     7    2   27 1
     8    3    4 1
     9    3   28 1
    10    3   29 1
    11    4    5 1
    12    4   30 1
    13    4   31 1
    14    5    6 1
    15    6   11 ar
    16    6    7 ar
    17    7    8 ar
    18    7   32 1
    19    8    9 ar
    20    8   13 1
    21    9   10 ar
    22    9   33 1
    23   10   11 ar
    24   10   34 1
    25   11   12 1
    26   12   35 1
    27   12   36 1
    28   13   14 2
    29   13   15 1
    30   15   16 1
    31   16   17 1
    32   16   37 1
    33   16   38 1
    34   17   18 1
    35   17   39 1
    36   17   40 1
    37   18   19 1
    38   18   21 1
    39   18   51 1
    40   19   20 1
    41   19   41 1
    42   19   42 1
    43   20   43 1
    44   20   44 1
    45   20   45 1
    46   21   22 1
    47   21   46 1
    48   21   47 1
    49   22   48 1
    50   22   49 1
    51   22   50 1
@<TRIPOS>MOLECULE
ZINC22454221
   88    90     0     0     0
SMALL
USER_CHARGES

@<TRIPOS>ATOM
      1 C1         -0.0173    1.4248    0.0099 C.3       1 <0>         0.0200
      2 O1          0.0021   -0.0041    0.0020 O.3       1 <0>        -0.2946
      3 C2         -1.2012   -0.6379    0.0101 C.ar      1 <0>         0.1420
      4 C3         -2.3700    0.0996    0.0194 C.ar      1 <0>        -0.1659
      5 C4         -3.6062   -0.5525    0.0273 C.ar      1 <0>        -0.0624
      6 C5         -3.6566   -1.9492    0.0257 C.ar      1 <0>        -0.1776
      7 C6         -2.4846   -2.6817    0.0163 C.ar      1 <0>         0.1371
      8 C7         -1.2544   -2.0294    0.0031 C.ar      1 <0>         0.0747
      9 O2         -0.1038   -2.7520   -0.0117 O.3       1 <0>        -0.3113
     10 C8          0.4577   -3.1038    1.2543 C.3       1 <0>         0.0355
     11 O3         -2.5330   -4.0409    0.0151 O.3       1 <0>        -0.2955
     12 C9         -3.8284   -4.6440    0.0239 C.3       1 <0>         0.0229
     13 C10        -4.8550    0.2318    0.0378 C.2       1 <0>         0.5203
     14 O4         -4.8099    1.4461    0.0396 O.2       1 <0>        -0.4891
     15 O5         -6.0462   -0.3981    0.0453 O.3       1 <0>        -0.3470
     16 C11        -7.2149    0.4242    0.0553 C.3       1 <0>         0.0683
     17 C12        -8.4620   -0.4621    0.0628 C.3       1 <0>        -0.1507
     18 C13        -9.7133    0.4182    0.0734 C.3       1 <0>        -0.0052
     19 N1        -10.9107   -0.4327    0.0806 N.4       1 <0>        -0.3766
     20 C14       -10.9833   -1.1614    1.3245 C.3       1 <0>        -0.0200
     21 C15       -11.5786   -2.5697    1.1316 C.3       1 <0>        -0.1327
     22 C16       -12.7718   -2.5664    0.1553 C.3       1 <0>         0.0223
     23 N2        -13.6577   -1.4443    0.3519 N.3       1 <0>        -0.5362
     24 C17       -13.2776   -0.3225   -0.5425 C.3       1 <0>         0.0164
     25 C18       -12.1194    0.4068   -0.0302 C.3       1 <0>         0.0034
     26 C19       -15.0577   -1.8354    0.1400 C.3       1 <0>         0.0584
     27 C20       -15.4801   -2.8272    1.2258 C.3       1 <0>        -0.1180
     28 C21       -16.9383   -3.2345    1.0051 C.3       1 <0>         0.0651
     29 O6        -17.3328   -4.1608    2.0192 O.3       1 <0>        -0.3466
     30 C22       -18.5982   -4.6212    1.9684 C.2       1 <0>         0.5159
     31 O7        -19.3461   -4.2465    1.0872 O.2       1 <0>        -0.4931
     32 C23       -19.0752   -5.5800    2.9824 C.ar      1 <0>        -0.0585
     33 C24       -18.2177   -6.0075    3.9998 C.ar      1 <0>        -0.1772
     34 C25       -18.6674   -6.9062    4.9487 C.ar      1 <0>         0.1369
     35 C26       -19.9734   -7.3859    4.8914 C.ar      1 <0>         0.0711
     36 C27       -20.8298   -6.9620    3.8786 C.ar      1 <0>         0.1413
     37 C28       -20.3874   -6.0584    2.9309 C.ar      1 <0>        -0.1676
     38 O8        -22.1046   -7.4329    3.8254 O.3       1 <0>        -0.2956
     39 C29       -22.9284   -6.9559    2.7596 C.3       1 <0>         0.0203
     40 O9        -20.4128   -8.2696    5.8254 O.3       1 <0>        -0.3116
     41 C30       -21.0098   -7.7249    7.0039 C.3       1 <0>         0.0356
     42 O10       -17.8335   -7.3226    5.9391 O.3       1 <0>        -0.2966
     43 C31       -16.5073   -6.7905    5.9371 C.3       1 <0>         0.0227
     44 H1          1.0053    1.8021    0.0021 H         1 <0>         0.1107
     45 H2         -0.5445    1.7859   -0.8732 H         1 <0>         0.0618
     46 H3         -0.5275    1.7763    0.9067 H         1 <0>         0.0607
     47 H4         -2.3281    1.1788    0.0211 H         1 <0>         0.1529
     48 H5         -4.6105   -2.4556    0.0321 H         1 <0>         0.1490
     49 H6          1.3714   -3.6777    1.0997 H         1 <0>         0.1002
     50 H7          0.6883   -2.1974    1.8141 H         1 <0>         0.0491
     51 H8         -0.2583   -3.7048    1.8150 H         1 <0>         0.0482
     52 H9         -4.3682   -4.3324    0.9182 H         1 <0>         0.0576
     53 H10        -4.3812   -4.3305   -0.8617 H         1 <0>         0.0587
     54 H11        -3.7241   -5.7289    0.0220 H         1 <0>         0.1082
     55 H12        -7.2099    1.0519    0.9463 H         1 <0>         0.0815
     56 H13        -7.2228    1.0550   -0.8336 H         1 <0>         0.0814
     57 H14        -8.4670   -1.0899   -0.8283 H         1 <0>         0.0998
     58 H15        -8.4540   -1.0930    0.9516 H         1 <0>         0.1009
     59 H16        -9.7083    1.0460    0.9645 H         1 <0>         0.1374
     60 H17        -9.7212    1.0491   -0.8154 H         1 <0>         0.1368
     61 H18        -9.9801   -1.2542    1.7405 H         1 <0>         0.1274
     62 H19       -11.6064   -0.6059    2.0253 H         1 <0>         0.1349
     63 H20       -10.8044   -3.2310    0.7423 H         1 <0>         0.0919
     64 H21       -11.9125   -2.9484    2.0976 H         1 <0>         0.1110
     65 H22       -12.3902   -2.5376   -0.8653 H         1 <0>         0.0464
     66 H23       -13.3379   -3.4882    0.2898 H         1 <0>         0.1006
     67 H24       -13.0401   -0.7192   -1.5295 H         1 <0>         0.0652
     68 H25       -14.1199    0.3639   -0.6297 H         1 <0>         0.1265
     69 H26       -12.3626    0.8032    0.9556 H         1 <0>         0.1386
     70 H27       -11.9067    1.2412   -0.6984 H         1 <0>         0.1344
     71 H28       -15.6933   -0.9512    0.1885 H         1 <0>         0.0918
     72 H29       -15.1601   -2.3032   -0.8391 H         1 <0>         0.0519
     73 H30       -14.8446   -3.7114    1.1773 H         1 <0>         0.0775
     74 H31       -15.3777   -2.3593    2.2049 H         1 <0>         0.0882
     75 H32       -17.5738   -2.3503    1.0536 H         1 <0>         0.0738
     76 H33       -17.0407   -3.7023    0.0260 H         1 <0>         0.0711
     77 H34       -17.2045   -5.6363    4.0443 H         1 <0>         0.1498
     78 H35       -21.0535   -5.7262    2.1484 H         1 <0>         0.1523
     79 H36       -22.4773   -7.2232    1.8040 H         1 <0>         0.0615
     80 H37       -23.9171   -7.4087    2.8340 H         1 <0>         0.1097
     81 H38       -23.0192   -5.8718    2.8279 H         1 <0>         0.0605
     82 H39       -21.3158   -8.5361    7.6644 H         1 <0>         0.0991
     83 H40       -20.2870   -7.0910    7.5176 H         1 <0>         0.0477
     84 H41       -21.8820   -7.1319    6.7285 H         1 <0>         0.0485
     85 H42       -16.0103   -7.0570    5.0043 H         1 <0>         0.0590
     86 H43       -16.5511   -5.7052    6.0282 H         1 <0>         0.0583
     87 H44       -15.9488   -7.2033    6.7772 H         1 <0>         0.1070
     88 H45       -10.8733   -1.0800   -0.6925 H         1 <0>         0.4198
@<TRIPOS>BOND
     1    1    2 1
     2    1   44 1
     3    1   45 1
     4    1   46 1
     5    2    3 1
     6    3    8 ar
     7    3    4 ar
     8    4    5 ar
     9    4   47 1
    10    5    6 ar
    11    5   13 1
    12    6    7 ar
    13    6   48 1
    14    7    8 ar
    15    7   11 1
    16    8    9 1
    17    9   10 1
    18   10   49 1
    19   10   50 1
    20   10   51 1
    21   11   12 1
    22   12   52 1
    23   12   53 1
    24   12   54 1
    25   13   14 2
    26   13   15 1
    27   15   16 1
    28   16   17 1
    29   16   55 1
    30   16   56 1
    31   17   18 1
    32   17   57 1
    33   17   58 1
    34   18   19 1
    35   18   59 1
    36   18   60 1
    37   19   25 1
    38   19   20 1
    39   19   88 1
    40   20   21 1
    41   20   61 1
    42   20   62 1
    43   21   22 1
    44   21   63 1
    45   21   64 1
    46   22   23 1
    47   22   65 1
    48   22   66 1
    49   23   24 1
    50   23   26 1
    51   24   25 1
    52   24   67 1
    53   24   68 1
    54   25   69 1
    55   25   70 1
    56   26   27 1
    57   26   71 1
    58   26   72 1
    59   27   28 1
    60   27   73 1
    61   27   74 1
    62   28   29 1
    63   28   75 1
    64   28   76 1
    65   29   30 1
    66   30   31 2
    67   30   32 1
    68   32   37 ar
    69   32   33 ar
    70   33   34 ar
    71   33   77 1
    72   34   35 ar
    73   34   42 1
    74   35   36 ar
    75   35   40 1
    76   36   37 ar
    77   36   38 1
    78   37   78 1
    79   38   39 1
    80   39   79 1
    81   39   80 1
    82   39   81 1
    83   40   41 1
    84   41   82 1
    85   41   83 1
    86   41   84 1
    87   42   43 1
    88   43   85 1
    89   43   86 1
    90   43   87 1
@<TRIPOS>MOLECULE
ZINC05341390
   54    56     0     0     0
SMALL
USER_CHARGES
(1-ethyl-3-piperidyl) 2-cyclopentyl-2-hydroxy-2-phenyl-acetate
@<TRIPOS>ATOM
      1 C1         -0.7340    1.9582    1.2689 C.3       1 <0>        -0.1888
      2 C2         -0.0178    1.4648    0.0101 C.3       1 <0>        -0.0043
      3 C3         -1.3553   -0.5480   -0.1324 C.3       1 <0>        -0.0091
      4 C4         -1.2840   -2.0693   -0.2833 C.3       1 <0>        -0.1419
      5 C5         -0.5936   -2.6674    0.9456 C.3       1 <0>        -0.1554
      6 C6          0.7994   -2.0486    1.0904 C.3       1 <0>         0.0643
      7 H1          1.4014   -2.2989    0.2169 H         1 <0>         0.1039
      8 C7          0.6677   -0.5279    1.2015 C.3       1 <0>        -0.0040
      9 O1          1.4393   -2.5691    2.2854 O.3       1 <0>        -0.3271
     10 C8          2.1728   -3.6847    2.1471 C.2       1 <0>         0.4456
     11 O2          2.2769   -4.2089    1.0635 O.2       1 <0>        -0.4755
     12 C9          2.8667   -4.2834    3.3435 C.3       1 <0>         0.2132
     13 C10         3.0824   -5.7570    3.1137 C.ar      1 <0>        -0.1176
     14 C11         4.2415   -6.1990    2.5037 C.ar      1 <0>        -0.0887
     15 C12         4.4414   -7.5511    2.2968 C.ar      1 <0>        -0.1152
     16 C13         3.4781   -8.4606    2.6917 C.ar      1 <0>        -0.1028
     17 C14         2.3167   -8.0182    3.2970 C.ar      1 <0>        -0.1145
     18 C15         2.1187   -6.6664    3.5077 C.ar      1 <0>        -0.1054
     19 C16         4.2182   -3.5956    3.5462 C.3       1 <0>        -0.0843
     20 C17         4.8833   -4.0693    4.8624 C.3       1 <0>        -0.1091
     21 C18         5.8441   -2.9215    5.2353 C.3       1 <0>        -0.1271
     22 C19         5.3021   -1.6546    4.5505 C.3       1 <0>        -0.1245
     23 C20         4.0309   -2.0768    3.7854 C.3       1 <0>        -0.1154
     24 O3          2.0577   -4.0961    4.5064 O.3       1 <0>        -0.5205
     25 H2         -0.2068    1.5971    2.1520 H         1 <0>         0.0813
     26 H3         -0.7488    3.0481    1.2749 H         1 <0>         0.1074
     27 H4         -1.7566    1.5809    1.2766 H         1 <0>         0.0803
     28 H5          1.0047    1.8421    0.0024 H         1 <0>         0.1303
     29 H6         -0.5450    1.8259   -0.8730 H         1 <0>         0.1332
     30 H7         -1.9363   -0.2980    0.7554 H         1 <0>         0.1348
     31 H8         -1.8334   -0.1179   -1.0124 H         1 <0>         0.1353
     32 H9         -2.2925   -2.4743   -0.3673 H         1 <0>         0.1213
     33 H10        -0.7148   -2.3199   -1.1784 H         1 <0>         0.0916
     34 H11        -1.1831   -2.4502    1.8364 H         1 <0>         0.0946
     35 H12        -0.5019   -3.7466    0.8227 H         1 <0>         0.0983
     36 H13         1.6589   -0.0831    1.2904 H         1 <0>         0.1375
     37 H14         0.0773   -0.2780    2.0830 H         1 <0>         0.1457
     38 H15         4.9924   -5.4882    2.1918 H         1 <0>         0.1254
     39 H16         5.3489   -7.8968    1.8243 H         1 <0>         0.1297
     40 H17         3.6330   -9.5167    2.5277 H         1 <0>         0.1292
     41 H18         1.5641   -8.7287    3.6055 H         1 <0>         0.1291
     42 H19         1.2114   -6.3208    3.9806 H         1 <0>         0.1198
     43 H20         4.8728   -3.7744    2.6932 H         1 <0>         0.0966
     44 H21         4.1329   -4.2069    5.6410 H         1 <0>         0.0843
     45 H22         5.4380   -4.9932    4.6985 H         1 <0>         0.0697
     46 H23         6.8479   -3.1419    4.8721 H         1 <0>         0.0660
     47 H24         5.8597   -2.7839    6.3165 H         1 <0>         0.0697
     48 H25         6.0429   -1.2602    3.8549 H         1 <0>         0.0635
     49 H26         5.0546   -0.9022    5.2993 H         1 <0>         0.0679
     50 H27         3.9635   -1.5465    2.8354 H         1 <0>         0.0547
     51 H28         3.1415   -1.8923    4.3880 H         1 <0>         0.0844
     52 H29         1.1841   -4.5067    4.4482 H         1 <0>         0.3825
     53 N1          0.0180   -0.0119   -0.0222 N.4       1 <0>        -0.3901
     54 H30         0.5601   -0.3144   -0.8400 H         1 <0>         0.4301
@<TRIPOS>BOND
     1    1    2 1
     2    1   25 1
     3    1   26 1
     4    1   27 1
     5    2   28 1
     6    2   29 1
     7    2   53 1
     8    3    4 1
     9    3   30 1
    10    3   31 1
    11    3   53 1
    12    4    5 1
    13    4   32 1
    14    4   33 1
    15    5    6 1
    16    5   34 1
    17    5   35 1
    18    6    7 1
    19    6    8 1
    20    6    9 1
    21    8   36 1
    22    8   37 1
    23    8   53 1
    24    9   10 1
    25   10   11 2
    26   10   12 1
    27   12   13 1
    28   12   19 1
    29   12   24 1
    30   13   18 ar
    31   13   14 ar
    32   14   15 ar
    33   14   38 1
    34   15   16 ar
    35   15   39 1
    36   16   17 ar
    37   16   40 1
    38   17   18 ar
    39   17   41 1
    40   18   42 1
    41   19   23 1
    42   19   20 1
    43   19   43 1
    44   20   21 1
    45   20   44 1
    46   20   45 1
    47   21   22 1
    48   21   46 1
    49   21   47 1
    50   22   23 1
    51   22   48 1
    52   22   49 1
    53   23   50 1
    54   23   51 1
    55   24   52 1
    56   53   54 1
@<TRIPOS>MOLECULE
ZINC05341391
   54    56     0     0     0
SMALL
USER_CHARGES
(1-ethyl-3-piperidyl) 2-cyclopentyl-2-hydroxy-2-phenyl-acetate
@<TRIPOS>ATOM
      1 C1          3.6392    6.1075   -1.2650 C.3       1 <0>        -0.1918
      2 C2          2.3669    5.2901   -1.4976 C.3       1 <0>        -0.0040
      3 C3          2.8686    4.3347    0.6695 C.3       1 <0>        -0.0145
      4 C4          3.0575    3.0165    1.4235 C.3       1 <0>        -0.1418
      5 C5          1.7322    2.2497    1.4410 C.3       1 <0>        -0.1557
      6 C6          1.2685    2.0148    0.0008 C.3       1 <0>         0.0637
      7 H1          2.0006    1.3993   -0.5221 H         1 <0>         0.1038
      8 C7          1.1315    3.3621   -0.7120 C.3       1 <0>         0.0007
      9 O1         -0.0161    1.3381    0.0094 O.3       1 <0>        -0.3271
     10 C8          0.0021   -0.0041    0.0020 C.2       1 <0>         0.4458
     11 O2          1.0565   -0.5939   -0.0112 O.2       1 <0>        -0.4755
     12 C9         -1.2926   -0.7753    0.0102 C.3       1 <0>         0.2131
     13 C10        -1.0710   -2.1354   -0.5997 C.ar      1 <0>        -0.1173
     14 C11        -0.6947   -3.1984    0.1998 C.ar      1 <0>        -0.0881
     15 C12        -0.4961   -4.4471   -0.3589 C.ar      1 <0>        -0.1148
     16 C13        -0.6637   -4.6304   -1.7187 C.ar      1 <0>        -0.1030
     17 C14        -1.0350   -3.5662   -2.5191 C.ar      1 <0>        -0.1149
     18 C15        -1.2387   -2.3187   -1.9595 C.ar      1 <0>        -0.1062
     19 C16        -1.7814   -0.9359    1.4511 C.3       1 <0>        -0.0843
     20 C17        -3.1911   -1.5769    1.4843 C.3       1 <0>        -0.1090
     21 C18        -3.7804   -1.1250    2.8365 C.3       1 <0>        -0.1269
     22 C19        -3.0352    0.1616    3.2328 C.3       1 <0>        -0.1246
     23 C20        -2.0190    0.4467    2.1076 C.3       1 <0>        -0.1153
     24 O3         -2.2739   -0.0667   -0.7494 O.3       1 <0>        -0.5201
     25 H2          3.7206    6.3600   -0.2077 H         1 <0>         0.0841
     26 H3          4.5076    5.5218   -1.5666 H         1 <0>         0.0810
     27 H4          3.5957    7.0230   -1.8549 H         1 <0>         0.1077
     28 H5          2.2855    5.0376   -2.5548 H         1 <0>         0.1302
     29 H6          1.4985    5.8757   -1.1960 H         1 <0>         0.1329
     30 H7          3.8140    4.8766    0.6429 H         1 <0>         0.1396
     31 H8          2.1176    4.9394    1.1780 H         1 <0>         0.1348
     32 H9          3.8182    2.4170    0.9235 H         1 <0>         0.0912
     33 H10         3.3713    3.2241    2.4465 H         1 <0>         0.1214
     34 H11         0.9814    2.8321    1.9750 H         1 <0>         0.0952
     35 H12         1.8729    1.2906    1.9394 H         1 <0>         0.0988
     36 H13         0.8152    3.1975   -1.7420 H         1 <0>         0.1372
     37 H14         0.3887    3.9715   -0.1971 H         1 <0>         0.1445
     38 H15        -0.5594   -3.0542    1.2616 H         1 <0>         0.1259
     39 H16        -0.2057   -5.2785    0.2663 H         1 <0>         0.1300
     40 H17        -0.5043   -5.6050   -2.1559 H         1 <0>         0.1292
     41 H18        -1.1656   -3.7094   -3.5815 H         1 <0>         0.1289
     42 H19        -1.5284   -1.4872   -2.5849 H         1 <0>         0.1194
     43 H20        -1.0728   -1.5239    2.0345 H         1 <0>         0.0965
     44 H21        -3.7989   -1.2046    0.6597 H         1 <0>         0.0838
     45 H22        -3.1170   -2.6637    1.4446 H         1 <0>         0.0693
     46 H23        -3.6204   -1.8962    3.5900 H         1 <0>         0.0659
     47 H24        -4.8459   -0.9216    2.7301 H         1 <0>         0.0694
     48 H25        -2.5136    0.0148    4.1785 H         1 <0>         0.0638
     49 H26        -3.7386    0.9898    3.3192 H         1 <0>         0.0678
     50 H27        -1.0897    0.8367    2.5226 H         1 <0>         0.0573
     51 H28        -2.4355    1.1465    1.3830 H         1 <0>         0.0835
     52 H29        -2.0302    0.0719   -1.6749 H         1 <0>         0.3811
     53 N1          2.4458    4.0387   -0.7160 N.4       1 <0>        -0.3905
     54 H30         3.1387    3.4177   -1.1501 H         1 <0>         0.4279
@<TRIPOS>BOND
     1    1    2 1
     2    1   25 1
     3    1   26 1
     4    1   27 1
     5    2   28 1
     6    2   29 1
     7    2   53 1
     8    3    4 1
     9    3   30 1
    10    3   31 1
    11    3   53 1
    12    4    5 1
    13    4   32 1
    14    4   33 1
    15    5    6 1
    16    5   34 1
    17    5   35 1
    18    6    7 1
    19    6    8 1
    20    6    9 1
    21    8   36 1
    22    8   37 1
    23    8   53 1
    24    9   10 1
    25   10   11 2
    26   10   12 1
    27   12   13 1
    28   12   19 1
    29   12   24 1
    30   13   18 ar
    31   13   14 ar
    32   14   15 ar
    33   14   38 1
    34   15   16 ar
    35   15   39 1
    36   16   17 ar
    37   16   40 1
    38   17   18 ar
    39   17   41 1
    40   18   42 1
    41   19   23 1
    42   19   20 1
    43   19   43 1
    44   20   21 1
    45   20   44 1
    46   20   45 1
    47   21   22 1
    48   21   46 1
    49   21   47 1
    50   22   23 1
    51   22   48 1
    52   22   49 1
    53   23   50 1
    54   23   51 1
    55   24   52 1
    56   53   54 1
@<TRIPOS>MOLECULE
ZINC17921108
   45    46     0     0     0
SMALL
USER_CHARGES

@<TRIPOS>ATOM
      1 C1          2.6674    0.8248   -0.8884 C.3       1 <0>        -0.1574
      2 C2          2.2664   -0.3573   -0.0037 C.3       1 <0>         0.0495
      3 O1          2.5023   -1.5794   -0.7059 O.3       1 <0>        -0.3017
      4 C3          2.1967   -2.7338   -0.0557 C.ar      1 <0>         0.1682
      5 C4          1.6754   -2.6879    1.2293 C.ar      1 <0>        -0.1841
      6 C5          1.3648   -3.8583    1.8915 C.ar      1 <0>        -0.0999
      7 C6          1.5747   -5.0856    1.2690 C.ar      1 <0>         0.0048
      8 C7          2.0975   -5.1291   -0.0206 C.ar      1 <0>        -0.0519
      9 C8          2.4015   -3.9557   -0.6805 C.ar      1 <0>        -0.1258
     10 N1          1.2645   -6.2608    1.9311 N.pl3     1 <0>        -0.5533
     11 C9          1.6572   -6.4388    3.1855 C.cat     1 <0>         0.5127
     12 C10         1.1803   -7.6396    3.9612 C.3       1 <0>        -0.1631
     13 N2          2.4697   -5.5599    3.7571 N.pl3     1 <0>        -0.5875
     14 C11         3.3853   -5.9794    4.7066 C.ar      1 <0>         0.0425
     15 C12         3.9152   -7.2652    4.6439 C.ar      1 <0>        -0.0859
     16 C13         4.8280   -7.6812    5.5918 C.ar      1 <0>        -0.1262
     17 C14         5.2173   -6.8191    6.6070 C.ar      1 <0>         0.1601
     18 C15         4.6903   -5.5372    6.6719 C.ar      1 <0>        -0.1855
     19 C16         3.7822   -5.1143    5.7225 C.ar      1 <0>        -0.0656
     20 O2          6.1164   -7.2314    7.5400 O.3       1 <0>        -0.3046
     21 C17         6.4727   -6.2928    8.5569 C.3       1 <0>         0.0503
     22 C18         7.4871   -6.9315    9.5077 C.3       1 <0>        -0.1568
     23 H1          2.0750    0.8113   -1.8033 H         1 <0>         0.0716
     24 H2          2.4875    1.7569   -0.3527 H         1 <0>         0.0866
     25 H3          3.7254    0.7484   -1.1394 H         1 <0>         0.0711
     26 H4          2.8588   -0.3438    0.9112 H         1 <0>         0.0688
     27 H5          1.2085   -0.2809    0.2473 H         1 <0>         0.0699
     28 H6          1.5128   -1.7355    1.7119 H         1 <0>         0.1494
     29 H7          0.9597   -3.8220    2.8920 H         1 <0>         0.1343
     30 H8          2.2611   -6.0800   -0.5057 H         1 <0>         0.1502
     31 H9          2.8030   -3.9887   -1.6826 H         1 <0>         0.1546
     32 H10         0.1528   -7.8696    3.6793 H         1 <0>         0.1267
     33 H11         1.8186   -8.4941    3.7368 H         1 <0>         0.1318
     34 H12         1.2244   -7.4235    5.0287 H         1 <0>         0.1261
     35 H13         2.4222   -4.6232    3.5098 H         1 <0>         0.4299
     36 H14         3.6120   -7.9368    3.8543 H         1 <0>         0.1396
     37 H15         5.2394   -8.6786    5.5436 H         1 <0>         0.1510
     38 H16         4.9946   -4.8682    7.4633 H         1 <0>         0.1470
     39 H17         3.3762   -4.1147    5.7705 H         1 <0>         0.1397
     40 H18         6.9129   -5.4082    8.0968 H         1 <0>         0.0687
     41 H19         5.5815   -6.0065    9.1154 H         1 <0>         0.0690
     42 H20         7.7588   -6.2156   10.2834 H         1 <0>         0.0856
     43 H21         7.0469   -7.8161    9.9678 H         1 <0>         0.0705
     44 H22         8.3783   -7.2178    8.9492 H         1 <0>         0.0704
     45 H23         0.7599   -6.9542    1.4779 H         1 <0>         0.4488
@<TRIPOS>BOND
     1    1    2 1
     2    1   23 1
     3    1   24 1
     4    1   25 1
     5    2    3 1
     6    2   26 1
     7    2   27 1
     8    3    4 1
     9    4    9 ar
    10    4    5 ar
    11    5    6 ar
    12    5   28 1
    13    6    7 ar
    14    6   29 1
    15    7    8 ar
    16    7   10 1
    17    8    9 ar
    18    8   30 1
    19    9   31 1
    20   10   11 2
    21   10   45 1
    22   11   13 1
    23   11   12 1
    24   12   33 1
    25   12   32 1
    26   12   34 1
    27   13   14 1
    28   13   35 1
    29   14   19 ar
    30   14   15 ar
    31   15   16 ar
    32   15   36 1
    33   16   17 ar
    34   16   37 1
    35   17   18 ar
    36   17   20 1
    37   18   19 ar
    38   18   38 1
    39   19   39 1
    40   20   21 1
    41   21   22 1
    42   21   40 1
    43   21   41 1
    44   22   42 1
    45   22   43 1
    46   22   44 1
@<TRIPOS>MOLECULE
ZINC17921108
   45    46     0     0     0
SMALL
USER_CHARGES

@<TRIPOS>ATOM
      1 C1         -3.2920    0.5220   -4.9486 C.3       1 <0>        -0.1573
      2 C2         -2.6726   -0.8726   -4.8375 C.3       1 <0>         0.0503
      3 O1         -2.1569   -1.0610   -3.5181 O.3       1 <0>        -0.3038
      4 C3         -1.5685   -2.2572   -3.2503 C.ar      1 <0>         0.1675
      5 C4         -1.4855   -3.2255   -4.2407 C.ar      1 <0>        -0.1911
      6 C5         -0.8892   -4.4406   -3.9712 C.ar      1 <0>        -0.0747
      7 C6         -0.3703   -4.6943   -2.7045 C.ar      1 <0>         0.0199
      8 C7         -0.4544   -3.7210   -1.7126 C.ar      1 <0>        -0.0561
      9 C8         -1.0470   -2.5055   -1.9886 C.ar      1 <0>        -0.1318
     10 N1          0.2279   -5.9122   -2.4316 N.pl3     1 <0>        -0.5728
     11 C9          1.1540   -6.3944   -3.2496 C.cat     1 <0>         0.5124
     12 N2          1.5703   -7.6467   -3.1157 N.pl3     1 <0>        -0.5624
     13 C10         0.9529   -8.4876   -2.2061 C.ar      1 <0>         0.0067
     14 C11        -0.4265   -8.4288   -2.0270 C.ar      1 <0>        -0.1054
     15 C12        -1.0397   -9.2684   -1.1194 C.ar      1 <0>        -0.1229
     16 C13        -0.2826  -10.1702   -0.3853 C.ar      1 <0>         0.1660
     17 C14         1.0923  -10.2304   -0.5616 C.ar      1 <0>        -0.1852
     18 C15         1.7095   -9.3976   -1.4729 C.ar      1 <0>        -0.0545
     19 O2         -0.8891  -10.9960    0.5086 O.3       1 <0>        -0.3028
     20 C16        -0.0496  -11.8996    1.2303 C.3       1 <0>         0.0494
     21 C17        -0.9038  -12.7405    2.1810 C.3       1 <0>        -0.1570
     22 C18         1.7334   -5.5194   -4.3312 C.3       1 <0>        -0.1714
     23 H1         -4.1013    0.6188   -4.2250 H         1 <0>         0.0707
     24 H2         -2.5306    1.2750   -4.7452 H         1 <0>         0.0706
     25 H3         -3.6853    0.6657   -5.9550 H         1 <0>         0.0858
     26 H4         -3.4339   -1.6256   -5.0410 H         1 <0>         0.0691
     27 H5         -1.8632   -0.9695   -5.5611 H         1 <0>         0.0691
     28 H6         -1.8883   -3.0282   -5.2232 H         1 <0>         0.1477
     29 H7         -0.8255   -5.1942   -4.7422 H         1 <0>         0.1397
     30 H8         -0.0525   -3.9154   -0.7292 H         1 <0>         0.1446
     31 H9         -1.1086   -1.7485   -1.2208 H         1 <0>         0.1513
     32 H10        -1.0161   -7.7266   -2.5976 H         1 <0>         0.1420
     33 H11        -2.1098   -9.2232   -0.9801 H         1 <0>         0.1530
     34 H12         1.6795  -10.9329    0.0111 H         1 <0>         0.1500
     35 H13         2.7791   -9.4484   -1.6135 H         1 <0>         0.1458
     36 H14         0.4660  -12.5554    0.5288 H         1 <0>         0.0704
     37 H15         0.6838  -11.3338    1.8050 H         1 <0>         0.0700
     38 H16        -1.4195  -12.0847    2.8826 H         1 <0>         0.0707
     39 H17        -1.6372  -13.3063    1.6064 H         1 <0>         0.0710
     40 H18        -0.2635  -13.4297    2.7315 H         1 <0>         0.0869
     41 H19         2.5440   -4.9193   -3.9177 H         1 <0>         0.1354
     42 H20         2.1185   -6.1444   -5.1368 H         1 <0>         0.1215
     43 H21         0.9568   -4.8615   -4.7212 H         1 <0>         0.1304
     44 H22         2.3073   -7.9731   -3.6552 H         1 <0>         0.4489
     45 H23        -0.0302   -6.4132   -1.6421 H         1 <0>         0.4327
@<TRIPOS>BOND
     1    1    2 1
     2    1   23 1
     3    1   24 1
     4    1   25 1
     5    2    3 1
     6    2   26 1
     7    2   27 1
     8    3    4 1
     9    4    9 ar
    10    4    5 ar
    11    5    6 ar
    12    5   28 1
    13    6    7 ar
    14    6   29 1
    15    7    8 ar
    16    7   10 1
    17    8    9 ar
    18    8   30 1
    19    9   31 1
    20   10   11 2
    21   10   45 1
    22   11   12 1
    23   11   22 1
    24   12   13 1
    25   12   44 1
    26   13   18 ar
    27   13   14 ar
    28   14   15 ar
    29   14   32 1
    30   15   16 ar
    31   15   33 1
    32   16   17 ar
    33   16   19 1
    34   17   18 ar
    35   17   34 1
    36   18   35 1
    37   19   20 1
    38   20   21 1
    39   20   36 1
    40   20   37 1
    41   21   38 1
    42   21   39 1
    43   21   40 1
    44   22   41 1
    45   22   42 1
    46   22   43 1
@<TRIPOS>MOLECULE
ZINC17921108
   44    45     0     0     0
SMALL
USER_CHARGES

@<TRIPOS>ATOM
      1 C1         -0.0495    1.7061    0.7604 C.3       1 <0>        -0.1533
      2 C2          0.1902    0.2084    0.5594 C.3       1 <0>         0.0547
      3 O1          0.2423   -0.4405    1.8315 O.3       1 <0>        -0.3172
      4 C3          0.4505   -1.7843    1.8309 C.ar      1 <0>         0.1150
      5 C4          0.6070   -2.4610    0.6302 C.ar      1 <0>        -0.1914
      6 C5          0.8190   -3.8255    0.6287 C.ar      1 <0>        -0.1077
      7 C6          0.8754   -4.5203    1.8299 C.ar      1 <0>         0.1192
      8 C7          0.7187   -3.8420    3.0315 C.ar      1 <0>        -0.0667
      9 C8          0.5121   -2.4767    3.0314 C.ar      1 <0>        -0.1344
     10 N1          1.0898   -5.9037    1.8293 N.pl3     1 <0>        -0.6492
     11 C9          1.8516   -6.4792    2.8117 C.2       1 <0>         0.4102
     12 N2          2.4673   -5.7303    3.6809 N.2       1 <0>        -0.5642
     13 C10         3.3296   -6.2965    4.5859 C.ar      1 <0>         0.0941
     14 C11         4.4112   -7.0572    4.1402 C.ar      1 <0>        -0.1186
     15 C12         5.2759   -7.6242    5.0530 C.ar      1 <0>        -0.1325
     16 C13         5.0711   -7.4394    6.4133 C.ar      1 <0>         0.1105
     17 C14         3.9962   -6.6837    6.8607 C.ar      1 <0>        -0.1893
     18 C15         3.1305   -6.1082    5.9542 C.ar      1 <0>        -0.0861
     19 O2          5.9253   -8.0003    7.3099 O.3       1 <0>        -0.3179
     20 C16         5.6560   -7.7701    8.6942 C.3       1 <0>         0.0547
     21 C17         6.7157   -8.4743    9.5439 C.3       1 <0>        -0.1531
     22 C18         1.9771   -7.9792    2.8865 C.3       1 <0>        -0.1595
     23 H1          0.7638    2.1283    1.3506 H         1 <0>         0.0665
     24 H2         -0.0892    2.2011   -0.2099 H         1 <0>         0.0783
     25 H3         -0.9939    1.8559    1.2836 H         1 <0>         0.0664
     26 H4         -0.6231   -0.2137   -0.0308 H         1 <0>         0.0612
     27 H5          1.1346    0.0586    0.0362 H         1 <0>         0.0610
     28 H6          0.5627   -1.9206   -0.3039 H         1 <0>         0.1291
     29 H7          0.9404   -4.3523   -0.3063 H         1 <0>         0.1255
     30 H8          0.7625   -4.3816    3.9661 H         1 <0>         0.1408
     31 H9          0.3946   -1.9484    3.9660 H         1 <0>         0.1316
     32 H10         0.6990   -6.4548    1.1333 H         1 <0>         0.4173
     33 H11         4.5708   -7.2021    3.0820 H         1 <0>         0.1245
     34 H12         6.1132   -8.2131    4.7088 H         1 <0>         0.1297
     35 H13         3.8400   -6.5425    7.9200 H         1 <0>         0.1285
     36 H14         2.2969   -5.5167    6.3029 H         1 <0>         0.1261
     37 H15         5.6811   -6.6992    8.8961 H         1 <0>         0.0614
     38 H16         4.6704   -8.1637    8.9430 H         1 <0>         0.0611
     39 H17         6.5102   -8.2987   10.5999 H         1 <0>         0.0785
     40 H18         6.6906   -9.5451    9.3420 H         1 <0>         0.0662
     41 H19         7.7013   -8.0807    9.2952 H         1 <0>         0.0664
     42 H20         2.8122   -8.3052    2.2665 H         1 <0>         0.0902
     43 H21         2.1534   -8.2779    3.9198 H         1 <0>         0.0909
     44 H22         1.0565   -8.4391    2.5272 H         1 <0>         0.0812
@<TRIPOS>BOND
     1    1    2 1
     2    1   23 1
     3    1   24 1
     4    1   25 1
     5    2    3 1
     6    2   26 1
     7    2   27 1
     8    3    4 1
     9    4    9 ar
    10    4    5 ar
    11    5    6 ar
    12    5   28 1
    13    6    7 ar
    14    6   29 1
    15    7    8 ar
    16    7   10 1
    17    8    9 ar
    18    8   30 1
    19    9   31 1
    20   10   11 1
    21   10   32 1
    22   11   12 2
    23   11   22 1
    24   12   13 1
    25   13   18 ar
    26   13   14 ar
    27   14   15 ar
    28   14   33 1
    29   15   16 ar
    30   15   34 1
    31   16   17 ar
    32   16   19 1
    33   17   18 ar
    34   17   35 1
    35   18   36 1
    36   19   20 1
    37   20   21 1
    38   20   37 1
    39   20   38 1
    40   21   39 1
    41   21   40 1
    42   21   41 1
    43   22   42 1
    44   22   43 1
    45   22   44 1
@<TRIPOS>MOLECULE
ZINC17921108
   44    45     0     0     0
SMALL
USER_CHARGES

@<TRIPOS>ATOM
      1 C1         -1.3215    0.5527   -0.4841 C.3       1 <0>        -0.1529
      2 C2         -1.0694   -0.9345   -0.2280 C.3       1 <0>         0.0541
      3 O1         -0.2249   -1.0846    0.9149 O.3       1 <0>        -0.3169
      4 C3          0.0985   -2.3533    1.2810 C.ar      1 <0>         0.1101
      5 C4         -0.3845   -3.4293    0.5491 C.ar      1 <0>        -0.1842
      6 C5         -0.0584   -4.7179    0.9170 C.ar      1 <0>        -0.0843
      7 C6          0.7582   -4.9392    2.0267 C.ar      1 <0>         0.0798
      8 C7          1.2417   -3.8548    2.7599 C.ar      1 <0>        -0.1395
      9 C8          0.9153   -2.5690    2.3823 C.ar      1 <0>        -0.1267
     10 N1          1.0846   -6.2199    2.3963 N.2       1 <0>        -0.5431
     11 C9          2.3345   -6.5635    2.5193 C.2       1 <0>         0.4109
     12 C10         2.6923   -7.9248    3.0577 C.3       1 <0>        -0.1096
     13 N2          3.3244   -5.6874    2.1594 N.pl3     1 <0>        -0.6956
     14 C11         4.5760   -6.1710    1.7601 C.ar      1 <0>         0.1263
     15 C12         4.6729   -7.3941    1.1094 C.ar      1 <0>        -0.1144
     16 C13         5.9078   -7.8702    0.7155 C.ar      1 <0>        -0.1207
     17 C14         7.0513   -7.1271    0.9695 C.ar      1 <0>         0.1101
     18 C15         6.9554   -5.9056    1.6199 C.ar      1 <0>        -0.1780
     19 C16         5.7207   -5.4254    2.0094 C.ar      1 <0>        -0.1118
     20 O2          8.2670   -7.5967    0.5813 O.3       1 <0>        -0.3159
     21 C17         9.4020   -6.7797    0.8750 C.3       1 <0>         0.0541
     22 C18        10.6707   -7.4673    0.3665 C.3       1 <0>        -0.1536
     23 H1         -0.3719    1.0562   -0.6653 H         1 <0>         0.0664
     24 H2         -1.9656    0.6672   -1.3559 H         1 <0>         0.0791
     25 H3         -1.8065    0.9942    0.3865 H         1 <0>         0.0668
     26 H4         -2.0190   -1.4380   -0.0468 H         1 <0>         0.0621
     27 H5         -0.5844   -1.3760   -1.0987 H         1 <0>         0.0613
     28 H6         -1.0167   -3.2572   -0.3094 H         1 <0>         0.1305
     29 H7         -0.4348   -5.5546    0.3472 H         1 <0>         0.1283
     30 H8          1.8737   -4.0220    3.6195 H         1 <0>         0.1261
     31 H9          1.2924   -1.7291    2.9468 H         1 <0>         0.1322
     32 H10         1.9476   -8.2323    3.7919 H         1 <0>         0.0951
     33 H11         2.7148   -8.6447    2.2396 H         1 <0>         0.0913
     34 H12         3.6732   -7.8820    3.5311 H         1 <0>         0.0850
     35 H13         3.1580   -4.7320    2.1812 H         1 <0>         0.4100
     36 H14         3.7827   -7.9729    0.9118 H         1 <0>         0.1352
     37 H15         5.9834   -8.8215    0.2097 H         1 <0>         0.1363
     38 H16         7.8463   -5.3279    1.8176 H         1 <0>         0.1319
     39 H17         5.6458   -4.4722    2.5117 H         1 <0>         0.1275
     40 H18         9.2908   -5.8131    0.3837 H         1 <0>         0.0617
     41 H19         9.4751   -6.6332    1.9527 H         1 <0>         0.0622
     42 H20        10.5975   -7.6138   -0.7111 H         1 <0>         0.0668
     43 H21        11.5364   -6.8442    0.5906 H         1 <0>         0.0790
     44 H22        10.7818   -8.4340    0.8579 H         1 <0>         0.0670
@<TRIPOS>BOND
     1    1    2 1
     2    1   23 1
     3    1   24 1
     4    1   25 1
     5    2    3 1
     6    2   26 1
     7    2   27 1
     8    3    4 1
     9    4    9 ar
    10    4    5 ar
    11    5    6 ar
    12    5   28 1
    13    6    7 ar
    14    6   29 1
    15    7    8 ar
    16    7   10 1
    17    8    9 ar
    18    8   30 1
    19    9   31 1
    20   10   11 2
    21   11   13 1
    22   11   12 1
    23   12   33 1
    24   12   32 1
    25   12   34 1
    26   13   14 1
    27   13   35 1
    28   14   19 ar
    29   14   15 ar
    30   15   16 ar
    31   15   36 1
    32   16   17 ar
    33   16   37 1
    34   17   18 ar
    35   17   20 1
    36   18   19 ar
    37   18   38 1
    38   19   39 1
    39   20   21 1
    40   21   22 1
    41   21   40 1
    42   21   41 1
    43   22   42 1
    44   22   43 1
    45   22   44 1
@<TRIPOS>MOLECULE
ZINC22463202
   87    88     0     0     0
SMALL
USER_CHARGES

@<TRIPOS>ATOM
      1 C1         -0.0178    1.4648    0.0101 C.3       1 <0>        -0.0593
      2 N1          0.0021   -0.0041    0.0020 N.4       1 <0>        -0.3826
      3 C2         -1.3761   -0.5125    0.0124 C.3       1 <0>        -0.0051
      4 C3         -2.0780   -0.1101   -1.2861 C.3       1 <0>        -0.1508
      5 C4         -3.5134   -0.6397   -1.2753 C.3       1 <0>         0.0679
      6 O1         -4.1690   -0.2638   -2.4881 O.3       1 <0>        -0.3472
      7 C5         -5.4496   -0.6554   -2.6380 C.2       1 <0>         0.5205
      8 O2         -5.9947   -1.2983   -1.7629 O.2       1 <0>        -0.4889
      9 C6         -6.1895   -0.3035   -3.8642 C.ar      1 <0>        -0.0626
     10 C7         -5.5619    0.4311   -4.8741 C.ar      1 <0>        -0.1777
     11 C8         -6.2578    0.7595   -6.0222 C.ar      1 <0>         0.1372
     12 C9         -7.5830    0.3595   -6.1731 C.ar      1 <0>         0.0746
     13 C10        -8.2109   -0.3720   -5.1684 C.ar      1 <0>         0.1421
     14 C11        -7.5178   -0.7089   -4.0211 C.ar      1 <0>        -0.1660
     15 O3         -9.5055   -0.7607   -5.3188 O.3       1 <0>        -0.2945
     16 C12       -10.0869   -1.5084   -4.2488 C.3       1 <0>         0.0200
     17 O4         -8.2649    0.6841   -7.3027 O.3       1 <0>        -0.3115
     18 C13        -8.2016   -0.2435   -8.3879 C.3       1 <0>         0.0356
     19 O5         -5.6477    1.4743   -7.0054 O.3       1 <0>        -0.2955
     20 C14        -4.2874    1.8519   -6.7841 C.3       1 <0>         0.0229
     21 C15         0.7126   -0.4907    1.1921 C.3       1 <0>        -0.0102
     22 C16         2.1805   -0.0656    1.1191 C.3       1 <0>         0.0267
     23 N2          2.8910   -0.5522    2.3092 N.3       1 <0>        -0.5323
     24 C17         2.3960    0.1080    3.5245 C.3       1 <0>         0.0053
     25 C18         4.3419   -0.3726    2.1663 C.3       1 <0>         0.0585
     26 C19         5.0609   -1.1083    3.2988 C.3       1 <0>        -0.1183
     27 C20         6.5721   -0.9212    3.1500 C.3       1 <0>         0.0662
     28 O6          7.2437   -1.6083    4.2077 O.3       1 <0>        -0.3455
     29 C21         8.5895   -1.5426    4.2224 C.2       1 <0>         0.5160
     30 O7          9.1768   -0.9190    3.3607 O.2       1 <0>        -0.4949
     31 C22         9.3496   -2.2277    5.2844 C.ar      1 <0>        -0.0584
     32 C23         8.6757   -2.9501    6.2730 C.ar      1 <0>        -0.1768
     33 C24         9.3906   -3.5911    7.2671 C.ar      1 <0>         0.1374
     34 C25        10.7810   -3.5172    7.2846 C.ar      1 <0>         0.0707
     35 C26        11.4550   -2.7978    6.3012 C.ar      1 <0>         0.1408
     36 C27        10.7455   -2.1604    5.3009 C.ar      1 <0>        -0.1679
     37 O8         12.8131   -2.7273    6.3216 O.3       1 <0>        -0.2959
     38 C28        13.4392   -1.9723    5.2823 C.3       1 <0>         0.0205
     39 O9         11.4814   -4.1480    8.2634 O.3       1 <0>        -0.3116
     40 C29        11.8805   -5.4965    8.0094 C.3       1 <0>         0.0356
     41 O10         8.7355   -4.2943    8.2293 O.3       1 <0>        -0.2968
     42 C30         7.3090   -4.3277    8.1507 C.3       1 <0>         0.0222
     43 H1          1.0047    1.8421    0.0024 H         1 <0>         0.1256
     44 H2         -0.5450    1.8259   -0.8730 H         1 <0>         0.1281
     45 H3         -0.5280    1.8163    0.9069 H         1 <0>         0.1247
     46 H4         -1.3618   -1.5992    0.0960 H         1 <0>         0.1379
     47 H5         -1.9129   -0.0898    0.8617 H         1 <0>         0.1356
     48 H6         -2.0923    0.9766   -1.3697 H         1 <0>         0.1007
     49 H7         -1.5412   -0.5328   -2.1354 H         1 <0>         0.1009
     50 H8         -3.4991   -1.7264   -1.1917 H         1 <0>         0.0815
     51 H9         -4.0502   -0.2170   -0.4260 H         1 <0>         0.0810
     52 H10        -4.5343    0.7421   -4.7573 H         1 <0>         0.1490
     53 H11        -8.0038   -1.2805   -3.2442 H         1 <0>         0.1529
     54 H12        -9.5208   -2.4277   -4.0984 H         1 <0>         0.0607
     55 H13       -10.0639   -0.9139   -3.3355 H         1 <0>         0.0618
     56 H14       -11.1196   -1.7541   -4.4964 H         1 <0>         0.1107
     57 H15        -8.7875    0.1361   -9.2250 H         1 <0>         0.1003
     58 H16        -7.1643   -0.3696   -8.6980 H         1 <0>         0.0483
     59 H17        -8.6048   -1.2045   -8.0684 H         1 <0>         0.0491
     60 H18        -3.9226    2.4158   -7.6427 H         1 <0>         0.1082
     61 H19        -4.2231    2.4707   -5.8891 H         1 <0>         0.0587
     62 H20        -3.6789    0.9573   -6.6518 H         1 <0>         0.0577
     63 H21         0.2557   -0.0671    2.0865 H         1 <0>         0.1317
     64 H22         0.6508   -1.5782    1.2328 H         1 <0>         0.1422
     65 H23         2.6374   -0.4891    0.2247 H         1 <0>         0.0982
     66 H24         2.2422    1.0219    1.0785 H         1 <0>         0.0599
     67 H25         1.3325   -0.0994    3.6432 H         1 <0>         0.0713
     68 H26         2.9389   -0.2706    4.3906 H         1 <0>         0.0878
     69 H27         2.5493    1.1840    3.4416 H         1 <0>         0.0379
     70 H28         4.6654   -0.7772    1.2072 H         1 <0>         0.0861
     71 H29         4.5828    0.6895    2.2124 H         1 <0>         0.0489
     72 H30         4.7375   -0.7037    4.2579 H         1 <0>         0.0797
     73 H31         4.8200   -2.1703    3.2527 H         1 <0>         0.0883
     74 H32         6.8956   -1.3258    2.1909 H         1 <0>         0.0724
     75 H33         6.8131    0.1409    3.1961 H         1 <0>         0.0705
     76 H34         7.5973   -3.0072    6.2603 H         1 <0>         0.1506
     77 H35        11.2691   -1.6065    4.5357 H         1 <0>         0.1521
     78 H36        13.1828   -2.4039    4.3148 H         1 <0>         0.0602
     79 H37        13.0917   -0.9400    5.3233 H         1 <0>         0.0613
     80 H38        14.5207   -1.9973    5.4162 H         1 <0>         0.1093
     81 H39        12.4301   -5.8806    8.8687 H         1 <0>         0.0988
     82 H40        10.9965   -6.1111    7.8392 H         1 <0>         0.0478
     83 H41        12.5192   -5.5262    7.1267 H         1 <0>         0.0483
     84 H42         6.9134   -4.9203    8.9756 H         1 <0>         0.1073
     85 H43         6.9178   -3.3122    8.2125 H         1 <0>         0.0597
     86 H44         7.0077   -4.7761    7.2040 H         1 <0>         0.0588
     87 H45         0.4744   -0.3295   -0.8281 H         1 <0>         0.4269
@<TRIPOS>BOND
     1    1    2 1
     2    1   43 1
     3    1   44 1
     4    1   45 1
     5    2    3 1
     6    2   21 1
     7    2   87 1
     8    3    4 1
     9    3   46 1
    10    3   47 1
    11    4    5 1
    12    4   48 1
    13    4   49 1
    14    5    6 1
    15    5   50 1
    16    5   51 1
    17    6    7 1
    18    7    8 2
    19    7    9 1
    20    9   14 ar
    21    9   10 ar
    22   10   11 ar
    23   10   52 1
    24   11   12 ar
    25   11   19 1
    26   12   13 ar
    27   12   17 1
    28   13   14 ar
    29   13   15 1
    30   14   53 1
    31   15   16 1
    32   16   54 1
    33   16   55 1
    34   16   56 1
    35   17   18 1
    36   18   57 1
    37   18   58 1
    38   18   59 1
    39   19   20 1
    40   20   60 1
    41   20   61 1
    42   20   62 1
    43   21   22 1
    44   21   63 1
    45   21   64 1
    46   22   23 1
    47   22   65 1
    48   22   66 1
    49   23   24 1
    50   23   25 1
    51   24   67 1
    52   24   68 1
    53   24   69 1
    54   25   26 1
    55   25   70 1
    56   25   71 1
    57   26   27 1
    58   26   72 1
    59   26   73 1
    60   27   28 1
    61   27   74 1
    62   27   75 1
    63   28   29 1
    64   29   30 2
    65   29   31 1
    66   31   36 ar
    67   31   32 ar
    68   32   33 ar
    69   32   76 1
    70   33   34 ar
    71   33   41 1
    72   34   35 ar
    73   34   39 1
    74   35   36 ar
    75   35   37 1
    76   36   77 1
    77   37   38 1
    78   38   78 1
    79   38   79 1
    80   38   80 1
    81   39   40 1
    82   40   81 1
    83   40   82 1
    84   40   83 1
    85   41   42 1
    86   42   84 1
    87   42   85 1
    88   42   86 1
@<TRIPOS>MOLECULE
ZINC03874585
   76    77     0     0     0
SMALL
USER_CHARGES

@<TRIPOS>ATOM
      1 C1         -0.4864    1.3057   -0.8353 C.3       1 <0>        -0.1674
      2 C2         -0.4946   -0.1818   -1.1934 C.3       1 <0>         0.1805
      3 C3         -0.0995   -1.0042    0.0348 C.3       1 <0>        -0.1666
      4 C4         -1.8970   -0.5887   -1.6500 C.3       1 <0>        -0.0822
      5 C5         -2.8811   -0.3343   -0.5374 C.ar      1 <0>        -0.0871
      6 C6         -3.1429   -1.3225    0.3931 C.ar      1 <0>        -0.1128
      7 C7         -4.0456   -1.0893    1.4137 C.ar      1 <0>        -0.1172
      8 C8         -4.6862    0.1324    1.5040 C.ar      1 <0>        -0.1147
      9 C9         -4.4238    1.1209    0.5740 C.ar      1 <0>        -0.1166
     10 C10        -3.5178    0.8891   -0.4441 C.ar      1 <0>        -0.1119
     11 N1          0.4621   -0.4290   -2.2750 N.am      1 <0>        -0.5823
     12 C11        -0.0001   -0.9862   -3.5486 C.3       1 <0>         0.0512
     13 C12         1.7674   -0.1439   -2.0983 C.2       1 <0>         0.5053
     14 O1          2.1501    0.3174   -1.0439 O.2       1 <0>        -0.5139
     15 C13         2.7515   -0.3982   -3.2109 C.3       1 <0>        -0.0393
     16 N2          4.0981   -0.0075   -2.7725 N.4       1 <0>        -0.3556
     17 C14         4.5255   -0.8780   -1.6690 C.3       1 <0>        -0.0189
     18 C15         5.8544   -0.3712   -1.1051 C.3       1 <0>         0.0509
     19 O2          5.6596    0.9118   -0.5066 O.3       1 <0>        -0.5692
     20 C16         5.0367   -0.1424   -3.8944 C.3       1 <0>        -0.0394
     21 C17         4.6960    0.8686   -4.9587 C.2       1 <0>         0.5000
     22 O3          3.8401    1.7025   -4.7513 O.2       1 <0>        -0.5195
     23 N3          5.3425    0.8462   -6.1411 N.am      1 <0>        -0.5808
     24 C18         6.3764   -0.1610   -6.3916 C.3       1 <0>         0.0487
     25 C19         5.0113    1.8291   -7.1758 C.3       1 <0>         0.1793
     26 C20         3.5364    1.6896   -7.5582 C.3       1 <0>        -0.1664
     27 C21         5.2683    3.2392   -6.6407 C.3       1 <0>        -0.1682
     28 C22         5.8832    1.5848   -8.4090 C.3       1 <0>        -0.0818
     29 C23         5.5425    2.5958   -9.4734 C.ar      1 <0>        -0.0884
     30 C24         4.5525    2.3193  -10.3977 C.ar      1 <0>        -0.1125
     31 C25         4.2400    3.2467  -11.3740 C.ar      1 <0>        -0.1169
     32 C26         4.9171    4.4508  -11.4257 C.ar      1 <0>        -0.1140
     33 C27         5.9065    4.7276  -10.5008 C.ar      1 <0>        -0.1164
     34 C28         6.2161    3.8020   -9.5219 C.ar      1 <0>        -0.1122
     35 H1          0.5127    1.5956   -0.5100 H         1 <0>         0.0774
     36 H2         -0.7678    1.8916   -1.7103 H         1 <0>         0.0570
     37 H3         -1.1982    1.4897   -0.0306 H         1 <0>         0.0784
     38 H4         -0.8113   -0.8202    0.8396 H         1 <0>         0.0792
     39 H5         -0.1054   -2.0639   -0.2202 H         1 <0>         0.0562
     40 H6          0.8996   -0.7143    0.3602 H         1 <0>         0.0762
     41 H7         -2.1785   -0.0028   -2.5250 H         1 <0>         0.0824
     42 H8         -1.9029   -1.6484   -1.9051 H         1 <0>         0.0823
     43 H9         -2.6424   -2.2770    0.3225 H         1 <0>         0.1206
     44 H10        -4.2507   -1.8615    2.1402 H         1 <0>         0.1246
     45 H11        -5.3920    0.3144    2.3009 H         1 <0>         0.1247
     46 H12        -4.9245    2.0752    0.6444 H         1 <0>         0.1248
     47 H13        -3.3100    1.6627   -1.1685 H         1 <0>         0.1211
     48 H14        -0.2739   -0.1743   -4.2224 H         1 <0>         0.0739
     49 H15         0.7980   -1.5774   -3.9975 H         1 <0>         0.0720
     50 H16        -0.8684   -1.6214   -3.3735 H         1 <0>         0.0959
     51 H17         2.7457   -1.4579   -3.4660 H         1 <0>         0.1541
     52 H18         2.4701    0.1877   -4.0859 H         1 <0>         0.1660
     53 H19         3.7697   -0.8668   -0.8837 H         1 <0>         0.1605
     54 H20         4.6518   -1.8960   -2.0373 H         1 <0>         0.1404
     55 H21         6.2207   -1.0707   -0.3537 H         1 <0>         0.0970
     56 H22         6.5835   -0.2891   -1.9112 H         1 <0>         0.0647
     57 H23         6.4624    1.2949   -0.1273 H         1 <0>         0.4053
     58 H24         6.0530    0.0310   -3.5406 H         1 <0>         0.1629
     59 H25         4.9633   -1.1470   -4.3107 H         1 <0>         0.1589
     60 H26         5.9205   -1.0481   -6.8312 H         1 <0>         0.0752
     61 H27         7.1193    0.2441   -7.0788 H         1 <0>         0.0972
     62 H28         6.8587   -0.4282   -5.4514 H         1 <0>         0.0743
     63 H29         2.9152    1.8637   -6.6796 H         1 <0>         0.0751
     64 H30         3.2900    2.4209   -8.3280 H         1 <0>         0.0801
     65 H31         3.3533    0.6850   -7.9394 H         1 <0>         0.0571
     66 H32         6.3190    3.3385   -6.3682 H         1 <0>         0.0573
     67 H33         5.0218    3.9705   -7.4105 H         1 <0>         0.0796
     68 H34         4.6471    3.4132   -5.7621 H         1 <0>         0.0769
     69 H35         6.9339    1.6841   -8.1366 H         1 <0>         0.0829
     70 H36         5.7001    0.5802   -8.7903 H         1 <0>         0.0826
     71 H37         4.0235    1.3787  -10.3573 H         1 <0>         0.1207
     72 H38         3.4670    3.0304  -12.0966 H         1 <0>         0.1249
     73 H39         4.6734    5.1750  -12.1889 H         1 <0>         0.1251
     74 H40         6.4358    5.6682  -10.5414 H         1 <0>         0.1251
     75 H41         6.9865    4.0198   -8.7970 H         1 <0>         0.1210
     76 H42         4.0846    0.9513   -2.4586 H         1 <0>         0.4450
@<TRIPOS>BOND
     1    1    2 1
     2    1   35 1
     3    1   36 1
     4    1   37 1
     5    2    3 1
     6    2    4 1
     7    2   11 1
     8    3   38 1
     9    3   39 1
    10    3   40 1
    11    4    5 1
    12    4   41 1
    13    4   42 1
    14    5   10 ar
    15    5    6 ar
    16    6    7 ar
    17    6   43 1
    18    7    8 ar
    19    7   44 1
    20    8    9 ar
    21    8   45 1
    22    9   10 ar
    23    9   46 1
    24   10   47 1
    25   11   12 1
    26   11   13 am
    27   12   48 1
    28   12   49 1
    29   12   50 1
    30   13   14 2
    31   13   15 1
    32   15   16 1
    33   15   51 1
    34   15   52 1
    35   16   17 1
    36   16   20 1
    37   16   76 1
    38   17   18 1
    39   17   53 1
    40   17   54 1
    41   18   19 1
    42   18   55 1
    43   18   56 1
    44   19   57 1
    45   20   21 1
    46   20   58 1
    47   20   59 1
    48   21   22 2
    49   21   23 am
    50   23   24 1
    51   23   25 1
    52   24   60 1
    53   24   61 1
    54   24   62 1
    55   25   26 1
    56   25   27 1
    57   25   28 1
    58   26   63 1
    59   26   64 1
    60   26   65 1
    61   27   66 1
    62   27   67 1
    63   27   68 1
    64   28   29 1
    65   28   69 1
    66   28   70 1
    67   29   34 ar
    68   29   30 ar
    69   30   31 ar
    70   30   71 1
    71   31   32 ar
    72   31   72 1
    73   32   33 ar
    74   32   73 1
    75   33   34 ar
    76   33   74 1
    77   34   75 1
@<TRIPOS>MOLECULE
ZINC37868615
   45    46     0     0     0
SMALL
USER_CHARGES

@<TRIPOS>ATOM
      1 C1         -0.0187    1.5258    0.0104 C.3       1 <0>        -0.1539
      2 C2          0.0021   -0.0041    0.0020 C.3       1 <0>        -0.1270
      3 C3          0.7421   -0.5109    1.2415 C.3       1 <0>        -0.1081
      4 C4          0.7628   -2.0407    1.2331 C.3       1 <0>        -0.0726
      5 C5          1.4917   -2.5400    2.4540 C.ar      1 <0>         0.1484
      6 C6          0.8667   -3.4209    3.2817 C.ar      1 <0>        -0.1732
      7 C7          1.5517   -3.8845    4.4212 C.ar      1 <0>         0.0052
      8 C8          0.9758   -4.7926    5.3207 C.ar      1 <0>        -0.1133
      9 C9          1.6891   -5.2051    6.4060 C.ar      1 <0>        -0.0829
     10 C10         2.9813   -4.7377    6.6348 C.ar      1 <0>        -0.1189
     11 C11         3.5709   -3.8545    5.7810 C.ar      1 <0>        -0.0813
     12 C12         2.8673   -3.4089    4.6535 C.ar      1 <0>        -0.1121
     13 C13         3.4261   -2.4963    3.7344 C.ar      1 <0>         0.3524
     14 N1          2.7254   -2.1117    2.6869 N.ar      1 <0>        -0.5372
     15 O1          4.6806   -2.0213    3.9251 O.3       1 <0>        -0.3165
     16 C14         5.1803   -1.1005    2.9533 C.3       1 <0>         0.0364
     17 C15         6.6006   -0.6779    3.3342 C.3       1 <0>        -0.0041
     18 N2          7.4938   -1.8419    3.2620 N.4       1 <0>        -0.3894
     19 C16         7.5856   -2.3031    1.8703 C.3       1 <0>        -0.0545
     20 C17         8.8299   -1.4644    3.7418 C.3       1 <0>        -0.0475
     21 H1          1.0039    1.9031    0.0027 H         1 <0>         0.0517
     22 H2         -0.5459    1.8868   -0.8726 H         1 <0>         0.0572
     23 H3         -0.5289    1.8773    0.9072 H         1 <0>         0.0542
     24 H4         -1.0205   -0.3814    0.0098 H         1 <0>         0.0642
     25 H5          0.5123   -0.3556   -0.8948 H         1 <0>         0.0626
     26 H6          1.7647   -0.1336    1.2338 H         1 <0>         0.0671
     27 H7          0.2319   -0.1594    2.1383 H         1 <0>         0.0604
     28 H8         -0.2598   -2.4180    1.2409 H         1 <0>         0.0849
     29 H9          1.2730   -2.3923    0.3363 H         1 <0>         0.0838
     30 H10        -0.1369   -3.7581    3.0686 H         1 <0>         0.1459
     31 H11        -0.0254   -5.1619    5.1550 H         1 <0>         0.1400
     32 H12         1.2459   -5.9046    7.0993 H         1 <0>         0.1349
     33 H13         3.5244   -5.0806    7.5031 H         1 <0>         0.1323
     34 H14         4.5731   -3.5002    5.9716 H         1 <0>         0.1306
     35 H15         5.1937   -1.5779    1.9735 H         1 <0>         0.0935
     36 H16         4.5363   -0.2217    2.9205 H         1 <0>         0.1141
     37 H17         6.9486    0.0904    2.6437 H         1 <0>         0.1509
     38 H18         6.6018   -0.2814    4.3495 H         1 <0>         0.1420
     39 H19         8.2483   -3.1668    1.8167 H         1 <0>         0.1269
     40 H20         6.5942   -2.5832    1.5142 H         1 <0>         0.1220
     41 H21         7.9823   -1.5015    1.2473 H         1 <0>         0.1253
     42 H22         8.7618   -1.1222    4.7745 H         1 <0>         0.1246
     43 H23         9.4927   -2.3281    3.6883 H         1 <0>         0.1257
     44 H24         9.2267   -0.6628    3.1188 H         1 <0>         0.1235
     45 H25         7.1266   -2.5839    3.8387 H         1 <0>         0.4321
@<TRIPOS>BOND
     1    1    2 1
     2    1   21 1
     3    1   22 1
     4    1   23 1
     5    2    3 1
     6    2   24 1
     7    2   25 1
     8    3    4 1
     9    3   26 1
    10    3   27 1
    11    4    5 1
    12    4   28 1
    13    4   29 1
    14    5   14 ar
    15    5    6 ar
    16    6    7 ar
    17    6   30 1
    18    7   12 ar
    19    7    8 ar
    20    8    9 ar
    21    8   31 1
    22    9   10 ar
    23    9   32 1
    24   10   11 ar
    25   10   33 1
    26   11   12 ar
    27   11   34 1
    28   12   13 ar
    29   13   14 ar
    30   13   15 1
    31   15   16 1
    32   16   17 1
    33   16   35 1
    34   16   36 1
    35   17   18 1
    36   17   37 1
    37   17   38 1
    38   18   19 1
    39   18   20 1
    40   18   45 1
    41   19   39 1
    42   19   40 1
    43   19   41 1
    44   20   42 1
    45   20   43 1
    46   20   44 1
@<TRIPOS>MOLECULE
ZINC02040034
   45    46     0     0     0
SMALL
USER_CHARGES
dimethyl-bis(phenylcarbamoylmethyl)ammonium
@<TRIPOS>ATOM
      1 C1         -3.1602   -1.9262    0.6544 C.3       1 <0>        -0.0809
      2 N1         -2.2610   -2.6297   -0.2700 N.4       1 <0>        -0.2367
      3 C2         -2.6345   -2.3105   -1.6544 C.3       1 <0>        -0.0808
      4 C3         -0.8766   -2.2037   -0.0257 C.3       1 <0>        -0.0293
      5 C4         -0.7572   -0.7209   -0.2671 C.2       1 <0>         0.5052
      6 O1         -1.7460   -0.0666   -0.5227 O.2       1 <0>        -0.5032
      7 N2          0.4482   -0.1219   -0.1990 N.am      1 <0>        -0.6423
      8 C5          0.5470    1.2680   -0.3265 C.ar      1 <0>         0.1138
      9 C6         -0.2999    1.9494   -1.1908 C.ar      1 <0>        -0.1133
     10 C7         -0.2038    3.3220   -1.3100 C.ar      1 <0>        -0.1017
     11 C8          0.7420    4.0165   -0.5782 C.ar      1 <0>        -0.1146
     12 C9          1.5909    3.3402    0.2786 C.ar      1 <0>        -0.0990
     13 C10         1.4960    1.9683    0.4066 C.ar      1 <0>        -0.1304
     14 C11        -2.3728   -4.0785   -0.0543 C.3       1 <0>        -0.0293
     15 C12        -3.7949   -4.5142   -0.2971 C.2       1 <0>         0.5053
     16 O2         -4.6165   -3.7123   -0.6880 O.2       1 <0>        -0.5033
     17 N3         -4.1536   -5.7951   -0.0798 N.am      1 <0>        -0.6425
     18 C13        -5.4475   -6.2227   -0.3975 C.ar      1 <0>         0.1137
     19 C14        -6.5272   -5.3687   -0.2144 C.ar      1 <0>        -0.1129
     20 C15        -7.8024   -5.7919   -0.5343 C.ar      1 <0>        -0.1017
     21 C16        -8.0060   -7.0682   -1.0261 C.ar      1 <0>        -0.1144
     22 C17        -6.9337   -7.9230   -1.2037 C.ar      1 <0>        -0.0991
     23 C18        -5.6554   -7.5040   -0.8911 C.ar      1 <0>        -0.1302
     24 H1         -3.1775   -0.8647    0.4071 H         1 <0>         0.1534
     25 H2         -4.1661   -2.3364    0.5655 H         1 <0>         0.1419
     26 H3         -2.8042   -2.0553    1.6764 H         1 <0>         0.1121
     27 H4         -2.0676   -2.9420   -2.3385 H         1 <0>         0.1121
     28 H5         -3.7006   -2.4897   -1.7937 H         1 <0>         0.1534
     29 H6         -2.4124   -1.2630   -1.8584 H         1 <0>         0.1416
     30 H7         -0.2077   -2.7368   -0.7014 H         1 <0>         0.1605
     31 H8         -0.6044   -2.4269    1.0059 H         1 <0>         0.1630
     32 H9          1.2473   -0.6544   -0.0616 H         1 <0>         0.4197
     33 H10        -1.0358    1.4070   -1.7659 H         1 <0>         0.1364
     34 H11        -0.8649    3.8530   -1.9788 H         1 <0>         0.1320
     35 H12         0.8180    5.0893   -0.6763 H         1 <0>         0.1315
     36 H13         2.3288    3.8854    0.8484 H         1 <0>         0.1342
     37 H14         2.1593    1.4407    1.0760 H         1 <0>         0.1295
     38 H15        -1.7100   -4.6007   -0.7442 H         1 <0>         0.1628
     39 H16        -2.0901   -4.3160    0.9713 H         1 <0>         0.1608
     40 H17        -3.5149   -6.4204    0.2967 H         1 <0>         0.4197
     41 H18        -6.3694   -4.3733    0.1738 H         1 <0>         0.1360
     42 H19        -8.6420   -5.1268   -0.3960 H         1 <0>         0.1320
     43 H20        -9.0046   -7.3981   -1.2716 H         1 <0>         0.1315
     44 H21        -7.0960   -8.9194   -1.5877 H         1 <0>         0.1342
     45 H22        -4.8183   -8.1721   -1.0301 H         1 <0>         0.1295
@<TRIPOS>BOND
     1    1    2 1
     2    1   24 1
     3    1   25 1
     4    1   26 1
     5    2    3 1
     6    2    4 1
     7    2   14 1
     8    3   27 1
     9    3   28 1
    10    3   29 1
    11    4    5 1
    12    4   30 1
    13    4   31 1
    14    5    6 2
    15    5    7 am
    16    7    8 1
    17    7   32 1
    18    8   13 ar
    19    8    9 ar
    20    9   10 ar
    21    9   33 1
    22   10   11 ar
    23   10   34 1
    24   11   12 ar
    25   11   35 1
    26   12   13 ar
    27   12   36 1
    28   13   37 1
    29   14   15 1
    30   14   38 1
    31   14   39 1
    32   15   16 2
    33   15   17 am
    34   17   18 1
    35   17   40 1
    36   18   23 ar
    37   18   19 ar
    38   19   20 ar
    39   19   41 1
    40   20   21 ar
    41   20   42 1
    42   21   22 ar
    43   21   43 1
    44   22   23 ar
    45   22   44 1
    46   23   45 1
@<TRIPOS>MOLECULE
ZINC02040457
   39    39     0     0     0
SMALL
USER_CHARGES

@<TRIPOS>ATOM
      1 C1         -0.0187    1.5258    0.0104 C.3       1 <0>        -0.1565
      2 C2          0.0021   -0.0041    0.0020 C.3       1 <0>        -0.1498
      3 C3          0.7182   -0.4975   -1.2568 C.3       1 <0>        -0.0172
      4 N1          0.7381   -1.9663   -1.2649 N.4       1 <0>        -0.5020
      5 C4          1.4257   -2.4401   -2.4735 C.3       1 <0>         0.0575
      6 C5          0.6857   -1.9332   -3.7130 C.3       1 <0>        -0.1758
      7 C6          2.8611   -1.9105   -2.4843 C.3       1 <0>        -0.1758
      8 C7          1.4465   -3.9699   -2.4819 C.3       1 <0>         0.0522
      9 O1          2.1153   -4.4308   -3.6576 O.3       1 <0>        -0.3375
     10 C8          2.2202   -5.7641   -3.8186 C.2       1 <0>         0.5203
     11 O2          1.7566   -6.5150   -2.9839 O.2       1 <0>        -0.4916
     12 C9          2.8991   -6.3130   -5.0103 C.ar      1 <0>        -0.1383
     13 C10         3.4381   -5.4527   -5.9689 C.ar      1 <0>        -0.0622
     14 C11         4.0706   -5.9720   -7.0793 C.ar      1 <0>        -0.1317
     15 C12         4.1715   -7.3421   -7.2444 C.ar      1 <0>        -0.0714
     16 C13         3.6392   -8.2004   -6.2986 C.ar      1 <0>        -0.1269
     17 C14         3.0095   -7.6945   -5.1804 C.ar      1 <0>        -0.0497
     18 H1          1.0039    1.9031    0.0027 H         1 <0>         0.0675
     19 H2         -0.5459    1.8868   -0.8726 H         1 <0>         0.0675
     20 H3         -0.5289    1.8773    0.9072 H         1 <0>         0.0786
     21 H4          0.5293   -0.3651    0.8851 H         1 <0>         0.0869
     22 H5         -1.0205   -0.3814    0.0098 H         1 <0>         0.0869
     23 H6          0.1910   -0.1364   -2.1398 H         1 <0>         0.1364
     24 H7          1.7408   -0.1202   -1.2645 H         1 <0>         0.1364
     25 H8          1.2261   -2.3006   -0.4474 H         1 <0>         0.4285
     26 H9          0.6709   -0.8434   -3.7070 H         1 <0>         0.0876
     27 H10         1.1959   -2.2848   -4.6098 H         1 <0>         0.1134
     28 H11        -0.3369   -2.3105   -3.7053 H         1 <0>         0.0830
     29 H12         3.3883   -2.2716   -1.6013 H         1 <0>         0.0831
     30 H13         3.3713   -2.2620   -3.3811 H         1 <0>         0.1134
     31 H14         2.8463   -0.8206   -2.4783 H         1 <0>         0.0876
     32 H15         1.9737   -4.3310   -1.5988 H         1 <0>         0.0915
     33 H16         0.4239   -4.3472   -2.4742 H         1 <0>         0.0915
     34 H17         3.3597   -4.3831   -5.8414 H         1 <0>         0.1356
     35 H18         4.4877   -5.3077   -7.8217 H         1 <0>         0.1365
     36 H19         4.6678   -7.7434   -8.1157 H         1 <0>         0.1364
     37 H20         3.7208   -9.2687   -6.4340 H         1 <0>         0.1395
     38 H21         2.5987   -8.3655   -4.4405 H         1 <0>         0.1399
     39 H22        -0.2085   -2.3156   -1.2577 H         1 <0>         0.4285
@<TRIPOS>BOND
     1    1    2 1
     2    1   18 1
     3    1   19 1
     4    1   20 1
     5    2    3 1
     6    2   21 1
     7    2   22 1
     8    3    4 1
     9    3   23 1
    10    3   24 1
    11    4    5 1
    12    4   25 1
    13    4   39 1
    14    5    6 1
    15    5    7 1
    16    5    8 1
    17    6   26 1
    18    6   27 1
    19    6   28 1
    20    7   29 1
    21    7   30 1
    22    7   31 1
    23    8    9 1
    24    8   32 1
    25    8   33 1
    26    9   10 1
    27   10   11 2
    28   10   12 1
    29   12   17 ar
    30   12   13 ar
    31   13   14 ar
    32   13   34 1
    33   14   15 ar
    34   14   35 1
    35   15   16 ar
    36   15   36 1
    37   16   17 ar
    38   16   37 1
    39   17   38 1
@<TRIPOS>MOLECULE
ZINC01596184
   53    53     0     0     0
SMALL
USER_CHARGES

@<TRIPOS>ATOM
      1 C1          0.2322    1.3391    0.3990 C.3       1 <0>        -0.1589
      2 C2          0.1444   -0.1794    0.2335 C.3       1 <0>        -0.1214
      3 C3          0.8458   -0.5925   -1.0620 C.3       1 <0>        -0.1479
      4 C4          0.7580   -2.1110   -1.2276 C.3       1 <0>        -0.0178
      5 N1          1.3172   -2.4946   -2.5307 N.4       1 <0>        -0.3836
      6 C5          2.7561   -2.1992   -2.5522 C.3       1 <0>        -0.0144
      7 C6          3.3099   -2.4628   -3.9538 C.3       1 <0>        -0.1497
      8 C7          4.7763   -2.0300   -4.0125 C.3       1 <0>        -0.1210
      9 C8          5.3301   -2.2937   -5.4142 C.3       1 <0>        -0.1591
     10 C9          1.1093   -3.9324   -2.7486 C.3       1 <0>        -0.0110
     11 C10        -0.3898   -4.2212   -2.8506 C.3       1 <0>        -0.1496
     12 C11        -0.6064   -5.7186   -3.0777 C.3       1 <0>         0.0698
     13 O1         -2.0065   -5.9884   -3.1729 O.3       1 <0>        -0.3522
     14 C12        -2.3703   -7.2702   -3.3744 C.2       1 <0>         0.5213
     15 O2         -1.5219   -8.1352   -3.4667 O.2       1 <0>        -0.5084
     16 C13        -3.7971   -7.6229   -3.4829 C.ar      1 <0>        -0.2055
     17 C14        -4.7746   -6.6277   -3.3827 C.ar      1 <0>        -0.0073
     18 C15        -6.1012   -6.9592   -3.4845 C.ar      1 <0>        -0.2168
     19 C16        -6.4756   -8.2849   -3.6869 C.ar      1 <0>         0.2636
     20 C17        -5.5049   -9.2782   -3.7871 C.ar      1 <0>        -0.2127
     21 C18        -4.1764   -8.9527   -3.6919 C.ar      1 <0>         0.0038
     22 N2         -7.8214   -8.6177   -3.7887 N.pl3     1 <0>        -0.8592
     23 H1          1.2790    1.6402    0.4407 H         1 <0>         0.0590
     24 H2         -0.2524    1.8255   -0.4476 H         1 <0>         0.0592
     25 H3         -0.2675    1.6335    1.3220 H         1 <0>         0.0670
     26 H4          0.6290   -0.6658    1.0801 H         1 <0>         0.0734
     27 H5         -0.9024   -0.4804    0.1919 H         1 <0>         0.0734
     28 H6          0.3613   -0.1061   -1.9086 H         1 <0>         0.0859
     29 H7          1.8926   -0.2915   -1.0204 H         1 <0>         0.0871
     30 H8          1.3237   -2.5965   -0.4323 H         1 <0>         0.1313
     31 H9         -0.2851   -2.4226   -1.1739 H         1 <0>         0.1338
     32 H10         2.9163   -1.1537   -2.2889 H         1 <0>         0.1340
     33 H11         3.2689   -2.8377   -1.8328 H         1 <0>         0.1310
     34 H12         3.2358   -3.5266   -4.1796 H         1 <0>         0.0873
     35 H13         2.7340   -1.8952   -4.6848 H         1 <0>         0.0861
     36 H14         4.8504   -0.9662   -3.7867 H         1 <0>         0.0730
     37 H15         5.3522   -2.5976   -3.2816 H         1 <0>         0.0735
     38 H16         5.2560   -3.3574   -5.6400 H         1 <0>         0.0594
     39 H17         4.7542   -1.7261   -6.1451 H         1 <0>         0.0592
     40 H18         6.3748   -1.9853   -5.4560 H         1 <0>         0.0670
     41 H19         1.6012   -4.2346   -3.6732 H         1 <0>         0.1370
     42 H20         1.5309   -4.4913   -1.9132 H         1 <0>         0.1349
     43 H21        -0.8817   -3.9190   -1.9261 H         1 <0>         0.0990
     44 H22        -0.8114   -3.6623   -3.6861 H         1 <0>         0.0994
     45 H23        -0.1144   -6.0209   -4.0022 H         1 <0>         0.0779
     46 H24        -0.1847   -6.2775   -2.2422 H         1 <0>         0.0777
     47 H25        -4.4849   -5.5993   -3.2250 H         1 <0>         0.1339
     48 H26        -6.8565   -6.1912   -3.4072 H         1 <0>         0.1312
     49 H27        -5.7987  -10.3055   -3.9441 H         1 <0>         0.1341
     50 H28        -3.4239   -9.7230   -3.7742 H         1 <0>         0.1379
     51 H29        -8.4985   -7.9266   -3.7188 H         1 <0>         0.4052
     52 H30        -8.0834   -9.5409   -3.9298 H         1 <0>         0.4060
     53 H31         0.8559   -1.9735   -3.2612 H         1 <0>         0.4234
@<TRIPOS>BOND
     1    1    2 1
     2    1   23 1
     3    1   24 1
     4    1   25 1
     5    2    3 1
     6    2   26 1
     7    2   27 1
     8    3    4 1
     9    3   28 1
    10    3   29 1
    11    4    5 1
    12    4   30 1
    13    4   31 1
    14    5    6 1
    15    5   10 1
    16    5   53 1
    17    6    7 1
    18    6   32 1
    19    6   33 1
    20    7    8 1
    21    7   34 1
    22    7   35 1
    23    8    9 1
    24    8   36 1
    25    8   37 1
    26    9   38 1
    27    9   39 1
    28    9   40 1
    29   10   11 1
    30   10   41 1
    31   10   42 1
    32   11   12 1
    33   11   43 1
    34   11   44 1
    35   12   13 1
    36   12   45 1
    37   12   46 1
    38   13   14 1
    39   14   15 2
    40   14   16 1
    41   16   21 ar
    42   16   17 ar
    43   17   18 ar
    44   17   47 1
    45   18   19 ar
    46   18   48 1
    47   19   20 ar
    48   19   22 1
    49   20   21 ar
    50   20   49 1
    51   21   50 1
    52   22   51 1
    53   22   52 1
@<TRIPOS>MOLECULE
ZINC03831404
   49    52     0     0     0
SMALL
USER_CHARGES

@<TRIPOS>ATOM
      1 C1         -0.1447    1.4498   -0.0358 C.3       1 <0>         0.0202
      2 O1         -0.0967    0.0216   -0.0342 O.3       1 <0>        -0.3137
      3 C2         -1.2860   -0.6357   -0.0187 C.ar      1 <0>         0.1587
      4 C3         -2.4789    0.0940   -0.0111 C.ar      1 <0>        -0.1754
      5 C4         -3.6845   -0.5346    0.0043 C.ar      1 <0>        -0.0348
      6 C5         -3.7405   -1.9399    0.0128 C.ar      1 <0>         0.0988
      7 C6         -2.5314   -2.6796    0.0051 C.ar      1 <0>        -0.0442
      8 C7         -1.3026   -2.0016   -0.0164 C.ar      1 <0>        -0.1798
      9 C8         -2.5916   -4.0858    0.0136 C.ar      1 <0>        -0.0895
     10 C9         -3.8225   -4.6782    0.0291 C.ar      1 <0>        -0.1348
     11 C10        -4.9722   -3.8919    0.0360 C.ar      1 <0>         0.1204
     12 N1         -4.9125   -2.5823    0.0276 N.ar      1 <0>        -0.4415
     13 C11        -1.3332   -4.9149    0.0054 C.3       1 <0>         0.1418
     14 H1         -0.5607   -4.4085    0.5842 H         1 <0>         0.1364
     15 C12        -0.8529   -5.0986   -1.4356 C.3       1 <0>        -0.0023
     16 H2         -0.7983   -4.1263   -1.9253 H         1 <0>         0.1455
     17 C13        -1.8399   -5.9924   -2.1898 C.3       1 <0>        -0.1346
     18 C14        -1.0973   -7.2389   -2.6887 C.3       1 <0>        -0.0928
     19 H3         -1.7779   -7.8894   -3.2381 H         1 <0>         0.1185
     20 C15        -0.5209   -7.9775   -1.4735 C.3       1 <0>        -0.1358
     21 C16         0.4178   -7.0320   -0.7208 C.3       1 <0>        -0.0203
     22 N2          0.4758   -5.7154   -1.4301 N.4       1 <0>        -0.3774
     23 C17         0.9787   -5.8686   -2.7973 C.3       1 <0>        -0.0008
     24 C18         0.0537   -6.7856   -3.5964 C.3       1 <0>        -0.0655
     25 H4          0.6118   -7.6562   -3.9410 H         1 <0>         0.1096
     26 C19        -0.5018   -6.0374   -4.7808 C.2       1 <0>        -0.1913
     27 C20        -0.2814   -6.4766   -5.9951 C.2       1 <0>        -0.1422
     28 O2         -1.6013   -6.1934    0.5848 O.3       1 <0>        -0.5357
     29 H5          0.8701    1.8474   -0.0487 H         1 <0>         0.1093
     30 H6         -0.6812    1.7943   -0.9198 H         1 <0>         0.0626
     31 H7         -0.6596    1.7970    0.8600 H         1 <0>         0.0636
     32 H8         -2.4420    1.1733   -0.0172 H         1 <0>         0.1456
     33 H9         -4.5966    0.0437    0.0104 H         1 <0>         0.1494
     34 H10        -0.3760   -2.5563   -0.0272 H         1 <0>         0.1291
     35 H11        -3.9040   -5.7551    0.0355 H         1 <0>         0.1386
     36 H12        -5.9386   -4.3739    0.0482 H         1 <0>         0.1687
     37 H13        -2.6468   -6.2912   -1.5208 H         1 <0>         0.0944
     38 H14        -2.2504   -5.4472   -3.0397 H         1 <0>         0.1077
     39 H15        -1.3328   -8.2868   -0.8152 H         1 <0>         0.1000
     40 H16         0.0344   -8.8537   -1.8082 H         1 <0>         0.1001
     41 H17         0.0547   -6.8971    0.2980 H         1 <0>         0.1667
     42 H18         1.4186   -7.4630   -0.6922 H         1 <0>         0.1228
     43 H19         1.0234   -4.8913   -3.2779 H         1 <0>         0.1304
     44 H20         1.9786   -6.3016   -2.7684 H         1 <0>         0.1334
     45 H21        -1.0815   -5.1390   -4.6284 H         1 <0>         0.1164
     46 H22         0.2983   -7.3750   -6.1475 H         1 <0>         0.1044
     47 H23        -0.6795   -5.9404   -6.8438 H         1 <0>         0.1101
     48 H24        -2.2806   -6.7011    0.1201 H         1 <0>         0.3862
     49 H25         1.1080   -5.1073   -0.9315 H         1 <0>         0.4230
@<TRIPOS>BOND
     1    1    2 1
     2    1   29 1
     3    1   30 1
     4    1   31 1
     5    2    3 1
     6    3    8 ar
     7    3    4 ar
     8    4    5 ar
     9    4   32 1
    10    5    6 ar
    11    5   33 1
    12    6   12 ar
    13    6    7 ar
    14    7    8 ar
    15    7    9 ar
    16    8   34 1
    17    9   10 ar
    18    9   13 1
    19   10   11 ar
    20   10   35 1
    21   11   12 ar
    22   11   36 1
    23   13   14 1
    24   13   15 1
    25   13   28 1
    26   15   16 1
    27   15   22 1
    28   15   17 1
    29   17   18 1
    30   17   37 1
    31   17   38 1
    32   18   19 1
    33   18   24 1
    34   18   20 1
    35   20   21 1
    36   20   39 1
    37   20   40 1
    38   21   22 1
    39   21   41 1
    40   21   42 1
    41   22   23 1
    42   22   49 1
    43   23   24 1
    44   23   43 1
    45   23   44 1
    46   24   25 1
    47   24   26 1
    48   26   27 2
    49   26   45 1
    50   27   46 1
    51   27   47 1
    52   28   48 1
@<TRIPOS>MOLECULE
ZINC72110942
   64    67     0     0     0
SMALL
USER_CHARGES

@<TRIPOS>ATOM
      1 C1         -1.4822    1.3177   -0.2780 C.3       1 <0>        -0.1152
      2 C2         -0.5094    0.1837   -0.0812 C.ar      1 <0>        -0.1438
      3 C3          0.0769   -0.4282   -1.1803 C.ar      1 <0>         0.1778
      4 C4          0.9737   -1.4730   -0.9955 C.ar      1 <0>        -0.1234
      5 C5          1.2817   -1.9032    0.2809 C.ar      1 <0>        -0.0855
      6 C6          0.6995   -1.2965    1.3769 C.ar      1 <0>        -0.1401
      7 C7         -0.1936   -0.2470    1.1991 C.ar      1 <0>         0.1605
      8 N1         -0.7784    0.3708    2.3100 N.am      1 <0>        -0.6698
      9 C8         -0.9762   -0.3298    3.4442 C.2       1 <0>         0.5101
     10 O1         -0.5711   -1.4697    3.5314 O.2       1 <0>        -0.5218
     11 C9         -1.7008    0.3031    4.6042 C.3       1 <0>        -0.1707
     12 N2         -0.2350    0.0061   -2.4724 N.pl3     1 <0>        -0.6230
     13 C10        -0.2166   -0.8882   -3.5250 C.ar      1 <0>         0.6269
     14 N3         -0.0219   -2.1848   -3.2945 N.ar      1 <0>        -0.6236
     15 C11        -0.0046   -3.0412   -4.3007 C.ar      1 <0>         0.4081
     16 N4         -0.1799   -2.6145   -5.5393 N.ar      1 <0>        -0.6332
     17 C12        -0.3752   -1.3197   -5.7776 C.ar      1 <0>         0.6314
     18 N5         -0.3987   -0.4563   -4.7680 N.ar      1 <0>        -0.6477
     19 N6         -0.5577   -0.8752   -7.0712 N.pl3     1 <0>        -0.5712
     20 C13        -0.7682    0.5520   -7.3497 C.3       1 <0>         0.1266
     21 C14        -2.0505    0.7100   -8.1728 C.3       1 <0>        -0.1309
     22 C15        -1.9605   -0.1678   -9.4232 C.3       1 <0>         0.0898
     23 C16        -1.8295   -1.6355   -9.0100 C.3       1 <0>        -0.1566
     24 C17        -0.5391   -1.8193   -8.1969 C.3       1 <0>         0.1268
     25 O2         -3.1415    0.0017  -10.2098 O.3       1 <0>        -0.3732
     26 C18        -2.9356   -0.1746  -11.6129 C.3       1 <0>         0.1043
     27 C19        -4.2396    0.0260  -12.3410 C.ar      1 <0>        -0.1084
     28 C20        -5.0813   -1.0493  -12.5583 C.ar      1 <0>        -0.0600
     29 C21        -6.2770   -0.8681  -13.2259 C.ar      1 <0>        -0.1255
     30 C22        -6.6333    0.3941  -13.6782 C.ar      1 <0>         0.1113
     31 C23        -5.7873    1.4714  -13.4586 C.ar      1 <0>        -0.1927
     32 C24        -4.5950    1.2860  -12.7858 C.ar      1 <0>        -0.0557
     33 O3         -7.8089    0.5748  -14.3356 O.3       1 <0>        -0.3103
     34 C25        -8.1105    1.9015  -14.7726 C.3       1 <0>         0.6042
     35 F1         -7.1160    2.3398  -15.6535 F         1 <0>        -0.1642
     36 F2         -9.3476    1.9073  -15.4259 F         1 <0>        -0.1295
     37 F3         -8.1633    2.7562  -13.6663 F         1 <0>        -0.1639
     38 H1         -0.9403    2.2633   -0.2908 H         1 <0>         0.0719
     39 H2         -2.0065    1.1865   -1.2245 H         1 <0>         0.0677
     40 H3         -2.2036    1.3234    0.5392 H         1 <0>         0.0683
     41 H4          1.4304   -1.9496   -1.8503 H         1 <0>         0.1402
     42 H5          1.9790   -2.7159    0.4221 H         1 <0>         0.1294
     43 H6          0.9418   -1.6356    2.3733 H         1 <0>         0.1482
     44 H7         -1.0416    1.3033    2.2638 H         1 <0>         0.4109
     45 H8         -1.9866    1.3218    4.3419 H         1 <0>         0.0781
     46 H9         -2.5943   -0.2770    4.8347 H         1 <0>         0.1004
     47 H10        -1.0455    0.3224    5.4750 H         1 <0>         0.1001
     48 H11        -0.4644    0.9354   -2.6295 H         1 <0>         0.4234
     49 H12         0.1537   -4.0924   -4.1105 H         1 <0>         0.2083
     50 H13        -0.8672    1.0968   -6.4107 H         1 <0>         0.1058
     51 H14         0.0786    0.9430   -7.9137 H         1 <0>         0.0715
     52 H15        -2.9076    0.4028   -7.5735 H         1 <0>         0.0763
     53 H16        -2.1672    1.7527   -8.4679 H         1 <0>         0.0861
     54 H17        -1.0890    0.1236  -10.0095 H         1 <0>         0.0651
     55 H18        -2.6887   -1.9206   -8.4028 H         1 <0>         0.0773
     56 H19        -1.7891   -2.2621   -9.9009 H         1 <0>         0.0805
     57 H20         0.3259   -1.6177   -8.8286 H         1 <0>         0.0711
     58 H21        -0.4871   -2.8397   -7.8171 H         1 <0>         0.1073
     59 H22        -2.2058    0.5534  -11.9673 H         1 <0>         0.0612
     60 H23        -2.5651   -1.1821  -11.8019 H         1 <0>         0.0616
     61 H24        -4.8035   -2.0317  -12.2060 H         1 <0>         0.1392
     62 H25        -6.9338   -1.7085  -13.3960 H         1 <0>         0.1419
     63 H26        -6.0624    2.4550  -13.8097 H         1 <0>         0.1358
     64 H27        -3.9381    2.1252  -12.6107 H         1 <0>         0.1347
@<TRIPOS>BOND
     1    1    2 1
     2    1   38 1
     3    1   39 1
     4    1   40 1
     5    2    7 ar
     6    2    3 ar
     7    3    4 ar
     8    3   12 1
     9    4    5 ar
    10    4   41 1
    11    5    6 ar
    12    5   42 1
    13    6    7 ar
    14    6   43 1
    15    7    8 1
    16    8    9 am
    17    8   44 1
    18    9   10 2
    19    9   11 1
    20   11   45 1
    21   11   46 1
    22   11   47 1
    23   12   13 1
    24   12   48 1
    25   13   18 ar
    26   13   14 ar
    27   14   15 ar
    28   15   16 ar
    29   15   49 1
    30   16   17 ar
    31   17   18 ar
    32   17   19 1
    33   19   24 1
    34   19   20 1
    35   20   21 1
    36   20   50 1
    37   20   51 1
    38   21   22 1
    39   21   52 1
    40   21   53 1
    41   22   23 1
    42   22   25 1
    43   22   54 1
    44   23   24 1
    45   23   55 1
    46   23   56 1
    47   24   57 1
    48   24   58 1
    49   25   26 1
    50   26   27 1
    51   26   59 1
    52   26   60 1
    53   27   32 ar
    54   27   28 ar
    55   28   29 ar
    56   28   61 1
    57   29   30 ar
    58   29   62 1
    59   30   31 ar
    60   30   33 1
    61   31   32 ar
    62   31   63 1
    63   32   64 1
    64   33   34 1
    65   34   35 1
    66   34   36 1
    67   34   37 1
@<TRIPOS>MOLECULE
ZINC03812888
   72    73     0     0     0
SMALL
USER_CHARGES

@<TRIPOS>ATOM
      1 C1          0.4643    1.3329   -0.2411 C.3       1 <0>        -0.1747
      2 C2          0.0733   -0.1223    0.0241 C.3       1 <0>        -0.0830
      3 C3          0.8761   -0.6579    1.2114 C.3       1 <0>        -0.1834
      4 C4         -1.4212   -0.1988    0.3430 C.3       1 <0>         0.1004
      5 C5         -2.2237    0.3455   -0.8405 C.3       1 <0>        -0.1048
      6 C6         -1.9247   -0.4899   -2.0868 C.3       1 <0>        -0.1606
      7 C7         -2.7272    0.0544   -3.2703 C.3       1 <0>        -0.0091
      8 N1         -2.4402   -0.7477   -4.4670 N.4       1 <0>        -0.3873
      9 C8         -1.0302   -0.5789   -4.8430 C.3       1 <0>        -0.0587
     10 C9         -3.2986   -0.3021   -5.5727 C.3       1 <0>        -0.0075
     11 C10        -3.0896   -1.2169   -6.7811 C.3       1 <0>        -0.0949
     12 C11        -3.9702   -0.7598   -7.9154 C.ar      1 <0>        -0.1088
     13 C12        -5.2517   -1.2635   -8.0399 C.ar      1 <0>        -0.1027
     14 C13        -6.0634   -0.8473   -9.0787 C.ar      1 <0>        -0.1717
     15 C14        -5.5933    0.0770   -9.9977 C.ar      1 <0>         0.1180
     16 C15        -4.3036    0.5843   -9.8722 C.ar      1 <0>         0.1059
     17 C16        -3.4969    0.1666   -8.8259 C.ar      1 <0>        -0.1655
     18 O1         -3.8377    1.4917  -10.7717 O.3       1 <0>        -0.3008
     19 C17        -2.5044    1.9690  -10.5804 C.3       1 <0>         0.0253
     20 O2         -6.3903    0.4871  -11.0204 O.3       1 <0>        -0.3014
     21 C18        -7.7019   -0.0764  -11.0869 C.3       1 <0>         0.0227
     22 C19        -1.7993   -1.6000    0.5892 C.1       1 <0>         0.2041
     23 N2         -2.0910   -2.6813    0.7792 N.1       1 <0>        -0.4101
     24 C20        -1.7157    0.6241    1.5707 C.ar      1 <0>        -0.0960
     25 C21        -0.6924    1.2978    2.2112 C.ar      1 <0>        -0.1135
     26 C22        -0.9573    2.0540    3.3377 C.ar      1 <0>        -0.1756
     27 C23        -2.2510    2.1383    3.8270 C.ar      1 <0>         0.1175
     28 C24        -3.2811    1.4605    3.1820 C.ar      1 <0>         0.1030
     29 C25        -3.0094    0.7082    2.0505 C.ar      1 <0>        -0.1606
     30 O3         -4.5524    1.5402    3.6584 O.3       1 <0>        -0.3010
     31 C26        -5.5587    0.8184    2.9454 C.3       1 <0>         0.0257
     32 O4         -2.5133    2.8814    4.9353 O.3       1 <0>        -0.3026
     33 C27        -1.4070    3.5493    5.5454 C.3       1 <0>         0.0232
     34 H1          1.5417    1.4471   -0.1220 H         1 <0>         0.0714
     35 H2          0.1801    1.6060   -1.2573 H         1 <0>         0.0573
     36 H3         -0.0504    1.9823    0.4671 H         1 <0>         0.0866
     37 H4          0.2874   -0.7230   -0.8599 H         1 <0>         0.0818
     38 H5          1.8959   -0.2762    1.1621 H         1 <0>         0.0724
     39 H6          0.4106   -0.3318    2.1415 H         1 <0>         0.0837
     40 H7          0.8938   -1.7472    1.1763 H         1 <0>         0.0565
     41 H8         -3.2884    0.2910   -0.6133 H         1 <0>         0.0854
     42 H9         -1.9437    1.3831   -1.0228 H         1 <0>         0.1040
     43 H10        -0.8600   -0.4354   -2.3140 H         1 <0>         0.0984
     44 H11        -2.2047   -1.5275   -1.9045 H         1 <0>         0.0867
     45 H12        -3.7919   -0.0001   -3.0431 H         1 <0>         0.1322
     46 H13        -2.4473    1.0920   -3.4526 H         1 <0>         0.1347
     47 H14        -0.8339    0.4722   -5.0545 H         1 <0>         0.1249
     48 H15        -0.3932   -0.9095   -4.0226 H         1 <0>         0.1255
     49 H16        -0.8172   -1.1741   -5.7310 H         1 <0>         0.1260
     50 H17        -4.3424   -0.3437   -5.2617 H         1 <0>         0.1327
     51 H18        -3.0405    0.7218   -5.8431 H         1 <0>         0.1319
     52 H19        -2.0457   -1.1754   -7.0921 H         1 <0>         0.0944
     53 H20        -3.3477   -2.2408   -6.5107 H         1 <0>         0.0957
     54 H21        -5.6193   -1.9840   -7.3242 H         1 <0>         0.1290
     55 H22        -7.0638   -1.2429   -9.1741 H         1 <0>         0.1420
     56 H23        -2.4969    0.5616   -8.7240 H         1 <0>         0.1364
     57 H24        -2.2588    2.6850  -11.3647 H         1 <0>         0.1070
     58 H25        -2.4286    2.4553   -9.6078 H         1 <0>         0.0539
     59 H26        -1.8088    1.1309  -10.6227 H         1 <0>         0.0563
     60 H27        -7.6275   -1.1590  -11.1896 H         1 <0>         0.0592
     61 H28        -8.2478    0.1654  -10.1750 H         1 <0>         0.0584
     62 H29        -8.2308    0.3347  -11.9468 H         1 <0>         0.1080
     63 H30         0.3164    1.2329    1.8308 H         1 <0>         0.1604
     64 H31        -0.1560    2.5788    3.8366 H         1 <0>         0.1426
     65 H32        -3.8077    0.1843    1.5459 H         1 <0>         0.1325
     66 H33        -6.5240    0.9669    3.4294 H         1 <0>         0.1055
     67 H34        -5.6074    1.1811    1.9187 H         1 <0>         0.0536
     68 H35        -5.3123   -0.2434    2.9444 H         1 <0>         0.0538
     69 H36        -0.6644    2.8139    5.8548 H         1 <0>         0.0583
     70 H37        -0.9593    4.2388    4.8297 H         1 <0>         0.0585
     71 H38        -1.7536    4.1046    6.4169 H         1 <0>         0.1058
     72 H39        -2.6218   -1.7207   -4.2712 H         1 <0>         0.4250
@<TRIPOS>BOND
     1    1    2 1
     2    1   34 1
     3    1   35 1
     4    1   36 1
     5    2    3 1
     6    2    4 1
     7    2   37 1
     8    3   38 1
     9    3   39 1
    10    3   40 1
    11    4    5 1
    12    4   22 1
    13    4   24 1
    14    5    6 1
    15    5   41 1
    16    5   42 1
    17    6    7 1
    18    6   43 1
    19    6   44 1
    20    7    8 1
    21    7   45 1
    22    7   46 1
    23    8    9 1
    24    8   10 1
    25    8   72 1
    26    9   47 1
    27    9   48 1
    28    9   49 1
    29   10   11 1
    30   10   50 1
    31   10   51 1
    32   11   12 1
    33   11   52 1
    34   11   53 1
    35   12   17 ar
    36   12   13 ar
    37   13   14 ar
    38   13   54 1
    39   14   15 ar
    40   14   55 1
    41   15   16 ar
    42   15   20 1
    43   16   17 ar
    44   16   18 1
    45   17   56 1
    46   18   19 1
    47   19   57 1
    48   19   58 1
    49   19   59 1
    50   20   21 1
    51   21   60 1
    52   21   61 1
    53   21   62 1
    54   22   23 3
    55   24   29 ar
    56   24   25 ar
    57   25   26 ar
    58   25   63 1
    59   26   27 ar
    60   26   64 1
    61   27   28 ar
    62   27   32 1
    63   28   29 ar
    64   28   30 1
    65   29   65 1
    66   30   31 1
    67   31   66 1
    68   31   67 1
    69   31   68 1
    70   32   33 1
    71   33   69 1
    72   33   70 1
    73   33   71 1
@<TRIPOS>MOLECULE
ZINC01532185
   53    55     0     0     0
SMALL
USER_CHARGES

@<TRIPOS>ATOM
      1 C1         -0.4409    0.0564   -0.2782 C.3       1 <0>        -0.1837
      2 C2         -0.8674   -1.3379    0.1855 C.3       1 <0>         0.0315
      3 H1         -1.9344   -1.3361    0.4082 H         1 <0>         0.1401
      4 C3         -0.5792   -2.3539   -0.9215 C.3       1 <0>        -0.0993
      5 C4         -1.1104   -3.7042   -0.5148 C.ar      1 <0>        -0.1268
      6 C5         -0.3050   -4.5806    0.1882 C.ar      1 <0>        -0.1429
      7 C6         -0.7922   -5.8193    0.5613 C.ar      1 <0>        -0.1069
      8 C7         -2.0850   -6.1814    0.2318 C.ar      1 <0>        -0.1048
      9 C8         -2.8906   -5.3046   -0.4705 C.ar      1 <0>        -0.1052
     10 C9         -2.4048   -4.0643   -0.8398 C.ar      1 <0>        -0.1056
     11 N1         -0.1157   -1.7034    1.3935 N.4       1 <0>        -0.5090
     12 C10        -0.4834   -0.7993    2.4914 C.3       1 <0>        -0.0153
     13 C11         0.2995   -1.1801    3.7495 C.3       1 <0>        -0.1410
     14 C12        -0.0835   -0.2384    4.8930 C.3       1 <0>         0.0069
     15 C13         0.5933   -0.6881    6.1621 C.ar      1 <0>        -0.0878
     16 C14        -0.1521   -0.8916    7.3083 C.ar      1 <0>        -0.1102
     17 C15         0.4687   -1.3041    8.4725 C.ar      1 <0>        -0.1130
     18 C16         1.8350   -1.5135    8.4903 C.ar      1 <0>        -0.1123
     19 C17         2.5804   -1.3109    7.3439 C.ar      1 <0>        -0.1154
     20 C18         1.9589   -0.9025    6.1786 C.ar      1 <0>        -0.1161
     21 C19         0.3569    1.1634    4.5583 C.ar      1 <0>        -0.0932
     22 C20         1.6626    1.4043    4.1734 C.ar      1 <0>        -0.1205
     23 C21         2.0666    2.6901    3.8664 C.ar      1 <0>        -0.1143
     24 C22         1.1648    3.7350    3.9438 C.ar      1 <0>        -0.1132
     25 C23        -0.1411    3.4939    4.3278 C.ar      1 <0>        -0.1118
     26 C24        -0.5462    2.2074    4.6307 C.ar      1 <0>        -0.1134
     27 H2          0.6261    0.0546   -0.5009 H         1 <0>         0.0831
     28 H3         -0.9987    0.3276   -1.1745 H         1 <0>         0.1074
     29 H4         -0.6463    0.7802    0.5105 H         1 <0>         0.0840
     30 H5         -1.0656   -2.0347   -1.8433 H         1 <0>         0.1208
     31 H6          0.4968   -2.4202   -1.0827 H         1 <0>         0.0974
     32 H7          0.7050   -4.2977    0.4457 H         1 <0>         0.1208
     33 H8         -0.1628   -6.5042    1.1100 H         1 <0>         0.1314
     34 H9         -2.4654   -7.1494    0.5227 H         1 <0>         0.1320
     35 H10        -3.9005   -5.5877   -0.7282 H         1 <0>         0.1324
     36 H11        -3.0355   -3.3779   -1.3853 H         1 <0>         0.1295
     37 H12        -0.3360   -2.6535    1.6521 H         1 <0>         0.4254
     38 H13        -0.2455    0.2270    2.2120 H         1 <0>         0.1372
     39 H14        -1.5521   -0.8836    2.6890 H         1 <0>         0.1330
     40 H15         0.0615   -2.2064    4.0289 H         1 <0>         0.0944
     41 H16         1.3681   -1.0958    3.5519 H         1 <0>         0.0916
     42 H17        -1.1645   -0.2563    5.0318 H         1 <0>         0.0962
     43 H18        -1.2196   -0.7280    7.2944 H         1 <0>         0.1229
     44 H19        -0.1136   -1.4624    9.3682 H         1 <0>         0.1269
     45 H20         2.3202   -1.8351    9.4001 H         1 <0>         0.1263
     46 H21         3.6478   -1.4742    7.3579 H         1 <0>         0.1251
     47 H22         2.5406   -0.7478    5.2820 H         1 <0>         0.1188
     48 H23         2.3671    0.5880    4.1130 H         1 <0>         0.1208
     49 H24         3.0868    2.8785    3.5664 H         1 <0>         0.1252
     50 H25         1.4806    4.7397    3.7047 H         1 <0>         0.1262
     51 H26        -0.8455    4.3103    4.3886 H         1 <0>         0.1268
     52 H27        -1.5674    2.0185    4.9271 H         1 <0>         0.1237
     53 H28         0.8735   -1.6254    1.2105 H         1 <0>         0.4238
@<TRIPOS>BOND
     1    1    2 1
     2    1   27 1
     3    1   28 1
     4    1   29 1
     5    2    3 1
     6    2    4 1
     7    2   11 1
     8    4    5 1
     9    4   30 1
    10    4   31 1
    11    5   10 ar
    12    5    6 ar
    13    6    7 ar
    14    6   32 1
    15    7    8 ar
    16    7   33 1
    17    8    9 ar
    18    8   34 1
    19    9   10 ar
    20    9   35 1
    21   10   36 1
    22   11   12 1
    23   11   37 1
    24   11   53 1
    25   12   13 1
    26   12   38 1
    27   12   39 1
    28   13   14 1
    29   13   40 1
    30   13   41 1
    31   14   15 1
    32   14   21 1
    33   14   42 1
    34   15   20 ar
    35   15   16 ar
    36   16   17 ar
    37   16   43 1
    38   17   18 ar
    39   17   44 1
    40   18   19 ar
    41   18   45 1
    42   19   20 ar
    43   19   46 1
    44   20   47 1
    45   21   26 ar
    46   21   22 ar
    47   22   23 ar
    48   22   48 1
    49   23   24 ar
    50   23   49 1
    51   24   25 ar
    52   24   50 1
    53   25   26 ar
    54   25   51 1
    55   26   52 1
@<TRIPOS>MOLECULE
ZINC01532186
   53    55     0     0     0
SMALL
USER_CHARGES

@<TRIPOS>ATOM
      1 C1          0.1837    2.7840   -0.6454 C.3       1 <0>        -0.1835
      2 C2          0.7239    1.3858   -0.3387 C.3       1 <0>         0.0310
      3 H1         -0.0927    0.7464   -0.0032 H         1 <0>         0.1397
      4 C3          1.7839    1.4784    0.7607 C.3       1 <0>        -0.0994
      5 C4          2.2274    0.0914    1.1489 C.ar      1 <0>        -0.1269
      6 C5          1.5677   -0.5887    2.1555 C.ar      1 <0>        -0.1052
      7 C6          1.9745   -1.8610    2.5116 C.ar      1 <0>        -0.1052
      8 C7          3.0407   -2.4532    1.8610 C.ar      1 <0>        -0.1048
      9 C8          3.6998   -1.7734    0.8538 C.ar      1 <0>        -0.1070
     10 C9          3.2903   -0.5029    0.4947 C.ar      1 <0>        -0.1428
     11 N1          1.3251    0.8161   -1.5519 N.4       1 <0>        -0.5090
     12 C10         0.2826    0.6159   -2.5674 C.3       1 <0>        -0.0150
     13 C11         0.9088    0.0226   -3.8310 C.3       1 <0>        -0.1412
     14 C12        -0.1769   -0.1859   -4.8887 C.3       1 <0>         0.0073
     15 C13         0.4566   -0.6542   -6.1734 C.ar      1 <0>        -0.0878
     16 C14         0.1891    0.0075   -7.3572 C.ar      1 <0>        -0.1101
     17 C15         0.7702   -0.4221   -8.5357 C.ar      1 <0>        -0.1131
     18 C16         1.6191   -1.5130   -8.5301 C.ar      1 <0>        -0.1122
     19 C17         1.8873   -2.1742   -7.3461 C.ar      1 <0>        -0.1154
     20 C18         1.3096   -1.7420   -6.1670 C.ar      1 <0>        -0.1161
     21 C19        -1.1571   -1.2232   -4.4046 C.ar      1 <0>        -0.0935
     22 C20        -0.7013   -2.4489   -3.9565 C.ar      1 <0>        -0.1201
     23 C21        -1.6004   -3.4004   -3.5125 C.ar      1 <0>        -0.1143
     24 C22        -2.9553   -3.1260   -3.5162 C.ar      1 <0>        -0.1131
     25 C23        -3.4110   -1.9000   -3.9635 C.ar      1 <0>        -0.1119
     26 C24        -2.5116   -0.9469   -4.4035 C.ar      1 <0>        -0.1133
     27 H2          1.0002    3.4234   -0.9809 H         1 <0>         0.0835
     28 H3         -0.5715    2.7181   -1.4286 H         1 <0>         0.0838
     29 H4         -0.2624    3.2067    0.2549 H         1 <0>         0.1075
     30 H5          2.6401    2.0440    0.3931 H         1 <0>         0.0976
     31 H6          1.3622    1.9818    1.6306 H         1 <0>         0.1208
     32 H7          0.7348   -0.1260    2.6638 H         1 <0>         0.1293
     33 H8          1.4596   -2.3921    3.2985 H         1 <0>         0.1322
     34 H9          3.3590   -3.4469    2.1397 H         1 <0>         0.1318
     35 H10         4.5330   -2.2360    0.3457 H         1 <0>         0.1313
     36 H11         3.8029    0.0268   -0.2947 H         1 <0>         0.1209
     37 H12         2.0255    1.4486   -1.9091 H         1 <0>         0.4240
     38 H13        -0.4740   -0.0673   -2.1816 H         1 <0>         0.1337
     39 H14        -0.1804    1.5733   -2.8065 H         1 <0>         0.1363
     40 H15         1.6654    0.7058   -4.2168 H         1 <0>         0.0955
     41 H16         1.3718   -0.9348   -3.5920 H         1 <0>         0.0906
     42 H17        -0.6997    0.7545   -5.0631 H         1 <0>         0.0965
     43 H18        -0.4742    0.8598   -7.3615 H         1 <0>         0.1231
     44 H19         0.5607    0.0944   -9.4607 H         1 <0>         0.1269
     45 H20         2.0726   -1.8491   -9.4509 H         1 <0>         0.1263
     46 H21         2.5503   -3.0267   -7.3419 H         1 <0>         0.1250
     47 H22         1.5221   -2.2562   -5.2413 H         1 <0>         0.1187
     48 H23         0.3572   -2.6632   -3.9535 H         1 <0>         0.1205
     49 H24        -1.2444   -4.3583   -3.1630 H         1 <0>         0.1249
     50 H25        -3.6578   -3.8697   -3.1700 H         1 <0>         0.1261
     51 H26        -4.4695   -1.6858   -3.9668 H         1 <0>         0.1269
     52 H27        -2.8673    0.0123   -4.7495 H         1 <0>         0.1238
     53 H28         1.7537   -0.0701   -1.3307 H         1 <0>         0.4254
@<TRIPOS>BOND
     1    1    2 1
     2    1   27 1
     3    1   28 1
     4    1   29 1
     5    2    3 1
     6    2    4 1
     7    2   11 1
     8    4    5 1
     9    4   30 1
    10    4   31 1
    11    5   10 ar
    12    5    6 ar
    13    6    7 ar
    14    6   32 1
    15    7    8 ar
    16    7   33 1
    17    8    9 ar
    18    8   34 1
    19    9   10 ar
    20    9   35 1
    21   10   36 1
    22   11   12 1
    23   11   37 1
    24   11   53 1
    25   12   13 1
    26   12   38 1
    27   12   39 1
    28   13   14 1
    29   13   40 1
    30   13   41 1
    31   14   15 1
    32   14   21 1
    33   14   42 1
    34   15   20 ar
    35   15   16 ar
    36   16   17 ar
    37   16   43 1
    38   17   18 ar
    39   17   44 1
    40   18   19 ar
    41   18   45 1
    42   19   20 ar
    43   19   46 1
    44   20   47 1
    45   21   26 ar
    46   21   22 ar
    47   22   23 ar
    48   22   48 1
    49   23   24 ar
    50   23   49 1
    51   24   25 ar
    52   24   50 1
    53   25   26 ar
    54   25   51 1
    55   26   52 1
@<TRIPOS>MOLECULE
ZINC14982453
   41    43     0     0     0
SMALL
USER_CHARGES
5-(4-chlorophenyl)-N-(3,5-dimethoxyphenyl)furan-2-carboxamide
@<TRIPOS>ATOM
      1 C1          2.6766   -2.4088    1.0951 C.3       1 <0>         0.0261
      2 O1          1.4013   -1.7670    1.1562 O.3       1 <0>        -0.3115
      3 C2          1.2979   -0.5435    0.5738 C.ar      1 <0>         0.1852
      4 C3          0.0890    0.1348    0.5966 C.ar      1 <0>        -0.2114
      5 C4         -0.0165    1.3849    0.0016 C.ar      1 <0>         0.2188
      6 C5          1.0890    1.9545   -0.6158 C.ar      1 <0>        -0.1889
      7 C6          2.2972    1.2750   -0.6373 C.ar      1 <0>         0.1853
      8 C7          2.4018    0.0264   -0.0427 C.ar      1 <0>        -0.3081
      9 O2          3.3796    1.8328   -1.2408 O.3       1 <0>        -0.3088
     10 C8          4.5923    1.0771   -1.2250 C.3       1 <0>         0.0257
     11 N1         -1.2367    2.0671    0.0192 N.am      1 <0>        -0.6612
     12 C9         -1.2562    3.4103    0.1283 C.2       1 <0>         0.6085
     13 O3         -0.2122    4.0363    0.1269 O.2       1 <0>        -0.4884
     14 C10        -2.5336    4.1167    0.2485 C.2       1 <0>        -0.0814
     15 C11        -2.6960    5.4796    0.3719 C.2       1 <0>        -0.1003
     16 C12        -4.0719    5.7162    0.4533 C.2       1 <0>        -0.1969
     17 C13        -4.6928    4.5018    0.3869 C.2       1 <0>         0.0677
     18 O4         -3.7567    3.5459    0.2637 O.3       1 <0>        -0.1559
     19 C14        -6.1512    4.2764    0.4422 C.ar      1 <0>        -0.0249
     20 C15        -7.0233    5.3587    0.5787 C.ar      1 <0>        -0.0777
     21 C16        -8.3844    5.1420    0.6249 C.ar      1 <0>        -0.1062
     22 C17        -8.8865    3.8536    0.5470 C.ar      1 <0>        -0.0241
     23 C18        -8.0266    2.7757    0.4168 C.ar      1 <0>        -0.1072
     24 C19        -6.6638    2.9796    0.3641 C.ar      1 <0>        -0.0837
     25 Cl1       -10.6009    3.5885    0.6132 Cl        1 <0>        -0.0594
     26 H1          2.9599   -2.5557    0.0529 H         1 <0>         0.0569
     27 H2          3.4213   -1.7852    1.5897 H         1 <0>         0.0568
     28 H3          2.6214   -3.3753    1.5962 H         1 <0>         0.1037
     29 H4         -0.7703   -0.3088    1.0774 H         1 <0>         0.1377
     30 H5          1.0076    2.9266   -1.0792 H         1 <0>         0.1505
     31 H6          3.3434   -0.5023   -0.0595 H         1 <0>         0.1371
     32 H7          5.3749    1.6353   -1.7390 H         1 <0>         0.1038
     33 H8          4.8936    0.8952   -0.1934 H         1 <0>         0.0565
     34 H9          4.4336    0.1246   -1.7306 H         1 <0>         0.0564
     35 H10        -2.0692    1.5737   -0.0472 H         1 <0>         0.4196
     36 H11        -1.9121    6.2220    0.3979 H         1 <0>         0.1686
     37 H12        -4.5527    6.6779    0.5543 H         1 <0>         0.1641
     38 H13        -6.6327    6.3635    0.6437 H         1 <0>         0.1419
     39 H14        -9.0601    5.9784    0.7263 H         1 <0>         0.1435
     40 H15        -8.4242    1.7733    0.3569 H         1 <0>         0.1416
     41 H16        -5.9942    2.1382    0.2630 H         1 <0>         0.1400
@<TRIPOS>BOND
     1    1    2 1
     2    1   26 1
     3    1   27 1
     4    1   28 1
     5    2    3 1
     6    3    8 ar
     7    3    4 ar
     8    4    5 ar
     9    4   29 1
    10    5    6 ar
    11    5   11 1
    12    6    7 ar
    13    6   30 1
    14    7    8 ar
    15    7    9 1
    16    8   31 1
    17    9   10 1
    18   10   32 1
    19   10   33 1
    20   10   34 1
    21   11   12 am
    22   11   35 1
    23   12   13 2
    24   12   14 1
    25   14   18 1
    26   14   15 2
    27   15   16 1
    28   15   36 1
    29   16   17 2
    30   16   37 1
    31   17   18 1
    32   17   19 1
    33   19   24 ar
    34   19   20 ar
    35   20   21 ar
    36   20   38 1
    37   21   22 ar
    38   21   39 1
    39   22   23 ar
    40   22   25 1
    41   23   24 ar
    42   23   40 1
    43   24   41 1
@<TRIPOS>MOLECULE
ZINC00643233
   56    59     0     0     0
SMALL
USER_CHARGES

@<TRIPOS>ATOM
      1 C1         -0.0167    1.3786    0.0096 C.ar      1 <0>        -0.1573
      2 C2          1.1695    2.0894    0.0021 C.ar      1 <0>        -0.0635
      3 C3          2.3774    1.4200   -0.0130 C.ar      1 <0>        -0.1784
      4 C4          2.3998    0.0311   -0.0206 C.ar      1 <0>         0.2317
      5 C5          1.2064   -0.6798   -0.0130 C.ar      1 <0>        -0.1988
      6 C6          0.0021   -0.0041    0.0020 C.ar      1 <0>        -0.0706
      7 N1          3.6196   -0.6492   -0.0363 N.pl3     1 <0>        -0.6334
      8 C7          4.9637   -0.0571   -0.0400 C.3       1 <0>         0.3326
      9 N2          5.9388   -1.1470   -0.0572 N.am      1 <0>        -0.7166
     10 C8          5.3099   -2.3344   -0.0641 C.2       1 <0>         0.5288
     11 O1          5.8532   -3.4187   -0.0778 O.2       1 <0>        -0.5133
     12 C9          3.8222   -2.1026   -0.0461 C.3       1 <0>         0.1361
     13 C10         3.1820   -2.7114   -1.2943 C.3       1 <0>        -0.1499
     14 C11         3.3480   -4.2326   -1.2552 C.3       1 <0>        -0.0132
     15 N3          2.7020   -4.7671   -0.0503 N.4       1 <0>        -0.3794
     16 C12         3.3698   -4.2457    1.1482 C.3       1 <0>        -0.0190
     17 C13         3.2050   -2.7250    1.2070 C.3       1 <0>        -0.1492
     18 C14         2.7905   -6.2335   -0.0591 C.3       1 <0>        -0.0094
     19 C15         2.0109   -6.7986    1.1299 C.3       1 <0>        -0.1425
     20 C16         2.1030   -8.3258    1.1207 C.3       1 <0>        -0.1654
     21 C17         1.3351   -8.8824    2.2919 C.2       1 <0>         0.4040
     22 O2          0.7698   -8.1316    3.0583 O.2       1 <0>        -0.4484
     23 C18         1.2712  -10.3355    2.5052 C.ar      1 <0>        -0.1962
     24 C19         1.9272  -11.2044    1.6259 C.ar      1 <0>        -0.0430
     25 C20         1.8634  -12.5650    1.8315 C.ar      1 <0>        -0.1669
     26 C21         1.1505  -13.0743    2.9070 C.ar      1 <0>         0.1434
     27 C22         0.4980  -12.2186    3.7823 C.ar      1 <0>        -0.1651
     28 C23         0.5590  -10.8557    3.5917 C.ar      1 <0>        -0.0262
     29 F1          1.0910  -14.4098    3.1025 F         1 <0>        -0.1261
     30 H1         -0.9598    1.9046    0.0260 H         1 <0>         0.1276
     31 H2          1.1513    3.1692    0.0077 H         1 <0>         0.1312
     32 H3          3.3034    1.9757   -0.0192 H         1 <0>         0.1257
     33 H4          1.2204   -1.7597   -0.0193 H         1 <0>         0.1144
     34 H5         -0.9261   -0.5561    0.0079 H         1 <0>         0.1276
     35 H6          5.0901    0.5643   -0.9265 H         1 <0>         0.0880
     36 H7          5.1025    0.5473    0.8564 H         1 <0>         0.0877
     37 H8          6.9016   -1.0295   -0.0627 H         1 <0>         0.4365
     38 H9          2.1214   -2.4613   -1.3183 H         1 <0>         0.1096
     39 H10         3.6706   -2.3147   -2.1843 H         1 <0>         0.1192
     40 H11         2.8858   -4.6710   -2.1397 H         1 <0>         0.1383
     41 H12         4.4090   -4.4817   -1.2391 H         1 <0>         0.1470
     42 H13         2.9238   -4.6937    2.0361 H         1 <0>         0.1399
     43 H14         4.4303   -4.4946    1.1101 H         1 <0>         0.1471
     44 H15         3.7099   -2.3380    2.0921 H         1 <0>         0.1189
     45 H16         2.1450   -2.4752    1.2532 H         1 <0>         0.1098
     46 H17         2.3668   -6.6175   -0.9870 H         1 <0>         0.1347
     47 H18         3.8354   -6.5348    0.0153 H         1 <0>         0.1347
     48 H19         2.4346   -6.4145    2.0578 H         1 <0>         0.0947
     49 H20         0.9660   -6.4972    1.0555 H         1 <0>         0.0950
     50 H21         1.6793   -8.7098    0.1928 H         1 <0>         0.1132
     51 H22         3.1479   -8.6271    1.1951 H         1 <0>         0.1132
     52 H23         2.4820  -10.8091    0.7879 H         1 <0>         0.1415
     53 H24         2.3692  -13.2366    1.1537 H         1 <0>         0.1468
     54 H25        -0.0554  -12.6215    4.6177 H         1 <0>         0.1475
     55 H26         0.0543  -10.1903    4.2765 H         1 <0>         0.1457
     56 H27         1.7315   -4.4913   -0.0400 H         1 <0>         0.4195
@<TRIPOS>BOND
     1    1    6 ar
     2    1    2 ar
     3    1   30 1
     4    2    3 ar
     5    2   31 1
     6    3    4 ar
     7    3   32 1
     8    4    5 ar
     9    4    7 1
    10    5    6 ar
    11    5   33 1
    12    6   34 1
    13    7   12 1
    14    7    8 1
    15    8    9 1
    16    8   35 1
    17    8   36 1
    18    9   10 am
    19    9   37 1
    20   10   11 2
    21   10   12 1
    22   12   17 1
    23   12   13 1
    24   13   14 1
    25   13   38 1
    26   13   39 1
    27   14   15 1
    28   14   40 1
    29   14   41 1
    30   15   16 1
    31   15   18 1
    32   15   56 1
    33   16   17 1
    34   16   42 1
    35   16   43 1
    36   17   44 1
    37   17   45 1
    38   18   19 1
    39   18   46 1
    40   18   47 1
    41   19   20 1
    42   19   48 1
    43   19   49 1
    44   20   21 1
    45   20   50 1
    46   20   51 1
    47   21   22 2
    48   21   23 1
    49   23   28 ar
    50   23   24 ar
    51   24   25 ar
    52   24   52 1
    53   25   26 ar
    54   25   53 1
    55   26   27 ar
    56   26   29 1
    57   27   28 ar
    58   27   54 1
    59   28   55 1
@<TRIPOS>MOLECULE
ZINC00020240
   41    42     0     0     0
SMALL
USER_CHARGES

@<TRIPOS>ATOM
      1 C1         -0.0187    1.5258    0.0104 C.3       1 <0>        -0.1864
      2 C2          0.0021   -0.0041    0.0020 C.3       1 <0>         0.0237
      3 C3          0.7421   -0.5109    1.2415 C.3       1 <0>        -0.1853
      4 N1         -1.3761   -0.5125    0.0124 N.4       1 <0>        -0.5024
      5 C4         -2.0500   -0.1262   -1.2343 C.3       1 <0>        -0.0455
      6 C5         -3.4854   -0.6557   -1.2235 C.3       1 <0>         0.0867
      7 H1         -3.4743   -1.7319   -1.0509 H         1 <0>         0.1348
      8 C6         -4.1475   -0.3621   -2.5712 C.3       1 <0>         0.0290
      9 O1         -5.4460   -0.9578   -2.6037 O.3       1 <0>        -0.2976
     10 C7         -6.1730   -0.7902   -3.7385 C.ar      1 <0>         0.1358
     11 C8         -5.6568   -0.0834   -4.7882 C.ar      1 <0>        -0.2166
     12 C9         -6.3892    0.0973   -5.9580 C.ar      1 <0>        -0.0839
     13 C10        -7.6399   -0.4245   -6.0915 C.ar      1 <0>        -0.1302
     14 C11        -8.2062   -1.1581   -5.0353 C.ar      1 <0>        -0.0207
     15 C12        -7.4628   -1.3490   -3.8442 C.ar      1 <0>        -0.0669
     16 C13        -8.0269   -2.0859   -2.7904 C.ar      1 <0>        -0.0916
     17 C14        -9.2755   -2.6106   -2.9280 C.ar      1 <0>        -0.1198
     18 C15       -10.0052   -2.4276   -4.1011 C.ar      1 <0>        -0.0996
     19 C16        -9.4946   -1.7103   -5.1390 C.ar      1 <0>        -0.1126
     20 O2         -4.2221   -0.0137   -0.1809 O.3       1 <0>        -0.5426
     21 H2          1.0039    1.9031    0.0027 H         1 <0>         0.1080
     22 H3         -0.5459    1.8868   -0.8726 H         1 <0>         0.0796
     23 H4         -0.5289    1.8773    0.9072 H         1 <0>         0.0835
     24 H5          0.5123   -0.3556   -0.8948 H         1 <0>         0.1399
     25 H6          0.2319   -0.1594    2.1383 H         1 <0>         0.0829
     26 H7          0.7568   -1.6008    1.2356 H         1 <0>         0.0831
     27 H8          1.7647   -0.1336    1.2338 H         1 <0>         0.1084
     28 H9         -1.3629   -1.5185    0.0898 H         1 <0>         0.4304
     29 H10        -2.0643    0.9605   -1.3179 H         1 <0>         0.1411
     30 H11        -1.5132   -0.5489   -2.0836 H         1 <0>         0.1463
     31 H12        -4.2389    0.7159   -2.7039 H         1 <0>         0.0781
     32 H13        -3.5374   -0.7766   -3.3737 H         1 <0>         0.0827
     33 H14        -4.6670    0.3413   -4.7087 H         1 <0>         0.1233
     34 H15        -5.9587    0.6606   -6.7727 H         1 <0>         0.1282
     35 H16        -8.1947   -0.2748   -7.0059 H         1 <0>         0.1330
     36 H17        -7.4729   -2.2360   -1.8755 H         1 <0>         0.1299
     37 H18        -9.7069   -3.1772   -2.1160 H         1 <0>         0.1276
     38 H19       -10.9936   -2.8547   -4.1849 H         1 <0>         0.1293
     39 H20       -10.0715   -1.5762   -6.0421 H         1 <0>         0.1342
     40 H21        -4.2734    0.9478   -0.2701 H         1 <0>         0.3904
     41 H22        -1.8730   -0.1212    0.7986 H         1 <0>         0.4317
@<TRIPOS>BOND
     1    1    2 1
     2    1   21 1
     3    1   22 1
     4    1   23 1
     5    2    3 1
     6    2    4 1
     7    2   24 1
     8    3   25 1
     9    3   26 1
    10    3   27 1
    11    4    5 1
    12    4   28 1
    13    4   41 1
    14    5    6 1
    15    5   29 1
    16    5   30 1
    17    6    7 1
    18    6    8 1
    19    6   20 1
    20    8    9 1
    21    8   31 1
    22    8   32 1
    23    9   10 1
    24   10   15 ar
    25   10   11 ar
    26   11   12 ar
    27   11   33 1
    28   12   13 ar
    29   12   34 1
    30   13   14 ar
    31   13   35 1
    32   14   19 ar
    33   14   15 ar
    34   15   16 ar
    35   16   17 ar
    36   16   36 1
    37   17   18 ar
    38   17   37 1
    39   18   19 ar
    40   18   38 1
    41   19   39 1
    42   20   40 1
@<TRIPOS>MOLECULE
ZINC00056556
   41    42     0     0     0
SMALL
USER_CHARGES

@<TRIPOS>ATOM
      1 C1         -0.0187    1.5258    0.0104 C.3       1 <0>        -0.1868
      2 C2          0.0021   -0.0041    0.0020 C.3       1 <0>         0.0239
      3 C3          0.7421   -0.5109    1.2415 C.3       1 <0>        -0.1852
      4 N1         -1.3761   -0.5125    0.0124 N.4       1 <0>        -0.5018
      5 C4         -2.0500   -0.1262   -1.2343 C.3       1 <0>        -0.0456
      6 C5         -3.4854   -0.6557   -1.2235 C.3       1 <0>         0.0866
      7 H1         -4.0222   -0.2330   -0.3742 H         1 <0>         0.1356
      8 C6         -4.1873   -0.2533   -2.5220 C.3       1 <0>         0.0290
      9 O1         -5.5600   -0.6460   -2.4630 O.3       1 <0>        -0.2976
     10 C7         -6.3301   -0.3603   -3.5445 C.ar      1 <0>         0.1358
     11 C8         -5.7871    0.2702   -4.6286 C.ar      1 <0>        -0.2166
     12 C9         -6.5629    0.5699   -5.7447 C.ar      1 <0>        -0.0839
     13 C10        -7.8843    0.2439   -5.7897 C.ar      1 <0>        -0.1302
     14 C11        -8.4805   -0.4055   -4.6955 C.ar      1 <0>        -0.0207
     15 C12        -7.6937   -0.7172   -3.5589 C.ar      1 <0>        -0.0669
     16 C13        -8.2884   -1.3701   -2.4672 C.ar      1 <0>        -0.0916
     17 C14        -9.6084   -1.6991   -2.5165 C.ar      1 <0>        -0.1198
     18 C15       -10.3815   -1.3976   -3.6361 C.ar      1 <0>        -0.0996
     19 C16        -9.8416   -0.7560   -4.7081 C.ar      1 <0>        -0.1126
     20 O2         -3.4667   -2.0804   -1.1139 O.3       1 <0>        -0.5435
     21 H2          1.0039    1.9031    0.0027 H         1 <0>         0.1081
     22 H3         -0.5459    1.8868   -0.8726 H         1 <0>         0.0803
     23 H4         -0.5289    1.8773    0.9072 H         1 <0>         0.0836
     24 H5          0.5123   -0.3556   -0.8948 H         1 <0>         0.1393
     25 H6          0.2319   -0.1594    2.1383 H         1 <0>         0.0829
     26 H7          0.7568   -1.6008    1.2356 H         1 <0>         0.0831
     27 H8          1.7647   -0.1336    1.2338 H         1 <0>         0.1083
     28 H9         -1.3629   -1.5185    0.0898 H         1 <0>         0.4333
     29 H10        -2.0643    0.9605   -1.3179 H         1 <0>         0.1475
     30 H11        -1.5132   -0.5489   -2.0836 H         1 <0>         0.1398
     31 H12        -4.1237    0.8273   -2.6496 H         1 <0>         0.0828
     32 H13        -3.7039   -0.7477   -3.3646 H         1 <0>         0.0780
     33 H14        -4.7413    0.5399   -4.6191 H         1 <0>         0.1233
     34 H15        -6.1098    1.0693   -6.5883 H         1 <0>         0.1282
     35 H16        -8.4722    0.4840   -6.6634 H         1 <0>         0.1330
     36 H17        -7.7014   -1.6104   -1.5931 H         1 <0>         0.1299
     37 H18       -10.0632   -2.2016   -1.6756 H         1 <0>         0.1276
     38 H19       -11.4266   -1.6698   -3.6500 H         1 <0>         0.1293
     39 H20       -10.4528   -0.5282   -5.5689 H         1 <0>         0.1342
     40 H21        -3.0042   -2.5245   -1.8377 H         1 <0>         0.3902
     41 H22        -1.8730   -0.1212    0.7986 H         1 <0>         0.4286
@<TRIPOS>BOND
     1    1    2 1
     2    1   21 1
     3    1   22 1
     4    1   23 1
     5    2    3 1
     6    2    4 1
     7    2   24 1
     8    3   25 1
     9    3   26 1
    10    3   27 1
    11    4    5 1
    12    4   28 1
    13    4   41 1
    14    5    6 1
    15    5   29 1
    16    5   30 1
    17    6    7 1
    18    6    8 1
    19    6   20 1
    20    8    9 1
    21    8   31 1
    22    8   32 1
    23    9   10 1
    24   10   15 ar
    25   10   11 ar
    26   11   12 ar
    27   11   33 1
    28   12   13 ar
    29   12   34 1
    30   13   14 ar
    31   13   35 1
    32   14   19 ar
    33   14   15 ar
    34   15   16 ar
    35   16   17 ar
    36   16   36 1
    37   17   18 ar
    38   17   37 1
    39   18   19 ar
    40   18   38 1
    41   19   39 1
    42   20   40 1
@<TRIPOS>MOLECULE
ZINC03861807
   30    31     0     0     0
SMALL
USER_CHARGES

@<TRIPOS>ATOM
      1 C1         -0.0187    1.5258    0.0104 C.3       1 <0>        -0.1415
      2 C2          0.0021   -0.0041    0.0020 C.3       1 <0>        -0.1122
      3 C3          0.7421   -0.5109    1.2415 C.3       1 <0>        -0.1434
      4 C4         -1.4333   -0.5336    0.0129 C.3       1 <0>         0.1228
      5 N1         -2.1054   -0.1483   -1.2305 N.am      1 <0>        -0.5064
      6 C5         -2.7896    1.0542   -1.3029 C.2       1 <0>         0.3270
      7 C6         -3.4188    1.3971   -2.4931 C.2       1 <0>        -0.1566
      8 C7         -3.3428    0.5129   -3.5907 C.2       1 <0>         0.5930
      9 O1         -3.8857    0.7913   -4.6449 O.2       1 <0>        -0.5148
     10 N2         -2.6613   -0.6442   -3.4587 N.am      1 <0>        -0.5518
     11 C8         -2.0526   -0.9608   -2.3028 C.2       1 <0>         0.7063
     12 O2         -1.4428   -2.0098   -2.2221 O.2       1 <0>        -0.5287
     13 C9         -2.5785   -1.5664   -4.5940 C.3       1 <0>         0.0827
     14 N3         -4.0103    2.6257   -2.2774 N.pl3     1 <0>        -0.5187
     15 H1         -4.5284    3.1372   -2.9183 H         1 <0>         0.4381
     16 C10        -3.7321    2.9790   -1.0073 C.2       1 <0>         0.2767
     17 N4         -3.0113    2.0471   -0.4377 N.2       1 <0>        -0.4957
     18 H2          1.0039    1.9031    0.0027 H         1 <0>         0.0532
     19 H3         -0.5459    1.8868   -0.8726 H         1 <0>         0.0473
     20 H4         -0.5289    1.8773    0.9072 H         1 <0>         0.0653
     21 H5          0.5123   -0.3556   -0.8948 H         1 <0>         0.0742
     22 H6          0.2319   -0.1594    2.1383 H         1 <0>         0.0596
     23 H7          0.7568   -1.6008    1.2356 H         1 <0>         0.0591
     24 H8          1.7647   -0.1336    1.2338 H         1 <0>         0.0613
     25 H9         -1.4190   -1.6203    0.0965 H         1 <0>         0.1003
     26 H10        -1.9701   -0.1109    0.8621 H         1 <0>         0.1000
     27 H11        -3.1215   -1.1486   -5.4417 H         1 <0>         0.1034
     28 H12        -1.5337   -1.7124   -4.8680 H         1 <0>         0.0826
     29 H13        -3.0188   -2.5242   -4.3168 H         1 <0>         0.0828
     30 H14        -4.0547    3.8934   -0.5315 H         1 <0>         0.2343
@<TRIPOS>BOND
     1    1    2 1
     2    1   18 1
     3    1   19 1
     4    1   20 1
     5    2    3 1
     6    2    4 1
     7    2   21 1
     8    3   22 1
     9    3   23 1
    10    3   24 1
    11    4    5 1
    12    4   25 1
    13    4   26 1
    14    5   11 am
    15    5    6 1
    16    6   17 1
    17    6    7 2
    18    7    8 1
    19    7   14 1
    20    8    9 2
    21    8   10 am
    22   10   11 am
    23   10   13 1
    24   11   12 2
    25   13   27 1
    26   13   28 1
    27   13   29 1
    28   14   15 1
    29   14   16 1
    30   16   17 2
    31   16   30 1
@<TRIPOS>MOLECULE
ZINC01671505
   58    59     0     0     0
SMALL
USER_CHARGES

@<TRIPOS>ATOM
      1 C1          0.4434    1.5611    0.6908 C.3       1 <0>        -0.1522
      2 C2          0.6834    0.0849    0.3682 C.3       1 <0>        -0.1437
      3 C3         -0.6534   -0.6594    0.3608 C.3       1 <0>        -0.1095
      4 C4         -0.4188   -2.1254   -0.0091 C.3       1 <0>         0.0483
      5 C5          0.3839   -2.7951    1.0764 C.ar      1 <0>        -0.0888
      6 C6         -0.1990   -3.7675    1.8672 C.ar      1 <0>        -0.0994
      7 C7          0.5373   -4.3818    2.8628 C.ar      1 <0>        -0.1199
      8 C8          1.8568   -4.0240    3.0673 C.ar      1 <0>        -0.1043
      9 C9          2.4400   -3.0522    2.2759 C.ar      1 <0>        -0.1222
     10 C10         1.7049   -2.4409    1.2775 C.ar      1 <0>        -0.0911
     11 C11        -1.7456   -2.8247   -0.1567 C.ar      1 <0>        -0.0858
     12 C12        -2.9157   -2.1614    0.1621 C.ar      1 <0>        -0.1069
     13 C13        -4.1327   -2.8028    0.0267 C.ar      1 <0>        -0.1140
     14 C14        -4.1796   -4.1074   -0.4280 C.ar      1 <0>        -0.1082
     15 C15        -3.0095   -4.7704   -0.7477 C.ar      1 <0>        -0.1128
     16 C16        -1.7928   -4.1275   -0.6163 C.ar      1 <0>        -0.1102
     17 C17         0.3361   -2.2003   -1.3111 C.2       1 <0>         0.4848
     18 O1          1.4154   -2.7420   -1.3534 O.2       1 <0>        -0.4713
     19 O2         -0.1903   -1.6654   -2.4240 O.3       1 <0>        -0.3604
     20 C18         0.5801   -1.7729   -3.6227 C.3       1 <0>         0.0282
     21 C19        -0.1762   -1.1108   -4.7761 C.3       1 <0>        -0.0060
     22 N1         -0.2963    0.3306   -4.5194 N.4       1 <0>        -0.3882
     23 C20         1.0391    0.9426   -4.5282 C.3       1 <0>        -0.0195
     24 C21         0.9295    2.4121   -4.1167 C.3       1 <0>        -0.1880
     25 C22        -1.1242    0.9468   -5.5648 C.3       1 <0>        -0.0161
     26 C23        -2.5555    0.4162   -5.4607 C.3       1 <0>        -0.1895
     27 H1          1.3957    2.0913    0.6960 H         1 <0>         0.0598
     28 H2         -0.2107    1.9964   -0.0647 H         1 <0>         0.0513
     29 H3         -0.0259    1.6472    1.6708 H         1 <0>         0.0633
     30 H4          1.1526   -0.0012   -0.6119 H         1 <0>         0.0492
     31 H5          1.3374   -0.3504    1.1237 H         1 <0>         0.0869
     32 H6         -1.1064   -0.6024    1.3506 H         1 <0>         0.0931
     33 H7         -1.3198   -0.2023   -0.3707 H         1 <0>         0.0807
     34 H8         -1.2299   -4.0471    1.7074 H         1 <0>         0.1274
     35 H9          0.0816   -5.1410    3.4811 H         1 <0>         0.1269
     36 H10         2.4319   -4.5034    3.8457 H         1 <0>         0.1266
     37 H11         3.4708   -2.7724    2.4359 H         1 <0>         0.1258
     38 H12         2.1617   -1.6843    0.6567 H         1 <0>         0.1252
     39 H13        -2.8791   -1.1421    0.5173 H         1 <0>         0.1305
     40 H14        -5.0469   -2.2848    0.2765 H         1 <0>         0.1288
     41 H15        -5.1304   -4.6088   -0.5331 H         1 <0>         0.1279
     42 H16        -3.0461   -5.7898   -1.1026 H         1 <0>         0.1275
     43 H17        -0.8789   -4.6443   -0.8696 H         1 <0>         0.1185
     44 H18         1.5396   -1.2747   -3.4838 H         1 <0>         0.0925
     45 H19         0.7471   -2.8249   -3.8541 H         1 <0>         0.1147
     46 H20         0.3687   -1.2699   -5.7067 H         1 <0>         0.1512
     47 H21        -1.1706   -1.5494   -4.8578 H         1 <0>         0.1456
     48 H22         1.6849    0.4157   -3.8257 H         1 <0>         0.1276
     49 H23         1.4624    0.8766   -5.5305 H         1 <0>         0.1326
     50 H24         1.9067    2.8873   -4.2022 H         1 <0>         0.1075
     51 H25         0.2199    2.9203   -4.7696 H         1 <0>         0.0818
     52 H26         0.5836    2.4756   -3.0849 H         1 <0>         0.0814
     53 H27        -1.1276    2.0291   -5.4347 H         1 <0>         0.1344
     54 H28        -0.7155    0.6999   -6.5446 H         1 <0>         0.1306
     55 H29        -2.9929    0.7339   -4.5142 H         1 <0>         0.0822
     56 H30        -3.1496    0.8094   -6.2857 H         1 <0>         0.1072
     57 H31        -2.5436   -0.6727   -5.5082 H         1 <0>         0.0798
     58 H32        -0.7275    0.4771   -3.6190 H         1 <0>         0.4279
@<TRIPOS>BOND
     1    1    2 1
     2    1   27 1
     3    1   28 1
     4    1   29 1
     5    2    3 1
     6    2   30 1
     7    2   31 1
     8    3    4 1
     9    3   32 1
    10    3   33 1
    11    4    5 1
    12    4   11 1
    13    4   17 1
    14    5   10 ar
    15    5    6 ar
    16    6    7 ar
    17    6   34 1
    18    7    8 ar
    19    7   35 1
    20    8    9 ar
    21    8   36 1
    22    9   10 ar
    23    9   37 1
    24   10   38 1
    25   11   16 ar
    26   11   12 ar
    27   12   13 ar
    28   12   39 1
    29   13   14 ar
    30   13   40 1
    31   14   15 ar
    32   14   41 1
    33   15   16 ar
    34   15   42 1
    35   16   43 1
    36   17   18 2
    37   17   19 1
    38   19   20 1
    39   20   21 1
    40   20   44 1
    41   20   45 1
    42   21   22 1
    43   21   46 1
    44   21   47 1
    45   22   23 1
    46   22   25 1
    47   22   58 1
    48   23   24 1
    49   23   48 1
    50   23   49 1
    51   24   50 1
    52   24   51 1
    53   24   52 1
    54   25   26 1
    55   25   53 1
    56   25   54 1
    57   26   55 1
    58   26   56 1
    59   26   57 1
@<TRIPOS>MOLECULE
ZINC19360739
   57    60     0     0     0
SMALL
USER_CHARGES

@<TRIPOS>ATOM
      1 C1         -0.5652    1.2485    0.7222 C.ar      1 <0>        -0.0943
      2 C2          0.5404    2.0554    0.9232 C.ar      1 <0>        -0.1192
      3 C3          1.8064    1.5069    0.9299 C.ar      1 <0>        -0.0897
      4 C4          1.9702    0.1352    0.7340 C.ar      1 <0>        -0.1001
      5 C5          0.8509   -0.6733    0.5323 C.ar      1 <0>        -0.0995
      6 C6         -0.4096   -0.1123    0.5274 C.ar      1 <0>        -0.1213
      7 C7          3.3236   -0.4590    0.7395 C.2       1 <0>        -0.0129
      8 C8          3.4760   -1.7626    0.5530 C.2       1 <0>        -0.2547
      9 C9          4.8559   -2.3684    0.5587 C.3       1 <0>         0.0399
     10 N1          4.9108   -3.4522    1.5488 N.4       1 <0>        -0.3851
     11 C10         4.0101   -4.5370    1.1373 C.3       1 <0>        -0.0024
     12 C11         4.0527   -5.6581    2.1781 C.3       1 <0>         0.0240
     13 N2          5.4291   -6.1596    2.2975 N.3       1 <0>        -0.5314
     14 C12         6.3467   -5.0788    2.6848 C.3       1 <0>         0.0243
     15 C13         6.2851   -3.9625    1.6399 C.3       1 <0>        -0.0015
     16 C14         5.5014   -7.2775    3.2479 C.3       1 <0>         0.1826
     17 C15         4.5657   -8.3733    2.8066 C.ar      1 <0>        -0.1088
     18 C16         4.5143   -8.7433    1.4756 C.ar      1 <0>        -0.0655
     19 C17         3.6570   -9.7484    1.0699 C.ar      1 <0>        -0.1560
     20 C18         2.8492  -10.3848    1.9971 C.ar      1 <0>         0.1127
     21 C19         2.9015  -10.0133    3.3299 C.ar      1 <0>        -0.1509
     22 C20         3.7634   -9.0115    3.7341 C.ar      1 <0>        -0.0777
     23 F1          2.0103  -11.3671    1.6015 F         1 <0>        -0.1328
     24 C21         6.9111   -7.8084    3.2926 C.ar      1 <0>        -0.1084
     25 C22         7.6132   -8.0036    2.1178 C.ar      1 <0>        -0.0645
     26 C23         8.9061   -8.4900    2.1575 C.ar      1 <0>        -0.1560
     27 C24         9.4983   -8.7818    3.3746 C.ar      1 <0>         0.1126
     28 C25         8.7941   -8.5859    4.5506 C.ar      1 <0>        -0.1509
     29 C26         7.5032   -8.0944    4.5086 C.ar      1 <0>        -0.0782
     30 F2         10.7620   -9.2578    3.4147 F         1 <0>        -0.1329
     31 H1         -1.5544    1.6820    0.7219 H         1 <0>         0.1310
     32 H2          0.4123    3.1170    1.0747 H         1 <0>         0.1321
     33 H3          2.6688    2.1380    1.0862 H         1 <0>         0.1292
     34 H4          0.9711   -1.7357    0.3797 H         1 <0>         0.1229
     35 H5         -1.2767   -0.7369    0.3711 H         1 <0>         0.1300
     36 H6          4.1884    0.1689    0.8954 H         1 <0>         0.1304
     37 H7          2.6112   -2.3905    0.3971 H         1 <0>         0.1361
     38 H8          5.0814   -2.7678   -0.4301 H         1 <0>         0.1357
     39 H9          5.5877   -1.6029    0.8169 H         1 <0>         0.1303
     40 H10         2.9927   -4.1539    1.0575 H         1 <0>         0.1348
     41 H11         4.3285   -4.9266    0.1704 H         1 <0>         0.1381
     42 H12         3.7213   -5.2722    3.1421 H         1 <0>         0.0629
     43 H13         3.3957   -6.4697    1.8655 H         1 <0>         0.1264
     44 H14         6.0531   -4.6834    3.6572 H         1 <0>         0.0632
     45 H15         7.3633   -5.4679    2.7419 H         1 <0>         0.1267
     46 H16         6.5919   -4.3551    0.6704 H         1 <0>         0.1386
     47 H17         6.9545   -3.1536    1.9326 H         1 <0>         0.1357
     48 H18         5.2123   -6.9303    4.2398 H         1 <0>         0.0722
     49 H19         5.1443   -8.2466    0.7526 H         1 <0>         0.1382
     50 H20         3.6168  -10.0371    0.0300 H         1 <0>         0.1392
     51 H21         2.2716  -10.5087    4.0539 H         1 <0>         0.1406
     52 H22         3.8076   -8.7246    4.7744 H         1 <0>         0.1329
     53 H23         7.1509   -7.7762    1.1685 H         1 <0>         0.1380
     54 H24         9.4543   -8.6427    1.2396 H         1 <0>         0.1391
     55 H25         9.2549   -8.8135    5.5005 H         1 <0>         0.1405
     56 H26         6.9553   -7.9373    5.4260 H         1 <0>         0.1327
     57 H27         4.6228   -3.0997    2.4493 H         1 <0>         0.4211
@<TRIPOS>BOND
     1    1    6 ar
     2    1    2 ar
     3    1   31 1
     4    2    3 ar
     5    2   32 1
     6    3    4 ar
     7    3   33 1
     8    4    5 ar
     9    4    7 1
    10    5    6 ar
    11    5   34 1
    12    6   35 1
    13    7    8 2
    14    7   36 1
    15    8    9 1
    16    8   37 1
    17    9   10 1
    18    9   38 1
    19    9   39 1
    20   10   15 1
    21   10   11 1
    22   10   57 1
    23   11   12 1
    24   11   40 1
    25   11   41 1
    26   12   13 1
    27   12   42 1
    28   12   43 1
    29   13   14 1
    30   13   16 1
    31   14   15 1
    32   14   44 1
    33   14   45 1
    34   15   46 1
    35   15   47 1
    36   16   17 1
    37   16   24 1
    38   16   48 1
    39   17   22 ar
    40   17   18 ar
    41   18   19 ar
    42   18   49 1
    43   19   20 ar
    44   19   50 1
    45   20   21 ar
    46   20   23 1
    47   21   22 ar
    48   21   51 1
    49   22   52 1
    50   24   29 ar
    51   24   25 ar
    52   25   26 ar
    53   25   53 1
    54   26   27 ar
    55   26   54 1
    56   27   28 ar
    57   27   30 1
    58   28   29 ar
    59   28   55 1
    60   29   56 1
@<TRIPOS>MOLECULE
ZINC19360739
   57    60     0     0     0
SMALL
USER_CHARGES

@<TRIPOS>ATOM
      1 C1         -0.0167    1.3792    0.0096 C.ar      1 <0>        -0.1111
      2 C2          1.1683    2.0931    0.0021 C.ar      1 <0>        -0.1174
      3 C3          2.3774    1.4286   -0.0134 C.ar      1 <0>        -0.1032
      4 C4          2.4032    0.0335   -0.0212 C.ar      1 <0>        -0.0719
      5 C5          1.2045   -0.6806   -0.0131 C.ar      1 <0>        -0.1113
      6 C6          0.0021   -0.0041    0.0020 C.ar      1 <0>        -0.1199
      7 C7          3.6950   -0.6848   -0.0384 C.2       1 <0>        -0.0777
      8 C8          3.7162   -2.0103   -0.0457 C.2       1 <0>        -0.1693
      9 C9          5.0332   -2.7426   -0.0633 C.3       1 <0>         0.0894
     10 N1          5.0868   -3.6810    1.0657 N.3       1 <0>        -0.5336
     11 C10         4.0942   -4.7533    0.9069 C.3       1 <0>         0.0249
     12 C11         4.1414   -5.6730    2.1290 C.3       1 <0>        -0.0045
     13 N2          5.4882   -6.2444    2.2603 N.4       1 <0>        -0.3853
     14 C12         6.4652   -5.1629    2.4428 C.3       1 <0>        -0.0043
     15 C13         6.4373   -4.2389    1.2233 C.3       1 <0>         0.0273
     16 C14         5.5281   -7.1413    3.4231 C.3       1 <0>         0.1390
     17 C15         4.5271   -8.2520    3.2353 C.ar      1 <0>        -0.1483
     18 C16         4.3690   -8.8365    1.9925 C.ar      1 <0>        -0.0905
     19 C17         3.4516   -9.8555    1.8192 C.ar      1 <0>        -0.1395
     20 C18         2.6908  -10.2910    2.8909 C.ar      1 <0>         0.1333
     21 C19         2.8500   -9.7049    4.1352 C.ar      1 <0>        -0.1404
     22 C20         3.7717   -8.6896    4.3073 C.ar      1 <0>        -0.0532
     23 F1          1.7934  -11.2868    2.7225 F         1 <0>        -0.1222
     24 C21         6.9097   -7.7277    3.5580 C.ar      1 <0>        -0.1479
     25 C22         7.6094   -8.1138    2.4299 C.ar      1 <0>        -0.0911
     26 C23         8.8766   -8.6513    2.5523 C.ar      1 <0>        -0.1392
     27 C24         9.4456   -8.8030    3.8055 C.ar      1 <0>         0.1332
     28 C25         8.7439   -8.4159    4.9346 C.ar      1 <0>        -0.1401
     29 C26         7.4789   -7.8738    4.8093 C.ar      1 <0>        -0.0534
     30 F2         10.6842   -9.3287    3.9264 F         1 <0>        -0.1221
     31 H1         -0.9604    1.9041    0.0260 H         1 <0>         0.1259
     32 H2          1.1469    3.1729    0.0082 H         1 <0>         0.1273
     33 H3          3.3018    1.9870   -0.0200 H         1 <0>         0.1256
     34 H4          1.2178   -1.7605   -0.0194 H         1 <0>         0.1202
     35 H5         -0.9265   -0.5556    0.0079 H         1 <0>         0.1249
     36 H6          4.6214   -0.1298   -0.0450 H         1 <0>         0.1212
     37 H7          2.7898   -2.5653   -0.0392 H         1 <0>         0.1156
     38 H8          5.1300   -3.2938   -0.9987 H         1 <0>         0.0564
     39 H9          5.8492   -2.0250    0.0217 H         1 <0>         0.0932
     40 H10         3.0991   -4.3175    0.8179 H         1 <0>         0.1259
     41 H11         4.3212   -5.3289    0.0096 H         1 <0>         0.0604
     42 H12         3.9011   -5.0999    3.0245 H         1 <0>         0.1416
     43 H13         3.4159   -6.4772    2.0068 H         1 <0>         0.1365
     44 H14         6.2129   -4.5924    3.3367 H         1 <0>         0.1418
     45 H15         7.4624   -5.5889    2.5531 H         1 <0>         0.1369
     46 H16         6.7029   -4.8061    0.3311 H         1 <0>         0.0602
     47 H17         7.1516   -3.4279    1.3651 H         1 <0>         0.1261
     48 H18         5.2824   -6.5792    4.3241 H         1 <0>         0.1543
     49 H19         4.9623   -8.4964    1.1566 H         1 <0>         0.1248
     50 H20         3.3280  -10.3117    0.8481 H         1 <0>         0.1494
     51 H21         2.2569  -10.0435    4.9717 H         1 <0>         0.1518
     52 H22         3.8993   -8.2353    5.2787 H         1 <0>         0.1457
     53 H23         7.1652   -7.9958    1.4525 H         1 <0>         0.1247
     54 H24         9.4229   -8.9532    1.6709 H         1 <0>         0.1494
     55 H25         9.1866   -8.5340    5.9126 H         1 <0>         0.1518
     56 H26         6.9332   -7.5676    5.6896 H         1 <0>         0.1457
     57 H27         5.7151   -6.7652    1.4264 H         1 <0>         0.4130
@<TRIPOS>BOND
     1    1    6 ar
     2    1    2 ar
     3    1   31 1
     4    2    3 ar
     5    2   32 1
     6    3    4 ar
     7    3   33 1
     8    4    5 ar
     9    4    7 1
    10    5    6 ar
    11    5   34 1
    12    6   35 1
    13    7    8 2
    14    7   36 1
    15    8    9 1
    16    8   37 1
    17    9   10 1
    18    9   38 1
    19    9   39 1
    20   10   15 1
    21   10   11 1
    22   11   12 1
    23   11   40 1
    24   11   41 1
    25   12   13 1
    26   12   42 1
    27   12   43 1
    28   13   14 1
    29   13   16 1
    30   13   57 1
    31   14   15 1
    32   14   44 1
    33   14   45 1
    34   15   46 1
    35   15   47 1
    36   16   17 1
    37   16   24 1
    38   16   48 1
    39   17   22 ar
    40   17   18 ar
    41   18   19 ar
    42   18   49 1
    43   19   20 ar
    44   19   50 1
    45   20   21 ar
    46   20   23 1
    47   21   22 ar
    48   21   51 1
    49   22   52 1
    50   24   29 ar
    51   24   25 ar
    52   25   26 ar
    53   25   53 1
    54   26   27 ar
    55   26   54 1
    56   27   28 ar
    57   27   30 1
    58   28   29 ar
    59   28   55 1
    60   29   56 1
@<TRIPOS>MOLECULE
ZINC19360739
   56    59     0     0     0
SMALL
USER_CHARGES

@<TRIPOS>ATOM
      1 C1         -0.6450    1.2067    0.7385 C.ar      1 <0>        -0.1212
      2 C2          0.4537    2.0253    0.9303 C.ar      1 <0>        -0.1188
      3 C3          1.7253    1.4899    0.9286 C.ar      1 <0>        -0.1101
      4 C4          1.9018    0.1196    0.7332 C.ar      1 <0>        -0.0554
      5 C5          0.7895   -0.7006    0.5408 C.ar      1 <0>        -0.1151
      6 C6         -0.4768   -0.1527    0.5444 C.ar      1 <0>        -0.1183
      7 C7          3.2613   -0.4606    0.7297 C.2       1 <0>        -0.1106
      8 C8          3.4257   -1.7628    0.5439 C.2       1 <0>        -0.1355
      9 C9          4.8118   -2.3544    0.5403 C.3       1 <0>         0.0846
     10 N1          4.8851   -3.4361    1.5314 N.3       1 <0>        -0.5355
     11 C10         4.0261   -4.5640    1.1446 C.3       1 <0>         0.0568
     12 C11         4.0688   -5.6331    2.2389 C.3       1 <0>         0.0566
     13 N2          5.4567   -6.0748    2.4347 N.3       1 <0>        -0.5294
     14 C12         6.3157   -4.9470    2.8216 C.3       1 <0>         0.0574
     15 C13         6.2730   -3.8778    1.7272 C.3       1 <0>         0.0585
     16 C14         5.5300   -7.1566    3.4259 C.3       1 <0>         0.1710
     17 C15         4.6571   -8.3028    2.9839 C.ar      1 <0>        -0.0902
     18 C16         4.6784   -8.7188    1.6657 C.ar      1 <0>        -0.0616
     19 C17         3.8787   -9.7702    1.2594 C.ar      1 <0>        -0.1564
     20 C18         3.0561  -10.4069    2.1731 C.ar      1 <0>         0.1011
     21 C19         3.0356   -9.9894    3.4931 C.ar      1 <0>        -0.1535
     22 C20         3.8401   -8.9412    3.8983 C.ar      1 <0>        -0.0820
     23 F1          2.2736  -11.4345    1.7769 F         1 <0>        -0.1394
     24 C21         6.9556   -7.6292    3.5490 C.ar      1 <0>        -0.0900
     25 C22         7.7154   -7.8360    2.4127 C.ar      1 <0>        -0.0609
     26 C23         9.0230   -8.2690    2.5245 C.ar      1 <0>        -0.1564
     27 C24         9.5721   -8.4957    3.7751 C.ar      1 <0>         0.1010
     28 C25         8.8102   -8.2884    4.9125 C.ar      1 <0>        -0.1536
     29 C26         7.5045   -7.8503    4.7985 C.ar      1 <0>        -0.0822
     30 F2         10.8502   -8.9195    3.8855 F         1 <0>        -0.1394
     31 H1         -1.6385    1.6300    0.7449 H         1 <0>         0.1219
     32 H2          0.3157    3.0857    1.0814 H         1 <0>         0.1233
     33 H3          2.5822    2.1300    1.0777 H         1 <0>         0.1236
     34 H4          0.9195   -1.7619    0.3888 H         1 <0>         0.1224
     35 H5         -1.3385   -0.7864    0.3952 H         1 <0>         0.1228
     36 H6          4.1206    0.1764    0.8785 H         1 <0>         0.1188
     37 H7          2.5664   -2.3998    0.3951 H         1 <0>         0.1136
     38 H8          5.0342   -2.7529   -0.4496 H         1 <0>         0.0473
     39 H9          5.5375   -1.5811    0.7921 H         1 <0>         0.0809
     40 H10         3.0016   -4.2141    1.0178 H         1 <0>         0.0804
     41 H11         4.3842   -4.9889    0.2069 H         1 <0>         0.0440
     42 H12         3.6851   -5.2160    3.1700 H         1 <0>         0.0452
     43 H13         3.4552   -6.4833    1.9409 H         1 <0>         0.0839
     44 H14         5.9575   -4.5220    3.7593 H         1 <0>         0.0455
     45 H15         7.3402   -5.2969    2.9483 H         1 <0>         0.0841
     46 H16         6.6566   -4.2950    0.7961 H         1 <0>         0.0443
     47 H17         6.8865   -3.0277    2.0252 H         1 <0>         0.0807
     48 H18         5.1846   -6.7883    4.3919 H         1 <0>         0.0629
     49 H19         5.3199   -8.2218    0.9531 H         1 <0>         0.1388
     50 H20         3.8952  -10.0948    0.2295 H         1 <0>         0.1357
     51 H21         2.3941  -10.4851    4.2066 H         1 <0>         0.1360
     52 H22         3.8276   -8.6183    4.9288 H         1 <0>         0.1311
     53 H23         7.2867   -7.6593    1.4373 H         1 <0>         0.1386
     54 H24         9.6162   -8.4307    1.6366 H         1 <0>         0.1356
     55 H25         9.2374   -8.4652    5.8885 H         1 <0>         0.1360
     56 H26         6.9114   -7.6842    5.6856 H         1 <0>         0.1310
@<TRIPOS>BOND
     1    1    6 ar
     2    1    2 ar
     3    1   31 1
     4    2    3 ar
     5    2   32 1
     6    3    4 ar
     7    3   33 1
     8    4    5 ar
     9    4    7 1
    10    5    6 ar
    11    5   34 1
    12    6   35 1
    13    7    8 2
    14    7   36 1
    15    8    9 1
    16    8   37 1
    17    9   10 1
    18    9   38 1
    19    9   39 1
    20   10   15 1
    21   10   11 1
    22   11   12 1
    23   11   40 1
    24   11   41 1
    25   12   13 1
    26   12   42 1
    27   12   43 1
    28   13   14 1
    29   13   16 1
    30   14   15 1
    31   14   44 1
    32   14   45 1
    33   15   46 1
    34   15   47 1
    35   16   17 1
    36   16   24 1
    37   16   48 1
    38   17   22 ar
    39   17   18 ar
    40   18   19 ar
    41   18   49 1
    42   19   20 ar
    43   19   50 1
    44   20   21 ar
    45   20   23 1
    46   21   22 ar
    47   21   51 1
    48   22   52 1
    49   24   29 ar
    50   24   25 ar
    51   25   26 ar
    52   25   53 1
    53   26   27 ar
    54   26   54 1
    55   27   28 ar
    56   27   30 1
    57   28   29 ar
    58   28   55 1
    59   29   56 1
@<TRIPOS>MOLECULE
ZINC00405262
   31    31     0     0     0
SMALL
USER_CHARGES
1-(3,4-dichlorophenyl)-2-isopropylamino-ethanol
@<TRIPOS>ATOM
      1 C1         -0.0589    6.1653   -3.4138 C.3       1 <0>        -0.1848
      2 C2          1.3339    6.1160   -2.7826 C.3       1 <0>         0.0270
      3 C3          1.9227    7.5274   -2.7354 C.3       1 <0>        -0.1858
      4 C4          1.2549    4.1122   -1.4256 C.3       1 <0>        -0.0402
      5 C5          1.1497    3.5933    0.0099 C.3       1 <0>         0.1365
      6 H1          0.2175    3.9414    0.4546 H         1 <0>         0.1361
      7 C6          1.1707    2.0865    0.0021 C.ar      1 <0>        -0.1286
      8 C7          2.3777    1.4123   -0.0130 C.ar      1 <0>        -0.0907
      9 C8          2.3983    0.0305   -0.0206 C.ar      1 <0>        -0.0898
     10 C9          1.2107   -0.6791   -0.0131 C.ar      1 <0>        -0.0180
     11 C10         0.0021   -0.0041    0.0020 C.ar      1 <0>        -0.0301
     12 C11        -0.0167    1.3792    0.0096 C.ar      1 <0>        -0.0820
     13 Cl1        -1.4891   -0.8929    0.0109 Cl        1 <0>        -0.0258
     14 Cl2         1.2360   -2.4149   -0.0233 Cl        1 <0>        -0.0237
     15 O1          2.2538    4.0811    0.7748 O.3       1 <0>        -0.5442
     16 H2          0.0149    6.5622   -4.4263 H         1 <0>         0.1072
     17 H3         -0.4784    5.1598   -3.4474 H         1 <0>         0.0796
     18 H4         -0.7055    6.8090   -2.8174 H         1 <0>         0.0834
     19 H5          1.9805    5.4723   -3.3789 H         1 <0>         0.1376
     20 H6          2.9150    7.4922   -2.2857 H         1 <0>         0.0824
     21 H7          1.9965    7.9243   -3.7479 H         1 <0>         0.1074
     22 H8          1.2762    8.1711   -2.1391 H         1 <0>         0.0830
     23 H9          2.1872    3.7641   -1.8704 H         1 <0>         0.1373
     24 H10         0.4128    3.7402   -2.0091 H         1 <0>         0.1443
     25 H11         3.3050    1.9659   -0.0189 H         1 <0>         0.1392
     26 H12         3.3415   -0.4955   -0.0328 H         1 <0>         0.1527
     27 H13        -0.9592    1.9065    0.0169 H         1 <0>         0.1478
     28 H14         3.1177    3.8095    0.4358 H         1 <0>         0.3894
     29 N1          1.2337    5.5871   -1.4092 N.4       1 <0>        -0.5149
     30 H15         0.3553    5.9085   -0.9857 H         1 <0>         0.4322
     31 H16         2.0268    5.9311   -0.8551 H         1 <0>         0.4356
@<TRIPOS>BOND
     1    1    2 1
     2    1   16 1
     3    1   17 1
     4    1   18 1
     5    2    3 1
     6    2   19 1
     7    2   29 1
     8    3   20 1
     9    3   21 1
    10    3   22 1
    11    4    5 1
    12    4   23 1
    13    4   24 1
    14    4   29 1
    15    5    6 1
    16    5    7 1
    17    5   15 1
    18    7   12 ar
    19    7    8 ar
    20    8    9 ar
    21    8   25 1
    22    9   10 ar
    23    9   26 1
    24   10   11 ar
    25   10   14 1
    26   11   12 ar
    27   11   13 1
    28   12   27 1
    29   15   28 1
    30   29   30 1
    31   29   31 1
@<TRIPOS>MOLECULE
ZINC00405263
   31    31     0     0     0
SMALL
USER_CHARGES
1-(3,4-dichlorophenyl)-2-isopropylamino-ethanol
@<TRIPOS>ATOM
      1 C1         -6.3278   -0.3294    2.7310 C.3       1 <0>        -0.1859
      2 C2         -4.8357   -0.0028    2.8195 C.3       1 <0>         0.0268
      3 C3         -4.1198   -1.0989    3.6113 C.3       1 <0>        -0.1844
      4 C4         -3.0733    0.9245    1.4422 C.3       1 <0>        -0.0408
      5 C5         -2.5137    0.9784    0.0192 C.3       1 <0>         0.1368
      6 H1         -2.3327   -0.0352   -0.3386 H         1 <0>         0.1362
      7 C6         -1.2195    1.7504    0.0173 C.ar      1 <0>        -0.1287
      8 C7         -0.0126    1.0758    0.0080 C.ar      1 <0>        -0.0838
      9 C8          1.1750    1.7827    0.0004 C.ar      1 <0>        -0.0910
     10 C9          1.1567    3.1660    0.0076 C.ar      1 <0>        -0.0179
     11 C10        -0.0517    3.8414    0.0223 C.ar      1 <0>        -0.0292
     12 C11        -1.2396    3.1322    0.0298 C.ar      1 <0>        -0.0885
     13 Cl1        -0.0764    5.5772    0.0307 Cl        1 <0>        -0.0264
     14 Cl2         2.6482    4.0544   -0.0013 Cl        1 <0>        -0.0237
     15 O1         -3.4556    1.6254   -0.8388 O.3       1 <0>        -0.5443
     16 H2         -6.4609   -1.2870    2.2277 H         1 <0>         0.0829
     17 H3         -6.7477   -0.3853    3.7353 H         1 <0>         0.1074
     18 H4         -6.8378    0.4515    2.1669 H         1 <0>         0.0825
     19 H5         -4.7025    0.9549    3.3227 H         1 <0>         0.1376
     20 H6         -4.2529   -2.0566    3.1080 H         1 <0>         0.0833
     21 H7         -3.0567   -0.8662    3.6743 H         1 <0>         0.0795
     22 H8         -4.5396   -1.1548    4.6156 H         1 <0>         0.1072
     23 H9         -2.3201    0.5119    2.1135 H         1 <0>         0.1445
     24 H10        -3.3374    1.9309    1.7671 H         1 <0>         0.1369
     25 H11         0.0021   -0.0041    0.0020 H         1 <0>         0.1450
     26 H12         2.1174    1.2551   -0.0107 H         1 <0>         0.1533
     27 H13        -2.1826    3.6585    0.0413 H         1 <0>         0.1418
     28 H14        -3.6645    2.5333   -0.5798 H         1 <0>         0.3901
     29 N1         -4.2739    0.0675    1.4573 N.4       1 <0>        -0.5153
     30 H15        -4.9776    0.4592    0.8205 H         1 <0>         0.4362
     31 H16        -4.0194   -0.8775    1.1468 H         1 <0>         0.4318
@<TRIPOS>BOND
     1    1    2 1
     2    1   16 1
     3    1   17 1
     4    1   18 1
     5    2    3 1
     6    2   19 1
     7    2   29 1
     8    3   20 1
     9    3   21 1
    10    3   22 1
    11    4    5 1
    12    4   23 1
    13    4   24 1
    14    4   29 1
    15    5    6 1
    16    5    7 1
    17    5   15 1
    18    7   12 ar
    19    7    8 ar
    20    8    9 ar
    21    8   25 1
    22    9   10 ar
    23    9   26 1
    24   10   11 ar
    25   10   14 1
    26   11   12 ar
    27   11   13 1
    28   12   27 1
    29   15   28 1
    30   29   30 1
    31   29   31 1
@<TRIPOS>MOLECULE
ZINC04213008
   57    59     0     0     0
SMALL
USER_CHARGES

@<TRIPOS>ATOM
      1 C1          1.0450    2.2525   -0.6313 C.ar      1 <0>        -0.1233
      2 C2          0.9513    1.0768    0.0906 C.ar      1 <0>        -0.0971
      3 C3          2.0394    0.2309    0.1798 C.ar      1 <0>        -0.1211
      4 C4          3.2283    0.5619   -0.4568 C.ar      1 <0>         0.1419
      5 C5          3.3191    1.7431   -1.1813 C.ar      1 <0>        -0.1378
      6 C6          2.2275    2.5850   -1.2662 C.ar      1 <0>        -0.0967
      7 N1          4.3329   -0.2929   -0.3679 N.am      1 <0>        -0.6398
      8 C7          4.1481   -1.6224   -0.2465 C.2       1 <0>         0.6478
      9 O1          3.0279   -2.0886   -0.3120 O.2       1 <0>        -0.5391
     10 O2          5.2048   -2.4340   -0.0525 O.3       1 <0>        -0.3616
     11 C8          4.9355   -3.8322    0.0676 C.3       1 <0>         0.0677
     12 C9          6.2484   -4.5880    0.2819 C.3       1 <0>         0.0942
     13 H1          6.0540   -5.6605    0.2847 H         1 <0>         0.1338
     14 C10         7.2223   -4.2492   -0.8485 C.3       1 <0>        -0.0318
     15 N2          6.6774   -4.7303   -2.1250 N.4       1 <0>        -0.3798
     16 C11         6.6192   -6.1969   -2.1087 C.3       1 <0>        -0.0177
     17 C12         5.9774   -6.7001   -3.4034 C.3       1 <0>        -0.1456
     18 C13         6.8160   -6.2342   -4.5971 C.3       1 <0>        -0.1394
     19 C14         6.9320   -4.7076   -4.5620 C.3       1 <0>        -0.1463
     20 C15         7.5385   -4.2782   -3.2243 C.3       1 <0>        -0.0060
     21 O3          6.8200   -4.2042    1.5341 O.3       1 <0>        -0.3305
     22 C16         7.4946   -5.1507    2.2139 C.2       1 <0>         0.6471
     23 O4          7.6772   -6.2434    1.7147 O.2       1 <0>        -0.5482
     24 N3          7.9674   -4.8861    3.4479 N.am      1 <0>        -0.6354
     25 C17         8.7486   -5.8356    4.1165 C.ar      1 <0>         0.1397
     26 C18         8.6661   -5.9567    5.4974 C.ar      1 <0>        -0.1330
     27 C19         9.4383   -6.8947    6.1542 C.ar      1 <0>        -0.0956
     28 C20        10.2930   -7.7127    5.4382 C.ar      1 <0>        -0.1209
     29 C21        10.3774   -7.5945    4.0630 C.ar      1 <0>        -0.0998
     30 C22         9.6036   -6.6624    3.3997 C.ar      1 <0>        -0.1183
     31 H2          0.1914    2.9103   -0.7029 H         1 <0>         0.1300
     32 H3          0.0263    0.8199    0.5854 H         1 <0>         0.1311
     33 H4          1.9658   -0.6869    0.7443 H         1 <0>         0.1369
     34 H5          4.2425    2.0035   -1.6772 H         1 <0>         0.1285
     35 H6          2.2976    3.5040   -1.8292 H         1 <0>         0.1330
     36 H7          5.2315    0.0716   -0.3938 H         1 <0>         0.4192
     37 H8          4.2749   -4.0033    0.9175 H         1 <0>         0.1102
     38 H9          4.4553   -4.1893   -0.8435 H         1 <0>         0.0932
     39 H10         7.3613   -3.1691   -0.8968 H         1 <0>         0.1506
     40 H11         8.1815   -4.7307   -0.6582 H         1 <0>         0.1428
     41 H12         7.6287   -6.5992   -2.0239 H         1 <0>         0.1362
     42 H13         6.0248   -6.5271   -1.2568 H         1 <0>         0.1296
     43 H14         5.9368   -7.7893   -3.3901 H         1 <0>         0.1159
     44 H15         4.9677   -6.2986   -3.4891 H         1 <0>         0.0882
     45 H16         7.8104   -6.6767   -4.5388 H         1 <0>         0.0838
     46 H17         6.3326   -6.5418   -5.5243 H         1 <0>         0.0963
     47 H18         7.5737   -4.3725   -5.3769 H         1 <0>         0.1153
     48 H19         5.9421   -4.2647   -4.6717 H         1 <0>         0.0878
     49 H20         7.6227   -3.1918   -3.1961 H         1 <0>         0.1319
     50 H21         8.5284   -4.7214   -3.1158 H         1 <0>         0.1323
     51 H22         7.7663   -4.0376    3.8727 H         1 <0>         0.4231
     52 H23         7.9990   -5.3180    6.0572 H         1 <0>         0.1309
     53 H24         9.3749   -6.9892    7.2282 H         1 <0>         0.1343
     54 H25        10.8961   -8.4451    5.9541 H         1 <0>         0.1306
     55 H26        11.0461   -8.2346    3.5066 H         1 <0>         0.1304
     56 H27         9.6667   -6.5736    2.3252 H         1 <0>         0.1320
     57 H28         5.7475   -4.3603   -2.2534 H         1 <0>         0.4186
@<TRIPOS>BOND
     1    1    6 ar
     2    1    2 ar
     3    1   31 1
     4    2    3 ar
     5    2   32 1
     6    3    4 ar
     7    3   33 1
     8    4    5 ar
     9    4    7 1
    10    5    6 ar
    11    5   34 1
    12    6   35 1
    13    7    8 am
    14    7   36 1
    15    8    9 2
    16    8   10 1
    17   10   11 1
    18   11   12 1
    19   11   37 1
    20   11   38 1
    21   12   13 1
    22   12   14 1
    23   12   21 1
    24   14   15 1
    25   14   39 1
    26   14   40 1
    27   15   20 1
    28   15   16 1
    29   15   57 1
    30   16   17 1
    31   16   41 1
    32   16   42 1
    33   17   18 1
    34   17   43 1
    35   17   44 1
    36   18   19 1
    37   18   45 1
    38   18   46 1
    39   19   20 1
    40   19   47 1
    41   19   48 1
    42   20   49 1
    43   20   50 1
    44   21   22 1
    45   22   23 2
    46   22   24 am
    47   24   25 1
    48   24   51 1
    49   25   30 ar
    50   25   26 ar
    51   26   27 ar
    52   26   52 1
    53   27   28 ar
    54   27   53 1
    55   28   29 ar
    56   28   54 1
    57   29   30 ar
    58   29   55 1
    59   30   56 1
@<TRIPOS>MOLECULE
ZINC04245652
   57    59     0     0     0
SMALL
USER_CHARGES

@<TRIPOS>ATOM
      1 C1         -0.5331    0.2910   -0.2865 C.ar      1 <0>        -0.1231
      2 C2         -0.3373   -0.9055    0.3784 C.ar      1 <0>        -0.0987
      3 C3          0.9402   -1.4027    0.5469 C.ar      1 <0>        -0.1178
      4 C4          2.0286   -0.6998    0.0474 C.ar      1 <0>         0.1435
      5 C5          1.8287    0.5013   -0.6203 C.ar      1 <0>        -0.1361
      6 C6          0.5487    0.9934   -0.7850 C.ar      1 <0>        -0.0975
      7 N1          3.3245   -1.2006    0.2168 N.am      1 <0>        -0.6433
      8 C7          3.5417   -2.5305    0.1905 C.2       1 <0>         0.6512
      9 O1          2.6294   -3.2901   -0.0687 O.2       1 <0>        -0.5397
     10 O2          4.7697   -3.0173    0.4515 O.3       1 <0>        -0.3643
     11 C8          4.9280   -4.4368    0.4060 C.3       1 <0>         0.0869
     12 C9          6.3795   -4.7986    0.7270 C.3       1 <0>         0.0852
     13 H1          6.4806   -5.8826    0.7798 H         1 <0>         0.1399
     14 C10         6.7731   -4.1836    2.0715 C.3       1 <0>        -0.0292
     15 N2          8.1357   -4.6054    2.4227 N.4       1 <0>        -0.3843
     16 C11         8.1534   -6.0548    2.6538 C.3       1 <0>        -0.0223
     17 C12         9.5853   -6.5120    2.9405 C.3       1 <0>        -0.1383
     18 C13        10.1066   -5.7886    4.1856 C.3       1 <0>        -0.1395
     19 C14        10.0141   -4.2765    3.9616 C.3       1 <0>        -0.1458
     20 C15         8.5663   -3.9021    3.6370 C.3       1 <0>        -0.0073
     21 O3          7.2351   -4.2899   -0.2983 O.3       1 <0>        -0.3445
     22 C16         8.2619   -5.0720   -0.6816 C.2       1 <0>         0.6319
     23 O4          8.3843   -6.1866   -0.2134 O.2       1 <0>        -0.5504
     24 N3          9.1538   -4.6187   -1.5847 N.am      1 <0>        -0.6325
     25 C17        10.1547   -5.4695   -2.0676 C.ar      1 <0>         0.1330
     26 C18         9.9034   -6.8275   -2.2122 C.ar      1 <0>        -0.1163
     27 C19        10.8933   -7.6645   -2.6890 C.ar      1 <0>        -0.0978
     28 C20        12.1334   -7.1514   -3.0221 C.ar      1 <0>        -0.1181
     29 C21        12.3867   -5.7995   -2.8792 C.ar      1 <0>        -0.0964
     30 C22        11.3992   -4.9564   -2.4084 C.ar      1 <0>        -0.1335
     31 H2         -1.5333    0.6756   -0.4206 H         1 <0>         0.1296
     32 H3         -1.1843   -1.4517    0.7667 H         1 <0>         0.1306
     33 H4          1.0925   -2.3369    1.0669 H         1 <0>         0.1326
     34 H5          2.6732    1.0505   -1.0096 H         1 <0>         0.1288
     35 H6          0.3926    1.9276   -1.3038 H         1 <0>         0.1326
     36 H7          4.0662   -0.5906    0.3532 H         1 <0>         0.4180
     37 H8          4.2675   -4.8996    1.1393 H         1 <0>         0.1100
     38 H9          4.6750   -4.7989   -0.5905 H         1 <0>         0.1027
     39 H10         6.7367   -3.0967    1.9984 H         1 <0>         0.1511
     40 H11         6.0789   -4.5194    2.8418 H         1 <0>         0.1541
     41 H12         7.5184   -6.2940    3.5068 H         1 <0>         0.1299
     42 H13         7.7791   -6.5681    1.7681 H         1 <0>         0.1437
     43 H14         9.5960   -7.5881    3.1136 H         1 <0>         0.1127
     44 H15        10.2211   -6.2735    2.0880 H         1 <0>         0.0866
     45 H16         9.5020   -6.0669    5.0488 H         1 <0>         0.0827
     46 H17        11.1454   -6.0682    4.3613 H         1 <0>         0.0946
     47 H18        10.3313   -3.7547    4.8645 H         1 <0>         0.1145
     48 H19        10.6589   -3.9916    3.1302 H         1 <0>         0.0851
     49 H20         8.4969   -2.8262    3.4771 H         1 <0>         0.1303
     50 H21         7.9225   -4.1873    4.4691 H         1 <0>         0.1327
     51 H22         9.1020   -3.7028   -1.8999 H         1 <0>         0.4239
     52 H23         8.9352   -7.2289   -1.9519 H         1 <0>         0.1360
     53 H24        10.6986   -8.7208   -2.8014 H         1 <0>         0.1321
     54 H25        12.9059   -7.8079   -3.3944 H         1 <0>         0.1313
     55 H26        13.3564   -5.4019   -3.1399 H         1 <0>         0.1344
     56 H27        11.5962   -3.9000   -2.3012 H         1 <0>         0.1299
     57 H28         8.7624   -4.3801    1.6647 H         1 <0>         0.4149
@<TRIPOS>BOND
     1    1    6 ar
     2    1    2 ar
     3    1   31 1
     4    2    3 ar
     5    2   32 1
     6    3    4 ar
     7    3   33 1
     8    4    5 ar
     9    4    7 1
    10    5    6 ar
    11    5   34 1
    12    6   35 1
    13    7    8 am
    14    7   36 1
    15    8    9 2
    16    8   10 1
    17   10   11 1
    18   11   12 1
    19   11   37 1
    20   11   38 1
    21   12   13 1
    22   12   14 1
    23   12   21 1
    24   14   15 1
    25   14   39 1
    26   14   40 1
    27   15   20 1
    28   15   16 1
    29   15   57 1
    30   16   17 1
    31   16   41 1
    32   16   42 1
    33   17   18 1
    34   17   43 1
    35   17   44 1
    36   18   19 1
    37   18   45 1
    38   18   46 1
    39   19   20 1
    40   19   47 1
    41   19   48 1
    42   20   49 1
    43   20   50 1
    44   21   22 1
    45   22   23 2
    46   22   24 am
    47   24   25 1
    48   24   51 1
    49   25   30 ar
    50   25   26 ar
    51   26   27 ar
    52   26   52 1
    53   27   28 ar
    54   27   53 1
    55   28   29 ar
    56   28   54 1
    57   29   30 ar
    58   29   55 1
    59   30   56 1
@<TRIPOS>MOLECULE
ZINC00608368
   63    66     0     0     0
SMALL
USER_CHARGES

@<TRIPOS>ATOM
      1 C1          2.4110    0.3393   -0.6061 C.3       1 <0>        -0.1632
      2 C2          2.9534   -0.0881    0.7592 C.3       1 <0>        -0.1248
      3 C3          1.7856   -0.3602    1.7094 C.3       1 <0>        -0.1016
      4 H1          1.1395    0.5165    1.7546 H         1 <0>         0.1073
      5 C4          0.9840   -1.5625    1.2057 C.3       1 <0>        -0.0060
      6 N1          0.9870   -2.6253    2.2138 N.4       1 <0>        -0.3678
      7 C5          2.3530   -3.0862    2.4730 C.3       1 <0>        -0.0134
      8 C6          3.2001   -1.9345    3.0187 C.3       1 <0>        -0.1430
      9 C7          2.3255   -0.6738    3.1110 C.3       1 <0>        -0.0932
     10 H2          2.9077    0.1670    3.4882 H         1 <0>         0.1202
     11 C8          1.1358   -0.9782    4.0309 C.3       1 <0>        -0.1426
     12 C9          0.3547   -2.1635    3.4518 C.3       1 <0>        -0.0018
     13 H3         -0.6685   -1.8524    3.2411 H         1 <0>         0.1411
     14 C10         0.3360   -3.3061    4.4692 C.3       1 <0>         0.1366
     15 H4          1.3580   -3.5534    4.7565 H         1 <0>         0.1366
     16 C11        -0.4396   -2.8800    5.6890 C.ar      1 <0>        -0.0901
     17 C12        -1.8040   -2.9432    5.7107 C.ar      1 <0>        -0.1358
     18 C13        -2.5002   -2.5446    6.8494 C.ar      1 <0>         0.1187
     19 N2         -1.8811   -2.1034    7.9175 N.ar      1 <0>        -0.4409
     20 C14        -0.5482   -2.0164    7.9621 C.ar      1 <0>         0.0981
     21 C15         0.2220   -2.4113    6.8396 C.ar      1 <0>        -0.0404
     22 C16         1.6218   -2.3234    6.8920 C.ar      1 <0>        -0.1832
     23 C17         2.2266   -1.8629    8.0270 C.ar      1 <0>         0.1644
     24 C18         1.4670   -1.4786    9.1364 C.ar      1 <0>        -0.1756
     25 C19         0.1089   -1.5417    9.1115 C.ar      1 <0>        -0.0345
     26 O1          3.5819   -1.7778    8.0787 O.3       1 <0>        -0.3104
     27 C20         4.1553   -1.2889    9.2929 C.3       1 <0>         0.0519
     28 C21         5.6796   -1.2645    9.1634 C.3       1 <0>        -0.1135
     29 C22         6.2936   -0.7409   10.4633 C.3       1 <0>        -0.0939
     30 C23         5.9995   -1.7238   11.5983 C.3       1 <0>        -0.1559
     31 C24         7.8072   -0.5986   10.2913 C.3       1 <0>        -0.1491
     32 O2         -0.2856   -4.4530    3.8860 O.3       1 <0>        -0.5417
     33 H5          1.8158    1.2454   -0.4932 H         1 <0>         0.0625
     34 H6          3.2430    0.5331   -1.2831 H         1 <0>         0.0676
     35 H7          1.7879   -0.4563   -1.0148 H         1 <0>         0.0536
     36 H8          3.5487   -0.9942    0.6463 H         1 <0>         0.0710
     37 H9          3.5765    0.7075    1.1678 H         1 <0>         0.0826
     38 H10        -0.0428   -1.2552    1.0072 H         1 <0>         0.1293
     39 H11         1.4323   -1.9361    0.2851 H         1 <0>         0.1349
     40 H12         2.3293   -3.8953    3.2031 H         1 <0>         0.1315
     41 H13         2.7937   -3.4513    1.5453 H         1 <0>         0.1329
     42 H14         3.5730   -2.1930    4.0098 H         1 <0>         0.0999
     43 H15         4.0388   -1.7481    2.3479 H         1 <0>         0.1056
     44 H16         1.4994   -1.2303    5.0270 H         1 <0>         0.1139
     45 H17         0.4851   -0.1056    4.0875 H         1 <0>         0.1031
     46 H18        -2.3424   -3.3016    4.8458 H         1 <0>         0.1382
     47 H19        -3.5788   -2.6000    6.8523 H         1 <0>         0.1682
     48 H20         2.2170   -2.6182    6.0404 H         1 <0>         0.1336
     49 H21         1.9663   -1.1175   10.0234 H         1 <0>         0.1444
     50 H22        -0.4631   -1.2403    9.9766 H         1 <0>         0.1492
     51 H23         3.7909   -0.2799    9.4863 H         1 <0>         0.0679
     52 H24         3.8712   -1.9422   10.1178 H         1 <0>         0.0715
     53 H25         6.0440   -2.2734    8.9700 H         1 <0>         0.0763
     54 H26         5.9638   -0.6112    8.3384 H         1 <0>         0.0748
     55 H27         5.8622    0.2309   10.7033 H         1 <0>         0.0740
     56 H28         4.9211   -1.8252   11.7209 H         1 <0>         0.0538
     57 H29         6.4309   -2.6956   11.3583 H         1 <0>         0.0587
     58 H30         6.4369   -1.3508   12.5244 H         1 <0>         0.0614
     59 H31         8.0167    0.1017    9.4827 H         1 <0>         0.0566
     60 H32         8.2446   -0.2256   11.2174 H         1 <0>         0.0613
     61 H33         8.2386   -1.5704   10.0513 H         1 <0>         0.0576
     62 H34        -1.1668   -4.2825    3.5261 H         1 <0>         0.3866
     63 H35         0.4569   -3.4058    1.8565 H         1 <0>         0.4252
@<TRIPOS>BOND
     1    1    2 1
     2    1   33 1
     3    1   34 1
     4    1   35 1
     5    2    3 1
     6    2   36 1
     7    2   37 1
     8    3    4 1
     9    3    9 1
    10    3    5 1
    11    5    6 1
    12    5   38 1
    13    5   39 1
    14    6   12 1
    15    6    7 1
    16    6   63 1
    17    7    8 1
    18    7   40 1
    19    7   41 1
    20    8    9 1
    21    8   42 1
    22    8   43 1
    23    9   10 1
    24    9   11 1
    25   11   12 1
    26   11   44 1
    27   11   45 1
    28   12   13 1
    29   12   14 1
    30   14   15 1
    31   14   16 1
    32   14   32 1
    33   16   21 ar
    34   16   17 ar
    35   17   18 ar
    36   17   46 1
    37   18   19 ar
    38   18   47 1
    39   19   20 ar
    40   20   25 ar
    41   20   21 ar
    42   21   22 ar
    43   22   23 ar
    44   22   48 1
    45   23   24 ar
    46   23   26 1
    47   24   25 ar
    48   24   49 1
    49   25   50 1
    50   26   27 1
    51   27   28 1
    52   27   51 1
    53   27   52 1
    54   28   29 1
    55   28   53 1
    56   28   54 1
    57   29   30 1
    58   29   31 1
    59   29   55 1
    60   30   56 1
    61   30   57 1
    62   30   58 1
    63   31   59 1
    64   31   60 1
    65   31   61 1
    66   32   62 1
@<TRIPOS>MOLECULE
ZINC00608368
   64    67     0     0     0
SMALL
USER_CHARGES

@<TRIPOS>ATOM
      1 C1         -1.7369    0.2895   -1.7814 C.3       1 <0>        -0.1650
      2 C2         -0.8151   -0.1189   -2.9322 C.3       1 <0>        -0.1263
      3 C3          0.5981   -0.3537   -2.3950 C.3       1 <0>        -0.1020
      4 H1          0.9380    0.5337   -1.8611 H         1 <0>         0.1098
      5 C4          0.5927   -1.5533   -1.4447 C.3       1 <0>        -0.0080
      6 N1          1.4907   -2.5955   -1.9476 N.4       1 <0>        -0.3671
      7 C5          1.0441   -3.0725   -3.2586 C.3       1 <0>        -0.0167
      8 C6          1.0643   -1.9234   -4.2691 C.3       1 <0>        -0.1458
      9 C7          1.5496   -0.6476   -3.5622 C.3       1 <0>        -0.0938
     10 H2          1.5642    0.1913   -4.2579 H         1 <0>         0.1249
     11 C8          2.9483   -0.9150   -2.9907 C.3       1 <0>        -0.1452
     12 C9          2.8670   -2.0993   -2.0205 C.3       1 <0>        -0.0036
     13 H3          3.1880   -1.7766   -1.0301 H         1 <0>         0.1477
     14 C10         3.7858   -3.2209   -2.5090 C.3       1 <0>         0.1179
     15 H4          3.5301   -3.4783   -3.5369 H         1 <0>         0.1528
     16 C11         5.2189   -2.7585   -2.4486 C.ar      1 <0>         0.0138
     17 C12         5.9211   -2.8000   -1.2776 C.ar      1 <0>        -0.1470
     18 C13         7.2449   -2.3679   -1.2454 C.ar      1 <0>         0.2057
     19 N2          7.8492   -1.9152   -2.3171 N.ar      1 <0>        -0.4296
     20 C14         7.2196   -1.8481   -3.4941 C.ar      1 <0>         0.0990
     21 C15         5.8728   -2.2773   -3.5985 C.ar      1 <0>        -0.0198
     22 C16         5.2164   -2.2101   -4.8373 C.ar      1 <0>        -0.1605
     23 C17         5.8853   -1.7366   -5.9301 C.ar      1 <0>         0.1907
     24 C18         7.2158   -1.3183   -5.8283 C.ar      1 <0>        -0.1151
     25 C19         7.8745   -1.3608   -4.6395 C.ar      1 <0>        -0.0809
     26 O1          5.2507   -1.6716   -7.1300 O.3       1 <0>        -0.2919
     27 C20         6.0031   -1.1674   -8.2354 C.3       1 <0>         0.0441
     28 C21         5.1286   -1.1693   -9.4908 C.3       1 <0>        -0.1155
     29 C22         5.9341   -0.6295  -10.6743 C.3       1 <0>        -0.0932
     30 C23         7.0885   -1.5848  -10.9836 C.3       1 <0>        -0.1573
     31 C24         5.0253   -0.5142  -11.8997 C.3       1 <0>        -0.1517
     32 O2          3.6204   -4.3695   -1.6751 O.3       1 <0>        -0.5265
     33 H5         -1.7593   -0.5043   -1.0347 H         1 <0>         0.0541
     34 H6         -1.3644    1.2068   -1.3255 H         1 <0>         0.0636
     35 H7         -2.7437    0.4568   -2.1641 H         1 <0>         0.0711
     36 H8         -1.1876   -1.0362   -3.3881 H         1 <0>         0.0725
     37 H9         -0.7927    0.6749   -3.6789 H         1 <0>         0.0847
     38 H10         0.9262   -1.2340   -0.4573 H         1 <0>         0.1329
     39 H11        -0.4191   -1.9521   -1.3714 H         1 <0>         0.1414
     40 H12         1.7083   -3.8663   -3.6003 H         1 <0>         0.1316
     41 H13         0.0298   -3.4628   -3.1751 H         1 <0>         0.1402
     42 H14         1.7426   -2.1678   -5.0866 H         1 <0>         0.0997
     43 H15         0.0597   -1.7636   -4.6607 H         1 <0>         0.1119
     44 H16         3.6354   -1.1528   -3.8027 H         1 <0>         0.1045
     45 H17         3.3005   -0.0314   -2.4585 H         1 <0>         0.1089
     46 H18         5.4503   -3.1672   -0.3777 H         1 <0>         0.1855
     47 H19         7.7878   -2.4064   -0.3125 H         1 <0>         0.2211
     48 H20         4.1890   -2.5312   -4.9260 H         1 <0>         0.1610
     49 H21         7.7252   -0.9473   -6.7054 H         1 <0>         0.1689
     50 H22         8.9018   -1.0333   -4.5777 H         1 <0>         0.1705
     51 H23         6.3273   -0.1493   -8.0200 H         1 <0>         0.0772
     52 H24         6.8757   -1.7996   -8.3995 H         1 <0>         0.0805
     53 H25         4.8044   -2.1875   -9.7062 H         1 <0>         0.0811
     54 H26         4.2559   -0.5372   -9.3268 H         1 <0>         0.0796
     55 H27         6.3331    0.3535  -10.4241 H         1 <0>         0.0752
     56 H28         6.6896   -2.5679  -11.2338 H         1 <0>         0.0609
     57 H29         7.6624   -1.2003  -11.8267 H         1 <0>         0.0657
     58 H30         7.7360   -1.6670  -10.1106 H         1 <0>         0.0501
     59 H31         4.2029    0.1663  -11.6793 H         1 <0>         0.0586
     60 H32         5.5992   -0.1297  -12.7428 H         1 <0>         0.0651
     61 H33         4.6263   -1.4973  -12.1499 H         1 <0>         0.0596
     62 H34         3.7448   -4.1924   -0.7326 H         1 <0>         0.3936
     63 H35         1.4658   -3.3748   -1.3071 H         1 <0>         0.4288
     64 H36         8.7719   -1.6227   -2.2545 H         1 <0>         0.4558
@<TRIPOS>BOND
     1    1    2 1
     2    1   33 1
     3    1   34 1
     4    1   35 1
     5    2    3 1
     6    2   36 1
     7    2   37 1
     8    3    4 1
     9    3    9 1
    10    3    5 1
    11    5    6 1
    12    5   38 1
    13    5   39 1
    14    6   12 1
    15    6    7 1
    16    6   63 1
    17    7    8 1
    18    7   40 1
    19    7   41 1
    20    8    9 1
    21    8   42 1
    22    8   43 1
    23    9   10 1
    24    9   11 1
    25   11   12 1
    26   11   44 1
    27   11   45 1
    28   12   13 1
    29   12   14 1
    30   14   15 1
    31   14   16 1
    32   14   32 1
    33   16   21 ar
    34   16   17 ar
    35   17   18 ar
    36   17   46 1
    37   18   19 ar
    38   18   47 1
    39   19   20 ar
    40   19   64 1
    41   20   25 ar
    42   20   21 ar
    43   21   22 ar
    44   22   23 ar
    45   22   48 1
    46   23   24 ar
    47   23   26 1
    48   24   25 ar
    49   24   49 1
    50   25   50 1
    51   26   27 1
    52   27   28 1
    53   27   51 1
    54   27   52 1
    55   28   29 1
    56   28   53 1
    57   28   54 1
    58   29   30 1
    59   29   31 1
    60   29   55 1
    61   30   56 1
    62   30   57 1
    63   30   58 1
    64   31   59 1
    65   31   60 1
    66   31   61 1
    67   32   62 1
@<TRIPOS>MOLECULE
ZINC36093297
   63    66     0     0     0
SMALL
USER_CHARGES

@<TRIPOS>ATOM
      1 C1          0.1310    1.2867    1.8504 C.3       1 <0>        -0.1629
      2 C2          1.0730    0.8422    0.7297 C.3       1 <0>        -0.1253
      3 C3          0.5513   -0.4556    0.1097 C.3       1 <0>        -0.1013
      4 H1         -0.4782   -0.3150   -0.2195 H         1 <0>         0.1095
      5 C4          0.6092   -1.5791    1.1471 C.3       1 <0>        -0.0060
      6 N1          1.4779   -2.6579    0.6701 N.4       1 <0>        -0.3680
      7 C5          0.9521   -3.2328   -0.5703 C.3       1 <0>        -0.0140
      8 C6          0.9055   -2.1642   -1.6648 C.3       1 <0>        -0.1406
      9 C7          1.4268   -0.8403   -1.0902 C.3       1 <0>        -0.0937
     10 H2          1.3932   -0.0580   -1.8485 H         1 <0>         0.1201
     11 C8          2.8604   -1.0641   -0.5912 C.3       1 <0>        -0.1441
     12 C9          2.8452   -2.1704    0.4740 C.3       1 <0>        -0.0014
     13 H3          3.2261   -1.7735    1.4150 H         1 <0>         0.1403
     14 C10         3.7357   -3.3272    0.0161 C.3       1 <0>         0.1365
     15 H4          3.4174   -3.6620   -0.9712 H         1 <0>         0.1367
     16 C11         5.1681   -2.8634   -0.0484 C.ar      1 <0>        -0.0898
     17 C12         5.9416   -2.8150    1.0765 C.ar      1 <0>        -0.1360
     18 C13         7.2633   -2.3834    0.9931 C.ar      1 <0>         0.1187
     19 N2          7.7986   -2.0159   -0.1459 N.ar      1 <0>        -0.4408
     20 C14         7.0971   -2.0393   -1.2832 C.ar      1 <0>         0.0982
     21 C15         5.7479   -2.4736   -1.2704 C.ar      1 <0>        -0.0403
     22 C16         5.0158   -2.5017   -2.4676 C.ar      1 <0>        -0.1830
     23 C17         5.6142   -2.1151   -3.6332 C.ar      1 <0>         0.1643
     24 C18         6.9470   -1.6920   -3.6467 C.ar      1 <0>        -0.1756
     25 C19         7.6781   -1.6430   -2.5013 C.ar      1 <0>        -0.0346
     26 O1          4.9063   -2.1424   -4.7929 O.3       1 <0>        -0.3104
     27 C20         5.5870   -1.7264   -5.9784 C.3       1 <0>         0.0519
     28 C21         4.6365   -1.8245   -7.1734 C.3       1 <0>        -0.1135
     29 C22         5.3654   -1.3790   -8.4427 C.3       1 <0>        -0.0938
     30 C23         6.5017   -2.3569   -8.7481 C.3       1 <0>        -0.1559
     31 C24         4.3820   -1.3578   -9.6146 C.3       1 <0>        -0.1492
     32 O2          3.6265   -4.4086    0.9439 O.3       1 <0>        -0.5417
     33 H5          0.0850    0.5114    2.6153 H         1 <0>         0.0535
     34 H6          0.5026    2.2112    2.2922 H         1 <0>         0.0673
     35 H7         -0.8658    1.4540    1.4423 H         1 <0>         0.0634
     36 H8          1.1190    1.6175   -0.0351 H         1 <0>         0.0827
     37 H9          2.0698    0.6749    1.1379 H         1 <0>         0.0684
     38 H10         1.0025   -1.1859    2.0845 H         1 <0>         0.1308
     39 H11        -0.3946   -1.9698    1.3135 H         1 <0>         0.1335
     40 H12         1.5966   -4.0513   -0.8912 H         1 <0>         0.1313
     41 H13        -0.0536   -3.6144   -0.3943 H         1 <0>         0.1338
     42 H14         1.5324   -2.4712   -2.5020 H         1 <0>         0.1005
     43 H15        -0.1221   -2.0334   -2.0041 H         1 <0>         0.1035
     44 H16         3.4946   -1.3651   -1.4250 H         1 <0>         0.1133
     45 H17         3.2428   -0.1422   -0.1531 H         1 <0>         0.1052
     46 H18         5.5287   -3.1108    2.0296 H         1 <0>         0.1381
     47 H19         7.8631   -2.3503    1.8906 H         1 <0>         0.1681
     48 H20         3.9861   -2.8273   -2.4674 H         1 <0>         0.1336
     49 H21         7.3997   -1.3907   -4.5798 H         1 <0>         0.1444
     50 H22         8.7061   -1.3131   -2.5288 H         1 <0>         0.1491
     51 H23         5.9204   -0.6951   -5.8630 H         1 <0>         0.0679
     52 H24         6.4501   -2.3705   -6.1469 H         1 <0>         0.0715
     53 H25         4.3032   -2.8558   -7.2888 H         1 <0>         0.0763
     54 H26         3.7735   -1.1803   -7.0049 H         1 <0>         0.0748
     55 H27         5.7756   -0.3801   -8.2945 H         1 <0>         0.0740
     56 H28         7.2023   -2.3720   -7.9132 H         1 <0>         0.0538
     57 H29         6.0915   -3.3558   -8.8963 H         1 <0>         0.0587
     58 H30         7.0210   -2.0396   -9.6524 H         1 <0>         0.0614
     59 H31         3.5724   -0.6611   -9.3971 H         1 <0>         0.0566
     60 H32         4.9012   -1.0404  -10.5189 H         1 <0>         0.0613
     61 H33         3.9717   -2.3567   -9.7628 H         1 <0>         0.0576
     62 H34         3.8088   -4.1603    1.8605 H         1 <0>         0.3865
     63 H35         1.4956   -3.3859    1.3685 H         1 <0>         0.4252
@<TRIPOS>BOND
     1    1    2 1
     2    1   33 1
     3    1   34 1
     4    1   35 1
     5    2    3 1
     6    2   36 1
     7    2   37 1
     8    3    4 1
     9    3    9 1
    10    3    5 1
    11    5    6 1
    12    5   38 1
    13    5   39 1
    14    6   12 1
    15    6    7 1
    16    6   63 1
    17    7    8 1
    18    7   40 1
    19    7   41 1
    20    8    9 1
    21    8   42 1
    22    8   43 1
    23    9   10 1
    24    9   11 1
    25   11   12 1
    26   11   44 1
    27   11   45 1
    28   12   13 1
    29   12   14 1
    30   14   15 1
    31   14   16 1
    32   14   32 1
    33   16   21 ar
    34   16   17 ar
    35   17   18 ar
    36   17   46 1
    37   18   19 ar
    38   18   47 1
    39   19   20 ar
    40   20   25 ar
    41   20   21 ar
    42   21   22 ar
    43   22   23 ar
    44   22   48 1
    45   23   24 ar
    46   23   26 1
    47   24   25 ar
    48   24   49 1
    49   25   50 1
    50   26   27 1
    51   27   28 1
    52   27   51 1
    53   27   52 1
    54   28   29 1
    55   28   53 1
    56   28   54 1
    57   29   30 1
    58   29   31 1
    59   29   55 1
    60   30   56 1
    61   30   57 1
    62   30   58 1
    63   31   59 1
    64   31   60 1
    65   31   61 1
    66   32   62 1
@<TRIPOS>MOLECULE
ZINC36093297
   64    67     0     0     0
SMALL
USER_CHARGES

@<TRIPOS>ATOM
      1 C1          1.5057    1.3212   -1.0383 C.3       1 <0>        -0.1659
      2 C2          0.0757    0.8398   -1.2923 C.3       1 <0>        -0.1235
      3 C3         -0.1679   -0.4618   -0.5259 C.3       1 <0>        -0.1040
      4 H1          0.0581   -0.3119    0.5298 H         1 <0>         0.1152
      5 C4          0.7296   -1.5652   -1.0908 C.3       1 <0>        -0.0076
      6 N1         -0.0904   -2.6666   -1.6008 N.4       1 <0>        -0.3671
      7 C5         -0.8872   -3.2580   -0.5233 C.3       1 <0>        -0.0173
      8 C6         -1.8383   -2.2109    0.0605 C.3       1 <0>        -0.1432
      9 C7         -1.6346   -0.8841   -0.6829 C.3       1 <0>        -0.0935
     10 H2         -2.2940   -0.1167   -0.2774 H         1 <0>         0.1249
     11 C8         -1.9133   -1.1202   -2.1731 C.3       1 <0>        -0.1474
     12 C9         -0.9557   -2.2046   -2.6886 C.3       1 <0>        -0.0034
     13 H3         -0.3413   -1.7949   -3.4904 H         1 <0>         0.1469
     14 C10        -1.7681   -3.3840   -3.2269 C.3       1 <0>         0.1180
     15 H4         -2.4555   -3.7335   -2.4565 H         1 <0>         0.1529
     16 C11        -2.5514   -2.9440   -4.4368 C.ar      1 <0>         0.0140
     17 C12        -1.9652   -2.8851   -5.6692 C.ar      1 <0>        -0.1472
     18 C13        -2.7087   -2.4759   -6.7737 C.ar      1 <0>         0.2057
     19 N2         -3.9716   -2.1396   -6.6691 N.ar      1 <0>        -0.4297
     20 C14        -4.6052   -2.1749   -5.4929 C.ar      1 <0>         0.0990
     21 C15        -3.9090   -2.5877   -4.3293 C.ar      1 <0>        -0.0197
     22 C16        -4.5790   -2.6284   -3.0967 C.ar      1 <0>        -0.1604
     23 C17        -5.8969   -2.2745   -3.0335 C.ar      1 <0>         0.1907
     24 C18        -6.5852   -1.8725   -4.1825 C.ar      1 <0>        -0.1151
     25 C19        -5.9601   -1.8121   -5.3885 C.ar      1 <0>        -0.0809
     26 O1         -6.5465   -2.3140   -1.8405 O.3       1 <0>        -0.2919
     27 C20        -7.9236   -1.9324   -1.8388 C.3       1 <0>         0.0441
     28 C21        -8.4808   -2.0395   -0.4179 C.3       1 <0>        -0.1154
     29 C22        -9.9552   -1.6309   -0.4161 C.3       1 <0>        -0.0931
     30 C23       -10.7629   -2.6323   -1.2441 C.3       1 <0>        -0.1573
     31 C24       -10.4790   -1.6178    1.0214 C.3       1 <0>        -0.1517
     32 O2         -0.8831   -4.4448   -3.5924 O.3       1 <0>        -0.5265
     33 H5          1.6462    1.4958    0.0284 H         1 <0>         0.0668
     34 H6          2.2103    0.5622   -1.3781 H         1 <0>         0.0544
     35 H7          1.6792    2.2485   -1.5842 H         1 <0>         0.0695
     36 H8         -0.6289    1.5988   -0.9524 H         1 <0>         0.0843
     37 H9         -0.0648    0.6652   -2.3590 H         1 <0>         0.0646
     38 H10         1.3349   -1.1594   -1.9014 H         1 <0>         0.1343
     39 H11         1.3851   -1.9368   -0.3032 H         1 <0>         0.1403
     40 H12        -1.4665   -4.0926   -0.9182 H         1 <0>         0.1313
     41 H13        -0.2226   -3.6203    0.2610 H         1 <0>         0.1412
     42 H14        -2.8687   -2.5443   -0.0628 H         1 <0>         0.1003
     43 H15        -1.6218   -2.0710    1.1196 H         1 <0>         0.1099
     44 H16        -2.9447   -1.4476   -2.3045 H         1 <0>         0.1041
     45 H17        -1.7482   -0.1958   -2.7266 H         1 <0>         0.1110
     46 H18        -0.9262   -3.1553   -5.7871 H         1 <0>         0.1854
     47 H19        -2.2322   -2.4342   -7.7420 H         1 <0>         0.2211
     48 H20        -4.0560   -2.9378   -2.2039 H         1 <0>         0.1610
     49 H21        -7.6270   -1.5971   -4.1091 H         1 <0>         0.1689
     50 H22        -6.5059   -1.4989   -6.2662 H         1 <0>         0.1704
     51 H23        -8.0162   -0.9043   -2.1888 H         1 <0>         0.0772
     52 H24        -8.4846   -2.5931   -2.4998 H         1 <0>         0.0805
     53 H25        -8.3882   -3.0676   -0.0679 H         1 <0>         0.0811
     54 H26        -7.9198   -1.3788    0.2431 H         1 <0>         0.0796
     55 H27       -10.0570   -0.6358   -0.8489 H         1 <0>         0.0752
     56 H28       -10.6612   -3.6275   -0.8112 H         1 <0>         0.0609
     57 H29       -11.8134   -2.3412   -1.2428 H         1 <0>         0.0657
     58 H30       -10.3898   -2.6417   -2.2682 H         1 <0>         0.0501
     59 H31        -9.9035   -0.9044    1.6113 H         1 <0>         0.0586
     60 H32       -11.5294   -1.3268    1.0227 H         1 <0>         0.0651
     61 H33       -10.3772   -2.6130    1.4543 H         1 <0>         0.0596
     62 H34        -0.1868   -4.1811   -4.2094 H         1 <0>         0.3936
     63 H35         0.5237   -3.3808   -1.9627 H         1 <0>         0.4288
     64 H36        -4.4558   -1.8592   -7.4615 H         1 <0>         0.4559
@<TRIPOS>BOND
     1    1    2 1
     2    1   33 1
     3    1   34 1
     4    1   35 1
     5    2    3 1
     6    2   36 1
     7    2   37 1
     8    3    4 1
     9    3    9 1
    10    3    5 1
    11    5    6 1
    12    5   38 1
    13    5   39 1
    14    6   12 1
    15    6    7 1
    16    6   63 1
    17    7    8 1
    18    7   40 1
    19    7   41 1
    20    8    9 1
    21    8   42 1
    22    8   43 1
    23    9   10 1
    24    9   11 1
    25   11   12 1
    26   11   44 1
    27   11   45 1
    28   12   13 1
    29   12   14 1
    30   14   15 1
    31   14   16 1
    32   14   32 1
    33   16   21 ar
    34   16   17 ar
    35   17   18 ar
    36   17   46 1
    37   18   19 ar
    38   18   47 1
    39   19   20 ar
    40   19   64 1
    41   20   25 ar
    42   20   21 ar
    43   21   22 ar
    44   22   23 ar
    45   22   48 1
    46   23   24 ar
    47   23   26 1
    48   24   25 ar
    49   24   49 1
    50   25   50 1
    51   26   27 1
    52   27   28 1
    53   27   51 1
    54   27   52 1
    55   28   29 1
    56   28   53 1
    57   28   54 1
    58   29   30 1
    59   29   31 1
    60   29   55 1
    61   30   56 1
    62   30   57 1
    63   30   58 1
    64   31   59 1
    65   31   60 1
    66   31   61 1
    67   32   62 1
@<TRIPOS>MOLECULE
ZINC03801116
   49    50     0     0     0
SMALL
USER_CHARGES
3-diethylaminopropyl 2-phenylbenzoate
@<TRIPOS>ATOM
      1 C1          4.9276    3.5988    2.2914 C.3       1 <0>        -0.1878
      2 C2          3.7062    3.2008    3.1225 C.3       1 <0>        -0.0146
      3 C3          2.5555    5.2677    2.6064 C.3       1 <0>        -0.0113
      4 C4          2.3579    5.7189    4.0550 C.3       1 <0>        -0.1877
      5 C5          2.3013    3.3458    1.1559 C.3       1 <0>        -0.0091
      6 C6          1.9999    1.8458    1.1515 C.3       1 <0>        -0.1505
      7 C7          1.7933    1.3713   -0.2884 C.3       1 <0>         0.0714
      8 O1          1.5073   -0.0522   -0.2925 O.3       1 <0>        -0.3554
      9 C8          1.2985   -0.6307   -1.4914 C.2       1 <0>         0.5090
     10 O2          1.3539    0.0360   -2.5056 O.2       1 <0>        -0.4758
     11 C9          1.0027   -2.0734   -1.5726 C.ar      1 <0>        -0.1273
     12 C10         1.0685   -2.8695   -0.4281 C.ar      1 <0>        -0.0614
     13 C11         0.7905   -4.2178   -0.5099 C.ar      1 <0>        -0.1319
     14 C12         0.4447   -4.7902   -1.7231 C.ar      1 <0>        -0.0730
     15 C13         0.3741   -4.0187   -2.8656 C.ar      1 <0>        -0.1167
     16 C14         0.6468   -2.6550   -2.8031 C.ar      1 <0>         0.0234
     17 C15         0.5671   -1.8221   -4.0260 C.ar      1 <0>        -0.0572
     18 C16        -0.3264   -0.7533   -4.0880 C.ar      1 <0>        -0.0651
     19 C17        -0.3930    0.0214   -5.2279 C.ar      1 <0>        -0.1218
     20 C18         0.4172   -0.2665   -6.3116 C.ar      1 <0>        -0.1092
     21 C19         1.3022   -1.3285   -6.2578 C.ar      1 <0>        -0.1218
     22 C20         1.3812   -2.1074   -5.1215 C.ar      1 <0>        -0.0993
     23 H1          5.1230    4.6635    2.4196 H         1 <0>         0.0815
     24 H2          5.7947    3.0277    2.6233 H         1 <0>         0.1066
     25 H3          4.7353    3.3889    1.2393 H         1 <0>         0.0798
     26 H4          3.8308    3.5571    4.1451 H         1 <0>         0.1311
     27 H5          3.6069    2.1154    3.1255 H         1 <0>         0.1294
     28 H6          3.5259    5.6114    2.2480 H         1 <0>         0.1330
     29 H7          1.7675    5.6908    1.9834 H         1 <0>         0.1292
     30 H8          1.4553    5.2600    4.4585 H         1 <0>         0.0797
     31 H9          3.2181    5.4140    4.6510 H         1 <0>         0.0804
     32 H10         2.2596    6.8039    4.0874 H         1 <0>         0.1066
     33 H11         3.2051    3.5365    0.5772 H         1 <0>         0.1381
     34 H12         1.4649    3.8857    0.7118 H         1 <0>         0.1343
     35 H13         1.0961    1.6551    1.7301 H         1 <0>         0.0994
     36 H14         2.8362    1.3059    1.5955 H         1 <0>         0.0990
     37 H15         2.6972    1.5620   -0.8670 H         1 <0>         0.0806
     38 H16         0.9570    1.9112   -0.7324 H         1 <0>         0.0812
     39 H17         1.3374   -2.4299    0.5211 H         1 <0>         0.1369
     40 H18         0.8422   -4.8312    0.3775 H         1 <0>         0.1357
     41 H19         0.2287   -5.8470   -1.7754 H         1 <0>         0.1370
     42 H20         0.1035   -4.4724   -3.8075 H         1 <0>         0.1387
     43 H21        -0.9626   -0.5303   -3.2442 H         1 <0>         0.1099
     44 H22        -1.0818    0.8520   -5.2756 H         1 <0>         0.1209
     45 H23         0.3589    0.3403   -7.2031 H         1 <0>         0.1226
     46 H24         1.9323   -1.5485   -7.1069 H         1 <0>         0.1248
     47 H25         2.0725   -2.9362   -5.0807 H         1 <0>         0.1218
     48 N1          2.4770    3.7927    2.5537 N.4       1 <0>        -0.3943
     49 H26         1.6701    3.4817    3.1073 H         1 <0>         0.4293
@<TRIPOS>BOND
     1    1    2 1
     2    1   23 1
     3    1   24 1
     4    1   25 1
     5    2   26 1
     6    2   27 1
     7    2   48 1
     8    3    4 1
     9    3   28 1
    10    3   29 1
    11    3   48 1
    12    4   30 1
    13    4   31 1
    14    4   32 1
    15    5    6 1
    16    5   33 1
    17    5   34 1
    18    5   48 1
    19    6    7 1
    20    6   35 1
    21    6   36 1
    22    7    8 1
    23    7   37 1
    24    7   38 1
    25    8    9 1
    26    9   10 2
    27    9   11 1
    28   11   16 ar
    29   11   12 ar
    30   12   13 ar
    31   12   39 1
    32   13   14 ar
    33   13   40 1
    34   14   15 ar
    35   14   41 1
    36   15   16 ar
    37   15   42 1
    38   16   17 1
    39   17   22 ar
    40   17   18 ar
    41   18   19 ar
    42   18   43 1
    43   19   20 ar
    44   19   44 1
    45   20   21 ar
    46   20   45 1
    47   21   22 ar
    48   21   46 1
    49   22   47 1
    50   48   49 1
@<TRIPOS>MOLECULE
ZINC00020248
   46    48     0     0     0
SMALL
USER_CHARGES

@<TRIPOS>ATOM
      1 C1         -5.6600    1.3618    0.4597 C.3       1 <0>        -0.0474
      2 N1         -5.6471   -0.0878    0.2218 N.4       1 <0>        -0.3867
      3 C2         -6.3574   -0.3850   -1.0293 C.3       1 <0>        -0.0523
      4 C3         -4.2581   -0.5548    0.1191 C.3       1 <0>        -0.0083
      5 C4         -4.2405   -2.0797   -0.0038 C.3       1 <0>        -0.1741
      6 C5         -2.7938   -2.5661   -0.1108 C.3       1 <0>         0.1309
      7 N2         -2.7704   -4.0309   -0.1190 N.pl3     1 <0>        -0.5935
      8 C6         -2.7303   -4.6837   -1.3451 C.ar      1 <0>         0.1859
      9 C7         -1.8260   -4.1660   -2.2811 C.ar      1 <0>        -0.1574
     10 C8         -1.6797   -4.7476   -3.5192 C.ar      1 <0>        -0.0952
     11 C9         -2.4365   -5.8609   -3.8384 C.ar      1 <0>        -0.1332
     12 C10        -3.3330   -6.3646   -2.9249 C.ar      1 <0>        -0.0999
     13 C11        -3.5037   -5.7750   -1.6688 C.ar      1 <0>        -0.1089
     14 C12        -4.5743   -6.4166   -0.8216 C.3       1 <0>        -0.0721
     15 C13        -4.9918   -5.6033    0.3783 C.3       1 <0>        -0.0690
     16 C14        -3.8887   -5.4681    1.3836 C.ar      1 <0>        -0.0980
     17 C15        -2.7839   -4.6994    1.1019 C.ar      1 <0>         0.1741
     18 C16        -1.7322   -4.5882    1.9998 C.ar      1 <0>        -0.1187
     19 C17        -1.8086   -5.2524    3.2126 C.ar      1 <0>        -0.0223
     20 C18        -2.9248   -6.0132    3.5136 C.ar      1 <0>        -0.1131
     21 C19        -3.9754   -6.1256    2.6005 C.ar      1 <0>        -0.0889
     22 Cl1        -0.5058   -5.1313    4.3535 Cl        1 <0>        -0.0554
     23 H1         -6.6906    1.7083    0.5359 H         1 <0>         0.1247
     24 H2         -5.1330    1.5823    1.3879 H         1 <0>         0.1236
     25 H3         -5.1660    1.8703   -0.3683 H         1 <0>         0.1224
     26 H4         -5.8633    0.1235   -1.8572 H         1 <0>         0.1230
     27 H5         -6.3478   -1.4606   -1.2058 H         1 <0>         0.1233
     28 H6         -7.3880   -0.0385   -0.9531 H         1 <0>         0.1247
     29 H7         -3.7907   -0.1139   -0.7614 H         1 <0>         0.1315
     30 H8         -3.7074   -0.2558    1.0110 H         1 <0>         0.1322
     31 H9         -4.7079   -2.5206    0.8766 H         1 <0>         0.0896
     32 H10        -4.7912   -2.3787   -0.8957 H         1 <0>         0.0908
     33 H11        -2.3515   -2.1905   -1.0335 H         1 <0>         0.0902
     34 H12        -2.2229   -2.1984    0.7418 H         1 <0>         0.0815
     35 H13        -1.2357   -3.2979   -2.0274 H         1 <0>         0.1217
     36 H14        -0.9815   -4.3392   -4.2348 H         1 <0>         0.1273
     37 H15        -2.3238   -6.3333   -4.8030 H         1 <0>         0.1262
     38 H16        -3.9182   -7.2346   -3.1839 H         1 <0>         0.1241
     39 H17        -5.4518   -6.5884   -1.4450 H         1 <0>         0.0825
     40 H18        -4.2074   -7.3823   -0.4739 H         1 <0>         0.0763
     41 H19        -5.2905   -4.6094    0.0453 H         1 <0>         0.0673
     42 H20        -5.8457   -6.0866    0.8532 H         1 <0>         0.0790
     43 H21        -0.8653   -3.9919    1.7562 H         1 <0>         0.1372
     44 H22        -2.9858   -6.5230    4.4638 H         1 <0>         0.1382
     45 H23        -4.8449   -6.7215    2.8354 H         1 <0>         0.1390
     46 H24        -6.1044   -0.5585    0.9882 H         1 <0>         0.4269
@<TRIPOS>BOND
     1    1    2 1
     2    1   23 1
     3    1   24 1
     4    1   25 1
     5    2    3 1
     6    2    4 1
     7    2   46 1
     8    3   26 1
     9    3   27 1
    10    3   28 1
    11    4    5 1
    12    4   29 1
    13    4   30 1
    14    5    6 1
    15    5   31 1
    16    5   32 1
    17    6    7 1
    18    6   33 1
    19    6   34 1
    20    7   17 1
    21    7    8 1
    22    8   13 ar
    23    8    9 ar
    24    9   10 ar
    25    9   35 1
    26   10   11 ar
    27   10   36 1
    28   11   12 ar
    29   11   37 1
    30   12   13 ar
    31   12   38 1
    32   13   14 1
    33   14   15 1
    34   14   39 1
    35   14   40 1
    36   15   16 1
    37   15   41 1
    38   15   42 1
    39   16   21 ar
    40   16   17 ar
    41   17   18 ar
    42   18   19 ar
    43   18   43 1
    44   19   20 ar
    45   19   22 1
    46   20   21 ar
    47   20   44 1
    48   21   45 1
@<TRIPOS>MOLECULE
ZINC19418959
   53    56     0     0     0
SMALL
USER_CHARGES

@<TRIPOS>ATOM
      1 C1          0.4204    1.5427   -0.3194 C.3       1 <0>        -0.0460
      2 N1          0.3487    0.0771   -0.2504 N.4       1 <0>        -0.3881
      3 C2          0.9699   -0.5001   -1.4498 C.3       1 <0>        -0.0029
      4 C3          0.8787   -2.0264   -1.3873 C.3       1 <0>         0.0253
      5 N2          1.5653   -2.5063   -0.1797 N.3       1 <0>        -0.5381
      6 C4          0.9701   -1.9172    1.0281 C.3       1 <0>         0.0200
      7 C5          1.0605   -0.3919    0.9458 C.3       1 <0>        -0.0028
      8 C6          1.5488   -3.9737   -0.1128 C.3       1 <0>         0.0563
      9 C7          2.4763   -4.4435    1.0097 C.3       1 <0>        -0.1490
     10 C8          2.4590   -5.9719    1.0794 C.3       1 <0>         0.1115
     11 N3          3.3471   -6.4217    2.1542 N.pl3     1 <0>        -0.5624
     12 C9          2.7947   -6.5759    3.4230 C.ar      1 <0>         0.1921
     13 C10         1.6439   -5.8634    3.7445 C.ar      1 <0>        -0.1625
     14 C11         1.0657   -5.9970    4.9923 C.ar      1 <0>        -0.0785
     15 C12         1.6269   -6.8403    5.9324 C.ar      1 <0>        -0.1323
     16 C13         2.7718   -7.5521    5.6246 C.ar      1 <0>        -0.0529
     17 C14         3.3588   -7.4215    4.3741 C.ar      1 <0>        -0.1573
     18 S1          4.8225   -8.3286    4.0036 S.3       1 <0>         0.0431
     19 C15         5.4784   -7.5174    2.5843 C.ar      1 <0>        -0.1233
     20 C16         4.6781   -6.6680    1.8281 C.ar      1 <0>         0.1899
     21 C17         5.2223   -6.0407    0.7125 C.ar      1 <0>        -0.1146
     22 C18         6.5389   -6.2664    0.3573 C.ar      1 <0>        -0.1463
     23 C19         7.3258   -7.1180    1.1085 C.ar      1 <0>        -0.0830
     24 C20         6.7996   -7.7356    2.2221 C.ar      1 <0>        -0.0588
     25 C21         7.1179   -5.5814   -0.8538 C.3       1 <0>         0.5109
     26 F1          7.6743   -4.3552   -0.4745 F         1 <0>        -0.1740
     27 F2          8.1112   -6.3901   -1.4165 F         1 <0>        -0.1704
     28 F3          6.1057   -5.3632   -1.7946 F         1 <0>        -0.1785
     29 H1          1.4638    1.8534   -0.3722 H         1 <0>         0.1234
     30 H2         -0.1078    1.8910   -1.2070 H         1 <0>         0.1248
     31 H3         -0.0417    1.9713    0.5699 H         1 <0>         0.1244
     32 H4          0.4490   -0.1411   -2.3374 H         1 <0>         0.1368
     33 H5          2.0168   -0.2004   -1.4968 H         1 <0>         0.1381
     34 H6         -0.1685   -2.3271   -1.3541 H         1 <0>         0.0616
     35 H7          1.3528   -2.4555   -2.2701 H         1 <0>         0.1249
     36 H8         -0.0756   -2.2162    1.1011 H         1 <0>         0.0619
     37 H9          1.5109   -2.2667    1.9076 H         1 <0>         0.1238
     38 H10         2.1070   -0.0926    0.8865 H         1 <0>         0.1379
     39 H11         0.6068    0.0475    1.8341 H         1 <0>         0.1360
     40 H12         0.5337   -4.3169    0.0871 H         1 <0>         0.0515
     41 H13         1.8908   -4.3847   -1.0626 H         1 <0>         0.0934
     42 H14         3.4913   -4.1004    0.8098 H         1 <0>         0.0856
     43 H15         2.1342   -4.0326    1.9596 H         1 <0>         0.0755
     44 H16         1.4439   -6.3150    1.2793 H         1 <0>         0.0895
     45 H17         2.8011   -6.3828    0.1296 H         1 <0>         0.0899
     46 H18         1.2002   -5.2020    3.0150 H         1 <0>         0.1272
     47 H19         0.1723   -5.4402    5.2339 H         1 <0>         0.1308
     48 H20         1.1719   -6.9431    6.9065 H         1 <0>         0.1354
     49 H21         3.2102   -8.2112    6.3594 H         1 <0>         0.1375
     50 H22         4.6131   -5.3736    0.1208 H         1 <0>         0.1431
     51 H23         8.3536   -7.2935    0.8271 H         1 <0>         0.1481
     52 H24         7.4163   -8.4005    2.8086 H         1 <0>         0.1492
     53 H25        -0.6172   -0.2102   -0.2010 H         1 <0>         0.4223
@<TRIPOS>BOND
     1    1    2 1
     2    1   29 1
     3    1   30 1
     4    1   31 1
     5    2    7 1
     6    2    3 1
     7    2   53 1
     8    3    4 1
     9    3   32 1
    10    3   33 1
    11    4    5 1
    12    4   34 1
    13    4   35 1
    14    5    6 1
    15    5    8 1
    16    6    7 1
    17    6   36 1
    18    6   37 1
    19    7   38 1
    20    7   39 1
    21    8    9 1
    22    8   40 1
    23    8   41 1
    24    9   10 1
    25    9   42 1
    26    9   43 1
    27   10   11 1
    28   10   44 1
    29   10   45 1
    30   11   20 1
    31   11   12 1
    32   12   17 ar
    33   12   13 ar
    34   13   14 ar
    35   13   46 1
    36   14   15 ar
    37   14   47 1
    38   15   16 ar
    39   15   48 1
    40   16   17 ar
    41   16   49 1
    42   17   18 1
    43   18   19 1
    44   19   24 ar
    45   19   20 ar
    46   20   21 ar
    47   21   22 ar
    48   21   50 1
    49   22   23 ar
    50   22   25 1
    51   23   24 ar
    52   23   51 1
    53   24   52 1
    54   25   26 1
    55   25   27 1
    56   25   28 1
@<TRIPOS>MOLECULE
ZINC19418959
   53    56     0     0     0
SMALL
USER_CHARGES

@<TRIPOS>ATOM
      1 C1          0.4328    1.5258   -0.3011 C.3       1 <0>         0.0191
      2 N1          0.3593    0.0600   -0.2373 N.3       1 <0>        -0.5429
      3 C2          0.8896   -0.5479   -1.4659 C.3       1 <0>         0.0236
      4 C3          0.7405   -2.0687   -1.3844 C.3       1 <0>        -0.0021
      5 N2          1.4724   -2.5705   -0.2140 N.4       1 <0>        -0.3864
      6 C4          0.9155   -1.9734    1.0070 C.3       1 <0>        -0.0074
      7 C5          1.0660   -0.4518    0.9454 C.3       1 <0>         0.0248
      8 C6          1.3441   -4.0323   -0.1464 C.3       1 <0>        -0.0072
      9 C7          2.2069   -4.5677    0.9981 C.3       1 <0>        -0.1860
     10 C8          2.0732   -6.0902    1.0685 C.3       1 <0>         0.1181
     11 N3          2.8994   -6.6028    2.1644 N.pl3     1 <0>        -0.5624
     12 C9          2.3073   -6.7118    3.4198 C.ar      1 <0>         0.1854
     13 C10         1.2060   -5.9141    3.7135 C.ar      1 <0>        -0.1634
     14 C11         0.5902   -6.0007    4.9473 C.ar      1 <0>        -0.0766
     15 C12         1.0642   -6.8815    5.9011 C.ar      1 <0>        -0.1271
     16 C13         2.1593   -7.6780    5.6210 C.ar      1 <0>        -0.0512
     17 C14         2.7837   -7.5950    4.3846 C.ar      1 <0>        -0.1555
     18 S1          4.1834   -8.6105    4.0495 S.3       1 <0>         0.0508
     19 C15         4.9317   -7.8544    2.6456 C.ar      1 <0>        -0.1201
     20 C16         4.2155   -6.9492    1.8701 C.ar      1 <0>         0.1860
     21 C17         4.8314   -6.3674    0.7671 C.ar      1 <0>        -0.1187
     22 C18         6.1353   -6.6922    0.4434 C.ar      1 <0>        -0.1465
     23 C19         6.8381   -7.5986    1.2136 C.ar      1 <0>        -0.0782
     24 C20         6.2409   -8.1721    2.3149 C.ar      1 <0>        -0.0564
     25 C21         6.7925   -6.0557   -0.7542 C.3       1 <0>         0.5107
     26 F1          7.4304   -4.8737   -0.3627 F         1 <0>        -0.1734
     27 F2          7.7352   -6.9381   -1.2927 F         1 <0>        -0.1677
     28 F3          5.8220   -5.7644   -1.7188 F         1 <0>        -0.1812
     29 H1          1.4765    1.8352   -0.3565 H         1 <0>         0.0399
     30 H2         -0.0981    1.8781   -1.1855 H         1 <0>         0.0846
     31 H3         -0.0256    1.9517    0.5914 H         1 <0>         0.0847
     32 H4          0.3342   -0.1736   -2.3259 H         1 <0>         0.1251
     33 H5          1.9434   -0.2910   -1.5732 H         1 <0>         0.0609
     34 H6         -0.3146   -2.3258   -1.2908 H         1 <0>         0.1393
     35 H7          1.1462   -2.5225   -2.2886 H         1 <0>         0.1373
     36 H8         -0.1405   -2.2310    1.0883 H         1 <0>         0.1397
     37 H9          1.4508   -2.3566    1.8757 H         1 <0>         0.1346
     38 H10         2.1227   -0.1933    0.8778 H         1 <0>         0.0606
     39 H11         0.6393   -0.0074    1.8446 H         1 <0>         0.1243
     40 H12         0.3016   -4.2978    0.0297 H         1 <0>         0.1367
     41 H13         1.6765   -4.4702   -1.0876 H         1 <0>         0.1368
     42 H14         3.2494   -4.3022    0.8220 H         1 <0>         0.0947
     43 H15         1.8745   -4.1298    1.9393 H         1 <0>         0.0988
     44 H16         1.0308   -6.3556    1.2446 H         1 <0>         0.1004
     45 H17         2.4057   -6.5280    0.1273 H         1 <0>         0.0974
     46 H18         0.8307   -5.2231    2.9732 H         1 <0>         0.1250
     47 H19        -0.2642   -5.3778    5.1674 H         1 <0>         0.1340
     48 H20         0.5800   -6.9473    6.8642 H         1 <0>         0.1380
     49 H21         2.5295   -8.3664    6.3664 H         1 <0>         0.1394
     50 H22         4.2881   -5.6578    0.1607 H         1 <0>         0.1365
     51 H23         7.8561   -7.8515    0.9568 H         1 <0>         0.1503
     52 H24         6.7918   -8.8800    2.9163 H         1 <0>         0.1515
     53 H25         2.4470   -2.3223   -0.2952 H         1 <0>         0.4212
@<TRIPOS>BOND
     1    1    2 1
     2    1   29 1
     3    1   30 1
     4    1   31 1
     5    2    7 1
     6    2    3 1
     7    3    4 1
     8    3   32 1
     9    3   33 1
    10    4    5 1
    11    4   34 1
    12    4   35 1
    13    5    6 1
    14    5    8 1
    15    5   53 1
    16    6    7 1
    17    6   36 1
    18    6   37 1
    19    7   38 1
    20    7   39 1
    21    8    9 1
    22    8   40 1
    23    8   41 1
    24    9   10 1
    25    9   42 1
    26    9   43 1
    27   10   11 1
    28   10   44 1
    29   10   45 1
    30   11   20 1
    31   11   12 1
    32   12   17 ar
    33   12   13 ar
    34   13   14 ar
    35   13   46 1
    36   14   15 ar
    37   14   47 1
    38   15   16 ar
    39   15   48 1
    40   16   17 ar
    41   16   49 1
    42   17   18 1
    43   18   19 1
    44   19   24 ar
    45   19   20 ar
    46   20   21 ar
    47   21   22 ar
    48   21   50 1
    49   22   23 ar
    50   22   25 1
    51   23   24 ar
    52   23   51 1
    53   24   52 1
    54   25   26 1
    55   25   27 1
    56   25   28 1
@<TRIPOS>MOLECULE
ZINC19632891
   57    60     0     0     0
SMALL
USER_CHARGES

@<TRIPOS>ATOM
      1 C1         -0.5628    1.2510    0.7251 C.ar      1 <0>        -0.0947
      2 C2          0.5431    2.0576    0.9261 C.ar      1 <0>        -0.1192
      3 C3          1.8090    1.5087    0.9326 C.ar      1 <0>        -0.0899
      4 C4          1.9723    0.1369    0.7362 C.ar      1 <0>        -0.0996
      5 C5          0.8527   -0.6711    0.5345 C.ar      1 <0>        -0.0996
      6 C6         -0.4076   -0.1097    0.5298 C.ar      1 <0>        -0.1212
      7 C7          3.3255   -0.4577    0.7415 C.2       1 <0>        -0.0139
      8 C8          3.4775   -1.7613    0.5547 C.2       1 <0>        -0.2536
      9 C9          4.8572   -2.3675    0.5600 C.3       1 <0>         0.0397
     10 N1          4.9119   -3.4516    1.5498 N.4       1 <0>        -0.3850
     11 C10         4.0107   -4.5360    1.1382 C.3       1 <0>        -0.0017
     12 C11         4.0531   -5.6573    2.1786 C.3       1 <0>         0.0245
     13 N2          5.4293   -6.1593    2.2978 N.3       1 <0>        -0.5291
     14 C12         6.3474   -5.0790    2.6852 C.3       1 <0>         0.0248
     15 C13         6.2860   -3.9624    1.6406 C.3       1 <0>        -0.0010
     16 C14         5.5014   -7.2775    3.2479 C.3       1 <0>         0.1788
     17 C15         4.5653   -8.3728    2.8065 C.ar      1 <0>        -0.0937
     18 C16         4.5133   -8.7430    1.4756 C.ar      1 <0>        -0.0949
     19 C17         3.6546   -9.7478    1.0707 C.ar      1 <0>        -0.1215
     20 C18         2.8482  -10.3827    1.9967 C.ar      1 <0>        -0.1093
     21 C19         2.9008  -10.0131    3.3277 C.ar      1 <0>        -0.1157
     22 C20         3.7627   -9.0113    3.7333 C.ar      1 <0>        -0.1099
     23 C21         6.9109   -7.8088    3.2923 C.ar      1 <0>        -0.0933
     24 C22         7.6131   -8.0045    2.1177 C.ar      1 <0>        -0.0939
     25 C23         8.9061   -8.4919    2.1585 C.ar      1 <0>        -0.1216
     26 C24         9.4969   -8.7833    3.3737 C.ar      1 <0>        -0.1094
     27 C25         8.7950   -8.5868    4.5483 C.ar      1 <0>        -0.1158
     28 C26         7.5036   -8.0953    4.5078 C.ar      1 <0>        -0.1104
     29 H1         -1.5518    1.6849    0.7250 H         1 <0>         0.1309
     30 H2          0.4154    3.1192    1.0779 H         1 <0>         0.1320
     31 H3          2.6716    2.1395    1.0889 H         1 <0>         0.1292
     32 H4          0.9726   -1.7335    0.3816 H         1 <0>         0.1229
     33 H5         -1.2750   -0.7340    0.3735 H         1 <0>         0.1300
     34 H6          4.1905    0.1699    0.8975 H         1 <0>         0.1304
     35 H7          2.6125   -2.3889    0.3986 H         1 <0>         0.1360
     36 H8          5.0824   -2.7668   -0.4289 H         1 <0>         0.1355
     37 H9          5.5892   -1.6023    0.8183 H         1 <0>         0.1302
     38 H10         2.9935   -4.1526    1.0586 H         1 <0>         0.1341
     39 H11         4.3289   -4.9254    0.1712 H         1 <0>         0.1375
     40 H12         3.7220   -5.2716    3.1428 H         1 <0>         0.0606
     41 H13         3.3958   -6.4687    1.8659 H         1 <0>         0.1264
     42 H14         6.0540   -4.6837    3.6578 H         1 <0>         0.0609
     43 H15         7.3638   -5.4683    2.7421 H         1 <0>         0.1265
     44 H16         6.5926   -4.3548    0.6710 H         1 <0>         0.1380
     45 H17         6.9556   -3.1537    1.9335 H         1 <0>         0.1351
     46 H18         5.2125   -6.9305    4.2399 H         1 <0>         0.0663
     47 H19         5.1433   -8.2470    0.7521 H         1 <0>         0.1270
     48 H20         3.6135  -10.0365    0.0308 H         1 <0>         0.1247
     49 H21         2.1768  -11.1672    1.6803 H         1 <0>         0.1255
     50 H22         2.2706  -10.5089    4.0512 H         1 <0>         0.1262
     51 H23         3.8065   -8.7251    4.7738 H         1 <0>         0.1204
     52 H24         7.1515   -7.7768    1.1683 H         1 <0>         0.1268
     53 H25         9.4544   -8.6454    1.2408 H         1 <0>         0.1246
     54 H26        10.5068   -9.1648    3.4055 H         1 <0>         0.1254
     55 H27         9.2565   -8.8148    5.4978 H         1 <0>         0.1261
     56 H28         6.9565   -7.9383    5.4257 H         1 <0>         0.1203
     57 H29         4.6240   -3.0992    2.4505 H         1 <0>         0.4207
@<TRIPOS>BOND
     1    1    6 ar
     2    1    2 ar
     3    1   29 1
     4    2    3 ar
     5    2   30 1
     6    3    4 ar
     7    3   31 1
     8    4    5 ar
     9    4    7 1
    10    5    6 ar
    11    5   32 1
    12    6   33 1
    13    7    8 2
    14    7   34 1
    15    8    9 1
    16    8   35 1
    17    9   10 1
    18    9   36 1
    19    9   37 1
    20   10   15 1
    21   10   11 1
    22   10   57 1
    23   11   12 1
    24   11   38 1
    25   11   39 1
    26   12   13 1
    27   12   40 1
    28   12   41 1
    29   13   14 1
    30   13   16 1
    31   14   15 1
    32   14   42 1
    33   14   43 1
    34   15   44 1
    35   15   45 1
    36   16   17 1
    37   16   23 1
    38   16   46 1
    39   17   22 ar
    40   17   18 ar
    41   18   19 ar
    42   18   47 1
    43   19   20 ar
    44   19   48 1
    45   20   21 ar
    46   20   49 1
    47   21   22 ar
    48   21   50 1
    49   22   51 1
    50   23   28 ar
    51   23   24 ar
    52   24   25 ar
    53   24   52 1
    54   25   26 ar
    55   25   53 1
    56   26   27 ar
    57   26   54 1
    58   27   28 ar
    59   27   55 1
    60   28   56 1
@<TRIPOS>MOLECULE
ZINC19632891
   57    60     0     0     0
SMALL
USER_CHARGES

@<TRIPOS>ATOM
      1 C1         -0.0167    1.3792    0.0096 C.ar      1 <0>        -0.1114
      2 C2          1.1683    2.0931    0.0021 C.ar      1 <0>        -0.1174
      3 C3          2.3774    1.4286   -0.0134 C.ar      1 <0>        -0.1033
      4 C4          2.4032    0.0335   -0.0212 C.ar      1 <0>        -0.0714
      5 C5          1.2045   -0.6806   -0.0131 C.ar      1 <0>        -0.1115
      6 C6          0.0021   -0.0041    0.0020 C.ar      1 <0>        -0.1198
      7 C7          3.6950   -0.6848   -0.0384 C.2       1 <0>        -0.0787
      8 C8          3.7162   -2.0103   -0.0457 C.2       1 <0>        -0.1682
      9 C9          5.0332   -2.7426   -0.0633 C.3       1 <0>         0.0892
     10 N1          5.0868   -3.6810    1.0657 N.3       1 <0>        -0.5337
     11 C10         4.0942   -4.7533    0.9069 C.3       1 <0>         0.0256
     12 C11         4.1414   -5.6730    2.1290 C.3       1 <0>        -0.0039
     13 N2          5.4882   -6.2444    2.2603 N.4       1 <0>        -0.3834
     14 C12         6.4652   -5.1629    2.4428 C.3       1 <0>        -0.0037
     15 C13         6.4373   -4.2389    1.2233 C.3       1 <0>         0.0279
     16 C14         5.5281   -7.1413    3.4231 C.3       1 <0>         0.1340
     17 C15         4.5271   -8.2520    3.2353 C.ar      1 <0>        -0.1314
     18 C16         4.3685   -8.8368    1.9928 C.ar      1 <0>        -0.1216
     19 C17         3.4503   -9.8557    1.8205 C.ar      1 <0>        -0.1029
     20 C18         2.6910  -10.2901    2.8909 C.ar      1 <0>        -0.0922
     21 C19         2.8502   -9.7059    4.1336 C.ar      1 <0>        -0.1034
     22 C20         3.7715   -8.6900    4.3068 C.ar      1 <0>        -0.0863
     23 C21         6.9097   -7.7277    3.5580 C.ar      1 <0>        -0.1310
     24 C22         7.6098   -8.1140    2.4303 C.ar      1 <0>        -0.1221
     25 C23         8.8771   -8.6519    2.5541 C.ar      1 <0>        -0.1026
     26 C24         9.4447   -8.8031    3.8055 C.ar      1 <0>        -0.0924
     27 C25         8.7450   -8.4159    4.9330 C.ar      1 <0>        -0.1031
     28 C26         7.4794   -7.8740    4.8090 C.ar      1 <0>        -0.0865
     29 H1         -0.9604    1.9041    0.0260 H         1 <0>         0.1259
     30 H2          1.1469    3.1729    0.0082 H         1 <0>         0.1273
     31 H3          3.3018    1.9870   -0.0200 H         1 <0>         0.1256
     32 H4          1.2178   -1.7605   -0.0194 H         1 <0>         0.1202
     33 H5         -0.9265   -0.5556    0.0079 H         1 <0>         0.1249
     34 H6          4.6214   -0.1298   -0.0450 H         1 <0>         0.1212
     35 H7          2.7898   -2.5653   -0.0392 H         1 <0>         0.1155
     36 H8          5.1300   -3.2938   -0.9987 H         1 <0>         0.0562
     37 H9          5.8492   -2.0250    0.0217 H         1 <0>         0.0930
     38 H10         3.0991   -4.3175    0.8179 H         1 <0>         0.1251
     39 H11         4.3212   -5.3289    0.0096 H         1 <0>         0.0598
     40 H12         3.9011   -5.0999    3.0245 H         1 <0>         0.1396
     41 H13         3.4159   -6.4772    2.0068 H         1 <0>         0.1363
     42 H14         6.2129   -4.5924    3.3367 H         1 <0>         0.1398
     43 H15         7.4624   -5.5889    2.5531 H         1 <0>         0.1368
     44 H16         6.7029   -4.8061    0.3311 H         1 <0>         0.0595
     45 H17         7.1516   -3.4279    1.3651 H         1 <0>         0.1254
     46 H18         5.2824   -6.5792    4.3241 H         1 <0>         0.1487
     47 H19         4.9617   -8.4974    1.1565 H         1 <0>         0.1135
     48 H20         3.3259  -10.3120    0.8496 H         1 <0>         0.1351
     49 H21         1.9731  -11.0856    2.7561 H         1 <0>         0.1361
     50 H22         2.2568  -10.0451    4.9698 H         1 <0>         0.1376
     51 H23         3.8986   -8.2361    5.2786 H         1 <0>         0.1334
     52 H24         7.1663   -7.9960    1.4526 H         1 <0>         0.1133
     53 H25         9.4237   -8.9545    1.6731 H         1 <0>         0.1351
     54 H26        10.4345   -9.2240    3.9022 H         1 <0>         0.1361
     55 H27         9.1883   -8.5343    5.9107 H         1 <0>         0.1376
     56 H28         6.9342   -7.5681    5.6897 H         1 <0>         0.1334
     57 H29         5.7151   -6.7652    1.4264 H         1 <0>         0.4132
@<TRIPOS>BOND
     1    1    6 ar
     2    1    2 ar
     3    1   29 1
     4    2    3 ar
     5    2   30 1
     6    3    4 ar
     7    3   31 1
     8    4    5 ar
     9    4    7 1
    10    5    6 ar
    11    5   32 1
    12    6   33 1
    13    7    8 2
    14    7   34 1
    15    8    9 1
    16    8   35 1
    17    9   10 1
    18    9   36 1
    19    9   37 1
    20   10   15 1
    21   10   11 1
    22   11   12 1
    23   11   38 1
    24   11   39 1
    25   12   13 1
    26   12   40 1
    27   12   41 1
    28   13   14 1
    29   13   16 1
    30   13   57 1
    31   14   15 1
    32   14   42 1
    33   14   43 1
    34   15   44 1
    35   15   45 1
    36   16   17 1
    37   16   23 1
    38   16   46 1
    39   17   22 ar
    40   17   18 ar
    41   18   19 ar
    42   18   47 1
    43   19   20 ar
    44   19   48 1
    45   20   21 ar
    46   20   49 1
    47   21   22 ar
    48   21   50 1
    49   22   51 1
    50   23   28 ar
    51   23   24 ar
    52   24   25 ar
    53   24   52 1
    54   25   26 ar
    55   25   53 1
    56   26   27 ar
    57   26   54 1
    58   27   28 ar
    59   27   55 1
    60   28   56 1
@<TRIPOS>MOLECULE
ZINC19632891
   56    59     0     0     0
SMALL
USER_CHARGES

@<TRIPOS>ATOM
      1 C1         -0.6427    1.2093    0.7414 C.ar      1 <0>        -0.1215
      2 C2          0.4563    2.0275    0.9333 C.ar      1 <0>        -0.1188
      3 C3          1.7277    1.4917    0.9313 C.ar      1 <0>        -0.1103
      4 C4          1.9037    0.1214    0.7356 C.ar      1 <0>        -0.0548
      5 C5          0.7911   -0.6984    0.5430 C.ar      1 <0>        -0.1153
      6 C6         -0.4749   -0.1501    0.5469 C.ar      1 <0>        -0.1182
      7 C7          3.2631   -0.4592    0.7317 C.2       1 <0>        -0.1116
      8 C8          3.4271   -1.7614    0.5455 C.2       1 <0>        -0.1343
      9 C9          4.8129   -2.3534    0.5416 C.3       1 <0>         0.0843
     10 N1          4.8860   -3.4354    1.5325 N.3       1 <0>        -0.5355
     11 C10         4.0266   -4.5629    1.1454 C.3       1 <0>         0.0576
     12 C11         4.0691   -5.6323    2.2395 C.3       1 <0>         0.0571
     13 N2          5.4569   -6.0745    2.4350 N.3       1 <0>        -0.5275
     14 C12         6.3163   -4.9470    2.8221 C.3       1 <0>         0.0579
     15 C13         6.2738   -3.8776    1.7280 C.3       1 <0>         0.0591
     16 C14         5.5300   -7.1566    3.4259 C.3       1 <0>         0.1678
     17 C15         4.6567   -8.3024    2.9837 C.ar      1 <0>        -0.0763
     18 C16         4.6773   -8.7186    1.6657 C.ar      1 <0>        -0.0901
     19 C17         3.8763   -9.7696    1.2601 C.ar      1 <0>        -0.1239
     20 C18         3.0550  -10.4049    2.1727 C.ar      1 <0>        -0.1184
     21 C19         3.0351   -9.9893    3.4909 C.ar      1 <0>        -0.1204
     22 C20         3.8393   -8.9410    3.8974 C.ar      1 <0>        -0.1132
     23 C21         6.9555   -7.6297    3.5488 C.ar      1 <0>        -0.0761
     24 C22         7.7154   -7.8368    2.4127 C.ar      1 <0>        -0.0893
     25 C23         9.0230   -8.2708    2.5254 C.ar      1 <0>        -0.1240
     26 C24         9.5708   -8.4973    3.7742 C.ar      1 <0>        -0.1185
     27 C25         8.8113   -8.2893    4.9103 C.ar      1 <0>        -0.1206
     28 C26         7.5050   -7.8512    4.7977 C.ar      1 <0>        -0.1133
     29 H1         -1.6361    1.6330    0.7480 H         1 <0>         0.1219
     30 H2          0.3186    3.0879    1.0846 H         1 <0>         0.1233
     31 H3          2.5849    2.1316    1.0804 H         1 <0>         0.1236
     32 H4          0.9208   -1.7597    0.3907 H         1 <0>         0.1224
     33 H5         -1.3369   -0.7835    0.3976 H         1 <0>         0.1227
     34 H6          4.1226    0.1775    0.8806 H         1 <0>         0.1188
     35 H7          2.5675   -2.3981    0.3967 H         1 <0>         0.1136
     36 H8          5.0351   -2.7517   -0.4484 H         1 <0>         0.0471
     37 H9          5.5389   -1.5804    0.7936 H         1 <0>         0.0807
     38 H10         3.0022   -4.2126    1.0189 H         1 <0>         0.0797
     39 H11         4.3845   -4.9877    0.2076 H         1 <0>         0.0434
     40 H12         3.6857   -5.2153    3.1707 H         1 <0>         0.0429
     41 H13         3.4552   -6.4822    1.9413 H         1 <0>         0.0839
     42 H14         5.9584   -4.5222    3.7599 H         1 <0>         0.0432
     43 H15         7.3407   -5.2973    2.9486 H         1 <0>         0.0839
     44 H16         6.6572   -4.2946    0.7968 H         1 <0>         0.0437
     45 H17         6.8877   -3.0277    2.0262 H         1 <0>         0.0799
     46 H18         5.1848   -6.7884    4.3920 H         1 <0>         0.0568
     47 H19         5.3190   -8.2223    0.9527 H         1 <0>         0.1275
     48 H20         3.8919  -10.0943    0.2302 H         1 <0>         0.1210
     49 H21         2.4287  -11.2256    1.8557 H         1 <0>         0.1204
     50 H22         2.3932  -10.4854    4.2039 H         1 <0>         0.1214
     51 H23         3.8265   -8.6188    4.9282 H         1 <0>         0.1184
     52 H24         7.2873   -7.6599    1.4371 H         1 <0>         0.1273
     53 H25         9.6164   -8.4334    1.6379 H         1 <0>         0.1209
     54 H26        10.5922   -8.8371    3.8623 H         1 <0>         0.1203
     55 H27         9.2392   -8.4665    5.8859 H         1 <0>         0.1214
     56 H28         6.9127   -7.6851    5.6854 H         1 <0>         0.1184
@<TRIPOS>BOND
     1    1    6 ar
     2    1    2 ar
     3    1   29 1
     4    2    3 ar
     5    2   30 1
     6    3    4 ar
     7    3   31 1
     8    4    5 ar
     9    4    7 1
    10    5    6 ar
    11    5   32 1
    12    6   33 1
    13    7    8 2
    14    7   34 1
    15    8    9 1
    16    8   35 1
    17    9   10 1
    18    9   36 1
    19    9   37 1
    20   10   15 1
    21   10   11 1
    22   11   12 1
    23   11   38 1
    24   11   39 1
    25   12   13 1
    26   12   40 1
    27   12   41 1
    28   13   14 1
    29   13   16 1
    30   14   15 1
    31   14   42 1
    32   14   43 1
    33   15   44 1
    34   15   45 1
    35   16   17 1
    36   16   23 1
    37   16   46 1
    38   17   22 ar
    39   17   18 ar
    40   18   19 ar
    41   18   47 1
    42   19   20 ar
    43   19   48 1
    44   20   21 ar
    45   20   49 1
    46   21   22 ar
    47   21   50 1
    48   22   51 1
    49   23   28 ar
    50   23   24 ar
    51   24   25 ar
    52   24   52 1
    53   25   26 ar
    54   25   53 1
    55   26   27 ar
    56   26   54 1
    57   27   28 ar
    58   27   55 1
    59   28   56 1
@<TRIPOS>MOLECULE
ZINC01530741
   42    44     0     0     0
SMALL
USER_CHARGES

@<TRIPOS>ATOM
      1 C1         -0.0178    1.4648    0.0101 C.3       1 <0>        -0.0473
      2 N1          0.0021   -0.0041    0.0020 N.4       1 <0>        -0.5104
      3 C2         -1.3761   -0.5125    0.0124 C.3       1 <0>        -0.0075
      4 C3         -1.3553   -2.0424    0.0040 C.3       1 <0>        -0.1205
      5 C4         -2.7691   -2.5640    0.0147 C.2       1 <0>        -0.1701
      6 C5         -3.1759   -3.4141   -0.9354 C.2       1 <0>         0.0084
      7 C6         -2.2617   -3.8737   -2.0162 C.ar      1 <0>        -0.0603
      8 C7         -1.0502   -4.4584   -1.6510 C.ar      1 <0>        -0.1120
      9 C8         -0.1817   -4.9254   -2.6144 C.ar      1 <0>        -0.1225
     10 C9         -0.5309   -4.8091   -3.9481 C.ar      1 <0>        -0.1072
     11 C10        -1.7216   -4.2226   -4.3099 C.ar      1 <0>        -0.1263
     12 C11        -2.6129   -3.7258   -3.3561 C.ar      1 <0>        -0.0535
     13 C12        -3.8344   -3.0498   -3.9297 C.3       1 <0>        -0.0765
     14 C13        -4.7567   -2.4533   -2.8869 C.3       1 <0>        -0.0806
     15 C14        -5.3648   -3.4987   -1.9877 C.ar      1 <0>        -0.0737
     16 C15        -4.5615   -3.9515   -0.9605 C.ar      1 <0>        -0.0697
     17 C16        -5.0352   -4.8627   -0.0270 C.ar      1 <0>        -0.0955
     18 C17        -6.3272   -5.3414   -0.1696 C.ar      1 <0>        -0.1191
     19 C18        -7.1195   -4.9199   -1.2225 C.ar      1 <0>        -0.1080
     20 C19        -6.6408   -3.9814   -2.1491 C.ar      1 <0>        -0.1083
     21 H1          1.0047    1.8421    0.0024 H         1 <0>         0.1266
     22 H2         -0.5450    1.8259   -0.8730 H         1 <0>         0.1232
     23 H3         -0.5280    1.8163    0.9069 H         1 <0>         0.1239
     24 H4          0.4744   -0.3295   -0.8281 H         1 <0>         0.4301
     25 H5         -1.8863   -0.1610    0.9092 H         1 <0>         0.1332
     26 H6         -1.9033   -0.1515   -0.8706 H         1 <0>         0.1314
     27 H7         -0.8451   -2.3939   -0.8928 H         1 <0>         0.0991
     28 H8         -0.8281   -2.4035    0.8871 H         1 <0>         0.0962
     29 H9         -3.4541   -2.2517    0.7892 H         1 <0>         0.1310
     30 H10        -0.7900   -4.5458   -0.6065 H         1 <0>         0.1235
     31 H11         0.7582   -5.3762   -2.3319 H         1 <0>         0.1290
     32 H12         0.1367   -5.1814   -4.7112 H         1 <0>         0.1265
     33 H13        -1.9733   -4.1443   -5.3573 H         1 <0>         0.1247
     34 H14        -3.5084   -2.2546   -4.6003 H         1 <0>         0.0855
     35 H15        -4.3952   -3.7815   -4.5113 H         1 <0>         0.0834
     36 H16        -4.1905   -1.7497   -2.2766 H         1 <0>         0.0703
     37 H17        -5.5577   -1.9136   -3.3920 H         1 <0>         0.0793
     38 H18        -4.4114   -5.1904    0.7915 H         1 <0>         0.1267
     39 H19        -6.7188   -6.0491    0.5460 H         1 <0>         0.1278
     40 H20        -8.1181   -5.3161   -1.3327 H         1 <0>         0.1275
     41 H21        -7.2557   -3.6486   -2.9723 H         1 <0>         0.1315
     42 H22         0.4901   -0.3383    0.8195 H         1 <0>         0.4302
@<TRIPOS>BOND
     1    1    2 1
     2    1   21 1
     3    1   22 1
     4    1   23 1
     5    2    3 1
     6    2   24 1
     7    2   42 1
     8    3    4 1
     9    3   25 1
    10    3   26 1
    11    4    5 1
    12    4   27 1
    13    4   28 1
    14    5    6 2
    15    5   29 1
    16    6   16 1
    17    6    7 1
    18    7   12 ar
    19    7    8 ar
    20    8    9 ar
    21    8   30 1
    22    9   10 ar
    23    9   31 1
    24   10   11 ar
    25   10   32 1
    26   11   12 ar
    27   11   33 1
    28   12   13 1
    29   13   14 1
    30   13   34 1
    31   13   35 1
    32   14   15 1
    33   14   36 1
    34   14   37 1
    35   15   20 ar
    36   15   16 ar
    37   16   17 ar
    38   17   18 ar
    39   17   38 1
    40   18   19 ar
    41   18   39 1
    42   19   20 ar
    43   19   40 1
    44   20   41 1
@<TRIPOS>MOLECULE
ZINC01530695
   52    55     0     0     0
SMALL
USER_CHARGES

@<TRIPOS>ATOM
      1 C1         -1.1433    3.8527    2.8784 C.3       1 <0>        -0.0541
      2 N1         -1.4072    3.2632    1.5590 N.4       1 <0>        -0.3810
      3 C2         -2.7176    2.6020    1.5734 C.3       1 <0>        -0.0065
      4 C3         -3.0331    2.0563    0.1791 C.3       1 <0>        -0.1473
      5 C4         -1.9545    1.0467   -0.2240 C.3       1 <0>        -0.1369
      6 C5         -0.5840    1.7272   -0.1636 C.3       1 <0>        -0.1460
      7 C6         -0.3592    2.2851    1.2434 C.3       1 <0>         0.0311
      8 H1         -0.3936    1.4703    1.9666 H         1 <0>         0.1391
      9 C7          1.0094    2.9660    1.3087 C.3       1 <0>        -0.1818
     10 C8          2.1091    1.9201    1.1151 C.3       1 <0>         0.1200
     11 N2          3.4204    2.5646    1.2225 N.pl3     1 <0>        -0.5620
     12 C9          4.0139    2.6094    2.4812 C.ar      1 <0>         0.1850
     13 C10         3.2033    2.5259    3.6086 C.ar      1 <0>        -0.1649
     14 C11         3.7597    2.5612    4.8729 C.ar      1 <0>        -0.0801
     15 C12         5.1280    2.6793    5.0277 C.ar      1 <0>        -0.1283
     16 C13         5.9435    2.7651    3.9143 C.ar      1 <0>        -0.0543
     17 C14         5.3912    2.7328    2.6416 C.ar      1 <0>        -0.1487
     18 S1          6.4447    2.8536    1.2352 S.3       1 <0>         0.0334
     19 C15         5.3514    3.2711   -0.0815 C.ar      1 <0>        -0.1560
     20 C16         3.9807    3.0807    0.0571 C.ar      1 <0>         0.2073
     21 C17         3.1391    3.4181   -0.9969 C.ar      1 <0>        -0.1491
     22 C18         3.6637    3.9309   -2.1755 C.ar      1 <0>        -0.0444
     23 C19         5.0342    4.1090   -2.3068 C.ar      1 <0>        -0.1462
     24 C20         5.8696    3.7867   -1.2603 C.ar      1 <0>        -0.0333
     25 S2          2.5893    4.3553   -3.5060 S.3       1 <0>        -0.1137
     26 C21         3.7086    4.9669   -4.7959 C.3       1 <0>        -0.1435
     27 H2         -0.2348    4.4533    2.8329 H         1 <0>         0.1242
     28 H3         -1.9826    4.4850    3.1683 H         1 <0>         0.1268
     29 H4         -1.0168    3.0575    3.6130 H         1 <0>         0.1229
     30 H5         -2.7016    1.7804    2.2896 H         1 <0>         0.1285
     31 H6         -3.4837    3.3210    1.8636 H         1 <0>         0.1318
     32 H7         -4.0056    1.5642    0.1923 H         1 <0>         0.1132
     33 H8         -3.0495    2.8771   -0.5379 H         1 <0>         0.0884
     34 H9         -1.9720    0.2007    0.4631 H         1 <0>         0.0824
     35 H10        -2.1435    0.6972   -1.2391 H         1 <0>         0.0966
     36 H11         0.1941    0.9999   -0.3954 H         1 <0>         0.1125
     37 H12        -0.5496    2.5412   -0.8877 H         1 <0>         0.0914
     38 H13         1.0795    3.7170    0.5218 H         1 <0>         0.0979
     39 H14         1.1307    3.4453    2.2802 H         1 <0>         0.0990
     40 H15         2.0183    1.1511    1.8823 H         1 <0>         0.0959
     41 H16         2.0078    1.4644    0.1302 H         1 <0>         0.0961
     42 H17         2.1332    2.4333    3.4951 H         1 <0>         0.1224
     43 H18         3.1233    2.4958    5.7430 H         1 <0>         0.1320
     44 H19         5.5598    2.7050    6.0173 H         1 <0>         0.1363
     45 H20         7.0127    2.8577    4.0355 H         1 <0>         0.1381
     46 H21         2.0724    3.2810   -0.8981 H         1 <0>         0.1306
     47 H22         5.4429    4.5065   -3.2241 H         1 <0>         0.1358
     48 H23         6.9356    3.9267   -1.3633 H         1 <0>         0.1409
     49 H24         4.4111    4.1800   -5.0704 H         1 <0>         0.0900
     50 H25         3.1288    5.2582   -5.6718 H         1 <0>         0.1152
     51 H26         4.2583    5.8301   -4.4206 H         1 <0>         0.0894
     52 H27        -1.4078    3.9913    0.8605 H         1 <0>         0.4234
@<TRIPOS>BOND
     1    1    2 1
     2    1   27 1
     3    1   28 1
     4    1   29 1
     5    2    7 1
     6    2    3 1
     7    2   52 1
     8    3    4 1
     9    3   30 1
    10    3   31 1
    11    4    5 1
    12    4   32 1
    13    4   33 1
    14    5    6 1
    15    5   34 1
    16    5   35 1
    17    6    7 1
    18    6   36 1
    19    6   37 1
    20    7    8 1
    21    7    9 1
    22    9   10 1
    23    9   38 1
    24    9   39 1
    25   10   11 1
    26   10   40 1
    27   10   41 1
    28   11   20 1
    29   11   12 1
    30   12   17 ar
    31   12   13 ar
    32   13   14 ar
    33   13   42 1
    34   14   15 ar
    35   14   43 1
    36   15   16 ar
    37   15   44 1
    38   16   17 ar
    39   16   45 1
    40   17   18 1
    41   18   19 1
    42   19   24 ar
    43   19   20 ar
    44   20   21 ar
    45   21   22 ar
    46   21   46 1
    47   22   23 ar
    48   22   25 1
    49   23   24 ar
    50   23   47 1
    51   24   48 1
    52   25   26 1
    53   26   49 1
    54   26   50 1
    55   26   51 1
@<TRIPOS>MOLECULE
ZINC01530697
   52    55     0     0     0
SMALL
USER_CHARGES

@<TRIPOS>ATOM
      1 C1          3.1751    3.9957    0.6546 C.3       1 <0>        -0.0543
      2 N1          2.2566    3.2865   -0.2461 N.4       1 <0>        -0.3805
      3 C2          2.9839    2.8604   -1.4478 C.3       1 <0>        -0.0069
      4 C3          2.0144    2.1926   -2.4254 C.3       1 <0>        -0.1470
      5 C4          1.3787    0.9728   -1.7522 C.3       1 <0>        -0.1373
      6 C5          0.6861    1.4179   -0.4609 C.3       1 <0>        -0.1459
      7 C6          1.7047    2.1144    0.4439 C.3       1 <0>         0.0306
      8 H1          2.5112    1.4212    0.6833 H         1 <0>         0.1397
      9 C7          1.0172    2.5607    1.7358 C.3       1 <0>        -0.1811
     10 C8          0.5179    1.3320    2.4986 C.3       1 <0>         0.1193
     11 N2         -0.2067    1.7623    3.6969 N.pl3     1 <0>        -0.5619
     12 C9         -1.5768    1.9795    3.5767 C.ar      1 <0>         0.1847
     13 C10        -2.1019    2.2735    2.3225 C.ar      1 <0>        -0.1647
     14 C11        -3.4579    2.4889    2.1663 C.ar      1 <0>        -0.0800
     15 C12        -4.3044    2.4133    3.2562 C.ar      1 <0>        -0.1280
     16 C13        -3.7934    2.1236    4.5080 C.ar      1 <0>        -0.0546
     17 C14        -2.4323    1.9087    4.6726 C.ar      1 <0>        -0.1489
     18 S1         -1.7980    1.5511    6.2764 S.3       1 <0>         0.0335
     19 C15        -0.0680    1.8478    6.1263 C.ar      1 <0>        -0.1558
     20 C16         0.5259    1.9174    4.8706 C.ar      1 <0>         0.2078
     21 C17         1.8931    2.1526    4.7792 C.ar      1 <0>        -0.1492
     22 C18         2.6556    2.3074    5.9289 C.ar      1 <0>        -0.0444
     23 C19         2.0545    2.2277    7.1777 C.ar      1 <0>        -0.1462
     24 C20         0.6983    2.0065    7.2715 C.ar      1 <0>        -0.0330
     25 S2          4.3878    2.6049    5.8031 S.3       1 <0>        -0.1153
     26 C21         4.9372    2.7342    7.5270 C.3       1 <0>        -0.1430
     27 H2          3.9104    3.2946    1.0493 H         1 <0>         0.1239
     28 H3          3.6855    4.7861    0.1044 H         1 <0>         0.1271
     29 H4          2.6108    4.4326    1.4786 H         1 <0>         0.1242
     30 H5          3.4384    3.7292   -1.9240 H         1 <0>         0.1320
     31 H6          3.7630    2.1513   -1.1681 H         1 <0>         0.1290
     32 H7          1.2349    2.9009   -2.7060 H         1 <0>         0.0879
     33 H8          2.5567    1.8754   -3.3161 H         1 <0>         0.1132
     34 H9          0.6455    0.5266   -2.4240 H         1 <0>         0.0963
     35 H10         2.1522    0.2416   -1.5175 H         1 <0>         0.0830
     36 H11        -0.1210    2.1101   -0.7007 H         1 <0>         0.0904
     37 H12         0.2788    0.5468    0.0525 H         1 <0>         0.1129
     38 H13         1.7276    3.1088    2.3548 H         1 <0>         0.0984
     39 H14         0.1728    3.2060    1.4937 H         1 <0>         0.0981
     40 H15        -0.1486    0.7534    1.8590 H         1 <0>         0.0974
     41 H16         1.3680    0.7151    2.7900 H         1 <0>         0.0952
     42 H17        -1.4463    2.3341    1.4664 H         1 <0>         0.1242
     43 H18        -3.8576    2.7167    1.1892 H         1 <0>         0.1322
     44 H19        -5.3639    2.5805    3.1303 H         1 <0>         0.1363
     45 H20        -4.4550    2.0649    5.3596 H         1 <0>         0.1380
     46 H21         2.3641    2.2154    3.8093 H         1 <0>         0.1289
     47 H22         2.6474    2.3466    8.0724 H         1 <0>         0.1358
     48 H23         0.2315    1.9456    8.2436 H         1 <0>         0.1410
     49 H24         4.7172    1.8031    8.0493 H         1 <0>         0.0901
     50 H25         6.0108    2.9206    7.5532 H         1 <0>         0.1152
     51 H26         4.4136    3.5566    8.0145 H         1 <0>         0.0895
     52 H27         1.5043    3.9040   -0.5121 H         1 <0>         0.4225
@<TRIPOS>BOND
     1    1    2 1
     2    1   27 1
     3    1   28 1
     4    1   29 1
     5    2    7 1
     6    2    3 1
     7    2   52 1
     8    3    4 1
     9    3   30 1
    10    3   31 1
    11    4    5 1
    12    4   32 1
    13    4   33 1
    14    5    6 1
    15    5   34 1
    16    5   35 1
    17    6    7 1
    18    6   36 1
    19    6   37 1
    20    7    8 1
    21    7    9 1
    22    9   10 1
    23    9   38 1
    24    9   39 1
    25   10   11 1
    26   10   40 1
    27   10   41 1
    28   11   20 1
    29   11   12 1
    30   12   17 ar
    31   12   13 ar
    32   13   14 ar
    33   13   42 1
    34   14   15 ar
    35   14   43 1
    36   15   16 ar
    37   15   44 1
    38   16   17 ar
    39   16   45 1
    40   17   18 1
    41   18   19 1
    42   19   24 ar
    43   19   20 ar
    44   20   21 ar
    45   21   22 ar
    46   21   46 1
    47   22   23 ar
    48   22   25 1
    49   23   24 ar
    50   23   47 1
    51   24   48 1
    52   25   26 1
    53   26   49 1
    54   26   50 1
    55   26   51 1
@<TRIPOS>MOLECULE
ZINC00000276
   49    49     0     0     0
SMALL
USER_CHARGES

@<TRIPOS>ATOM
      1 C1          2.1192    1.5840   -0.4817 C.3       1 <0>        -0.1543
      2 C2          2.8673    0.4737   -1.2224 C.3       1 <0>        -0.1445
      3 C3          1.8589   -0.5079   -1.8228 C.3       1 <0>        -0.0409
      4 N1          2.5776   -1.5878   -2.5121 N.4       1 <0>        -0.3645
      5 C4          3.2973   -1.0370   -3.6682 C.3       1 <0>        -0.0350
      6 C5          4.1623   -2.1303   -4.2986 C.3       1 <0>        -0.1857
      7 C6          1.6173   -2.6007   -2.9702 C.3       1 <0>         0.0027
      8 H1          2.1564   -3.4412   -3.4071 H         1 <0>         0.1610
      9 C7          0.7863   -3.0898   -1.7823 C.3       1 <0>        -0.1475
     10 C8          1.6970   -3.8072   -0.7838 C.3       1 <0>        -0.1728
     11 C9          0.7052   -1.9958   -4.0061 C.2       1 <0>         0.5121
     12 O1          0.6465   -0.7910   -4.1332 O.2       1 <0>        -0.5031
     13 N2         -0.0454   -2.7936   -4.7914 N.am      1 <0>        -0.6441
     14 C10        -0.8394   -2.2361   -5.7997 C.ar      1 <0>         0.1037
     15 C11        -0.5618   -2.5060   -7.1333 C.ar      1 <0>        -0.0748
     16 C12        -1.3474   -1.9541   -8.1261 C.ar      1 <0>        -0.1157
     17 C13        -2.4095   -1.1335   -7.7934 C.ar      1 <0>        -0.0939
     18 C14        -2.6884   -0.8624   -6.4664 C.ar      1 <0>        -0.1162
     19 C15        -1.9103   -1.4162   -5.4686 C.ar      1 <0>        -0.0600
     20 C16        -2.2193   -1.1260   -4.0224 C.3       1 <0>        -0.1137
     21 C17         0.5959   -3.3997   -7.4968 C.3       1 <0>        -0.1170
     22 H2          1.4692    2.1122   -1.1794 H         1 <0>         0.0677
     23 H3          1.5180    1.1476    0.3158 H         1 <0>         0.0655
     24 H4          2.8376    2.2834   -0.0540 H         1 <0>         0.0767
     25 H5          3.4686    0.9102   -2.0199 H         1 <0>         0.0850
     26 H6          3.5173   -0.0544   -0.5247 H         1 <0>         0.0813
     27 H7          1.2449   -0.9301   -1.0272 H         1 <0>         0.1287
     28 H8          1.2212    0.0162   -2.5346 H         1 <0>         0.1618
     29 H9          2.5794   -0.6728   -4.4031 H         1 <0>         0.1476
     30 H10         3.9328   -0.2137   -3.3420 H         1 <0>         0.1359
     31 H11         3.5202   -2.8871   -4.7491 H         1 <0>         0.0733
     32 H12         4.8002   -1.6916   -5.0659 H         1 <0>         0.1081
     33 H13         4.7829   -2.5910   -3.5300 H         1 <0>         0.0803
     34 H14         0.3127   -2.2377   -1.2948 H         1 <0>         0.0999
     35 H15         0.0192   -3.7793   -2.1348 H         1 <0>         0.1148
     36 H16         1.0905   -4.2619   -0.0006 H         1 <0>         0.0907
     37 H17         2.2636   -4.5819   -1.3004 H         1 <0>         0.0751
     38 H18         2.3857   -3.0889   -0.3390 H         1 <0>         0.0578
     39 H19        -0.0351   -3.7543   -4.6577 H         1 <0>         0.4154
     40 H20        -1.1318   -2.1633   -9.1635 H         1 <0>         0.1328
     41 H21        -3.0224   -0.7032   -8.5716 H         1 <0>         0.1326
     42 H22        -3.5184   -0.2209   -6.2097 H         1 <0>         0.1317
     43 H23        -1.7436   -0.1899   -3.7300 H         1 <0>         0.0780
     44 H24        -3.2981   -1.0419   -3.8912 H         1 <0>         0.0738
     45 H25        -1.8397   -1.9364   -3.4001 H         1 <0>         0.0548
     46 H26         0.2408   -4.4231   -7.6179 H         1 <0>         0.0782
     47 H27         1.0404   -3.0565   -8.4310 H         1 <0>         0.0763
     48 H28         1.3437   -3.3659   -6.7046 H         1 <0>         0.0573
     49 H29         3.2367   -2.0123   -1.8767 H         1 <0>         0.4231
@<TRIPOS>BOND
     1    1    2 1
     2    1   22 1
     3    1   23 1
     4    1   24 1
     5    2    3 1
     6    2   25 1
     7    2   26 1
     8    3    4 1
     9    3   27 1
    10    3   28 1
    11    4    5 1
    12    4    7 1
    13    4   49 1
    14    5    6 1
    15    5   29 1
    16    5   30 1
    17    6   31 1
    18    6   32 1
    19    6   33 1
    20    7    8 1
    21    7    9 1
    22    7   11 1
    23    9   10 1
    24    9   34 1
    25    9   35 1
    26   10   36 1
    27   10   37 1
    28   10   38 1
    29   11   12 2
    30   11   13 am
    31   13   14 1
    32   13   39 1
    33   14   19 ar
    34   14   15 ar
    35   15   16 ar
    36   15   21 1
    37   16   17 ar
    38   16   40 1
    39   17   18 ar
    40   17   41 1
    41   18   19 ar
    42   18   42 1
    43   19   20 1
    44   20   43 1
    45   20   44 1
    46   20   45 1
    47   21   46 1
    48   21   47 1
    49   21   48 1
@<TRIPOS>MOLECULE
ZINC00896998
   49    49     0     0     0
SMALL
USER_CHARGES
N-(2,6-dimethylphenyl)-2-(ethyl-propyl-amino)-butanamide
@<TRIPOS>ATOM
      1 C1          2.5478    4.4175    0.8851 C.3       1 <0>        -0.1545
      2 C2          1.3678    3.5079    1.2333 C.3       1 <0>        -0.1470
      3 C3          0.5376    4.1526    2.3450 C.3       1 <0>        -0.0105
      4 C4         -1.5983    3.2839    1.6060 C.3       1 <0>        -0.0318
      5 C5         -2.5415    2.0925    1.7842 C.3       1 <0>        -0.1891
      6 C6         -1.1963    3.6647    3.9632 C.3       1 <0>         0.0063
      7 H1         -2.2171    3.2862    4.0147 H         1 <0>         0.1605
      8 C7         -1.2112    5.1900    4.0817 C.3       1 <0>        -0.1421
      9 C8         -2.1460    5.7749    3.0210 C.3       1 <0>        -0.1788
     10 C9         -0.3866    3.0810    5.0922 C.2       1 <0>         0.5010
     11 O1          0.6958    2.5820    4.8675 O.2       1 <0>        -0.5039
     12 N1         -0.8652    3.1135    6.3517 N.am      1 <0>        -0.6439
     13 C10        -0.0843    2.6347    7.4095 C.ar      1 <0>         0.1069
     14 C11         0.3883    1.3290    7.3900 C.ar      1 <0>        -0.0627
     15 C12         1.1629    0.8610    8.4333 C.ar      1 <0>        -0.1147
     16 C13         1.4595    1.6878    9.5013 C.ar      1 <0>        -0.0976
     17 C14         0.9860    2.9868    9.5262 C.ar      1 <0>        -0.1134
     18 C15         0.2149    3.4624    8.4837 C.ar      1 <0>        -0.0792
     19 C16        -0.3007    4.8782    8.5116 C.3       1 <0>        -0.1181
     20 C17         0.0603    0.4253    6.2295 C.3       1 <0>        -0.1099
     21 H2          3.1393    3.9582    0.0931 H         1 <0>         0.0776
     22 H3          2.1740    5.3836    0.5458 H         1 <0>         0.0658
     23 H4          3.1707    4.5588    1.7684 H         1 <0>         0.0672
     24 H5          0.7450    3.3666    0.3500 H         1 <0>         0.0838
     25 H6          1.7416    2.5418    1.5726 H         1 <0>         0.0874
     26 H7          1.1605    4.2938    3.2283 H         1 <0>         0.1325
     27 H8          0.1638    5.1186    2.0057 H         1 <0>         0.1320
     28 H9         -2.1711    4.2103    1.6481 H         1 <0>         0.1462
     29 H10        -1.0977    3.2098    0.6406 H         1 <0>         0.1357
     30 H11        -3.2133    2.0297    0.9282 H         1 <0>         0.1100
     31 H12        -1.9580    1.1747    1.8562 H         1 <0>         0.0805
     32 H13        -3.1253    2.2243    2.6953 H         1 <0>         0.0773
     33 H14        -1.5639    5.4739    5.0732 H         1 <0>         0.1142
     34 H15        -0.2032    5.5761    3.9303 H         1 <0>         0.0999
     35 H16        -2.3558    6.8181    3.2571 H         1 <0>         0.0907
     36 H17        -1.6696    5.7124    2.0427 H         1 <0>         0.0663
     37 H18        -3.0785    5.2107    3.0077 H         1 <0>         0.0753
     38 H19        -1.7510    3.4689    6.5249 H         1 <0>         0.4154
     39 H20         1.5341   -0.1531    8.4169 H         1 <0>         0.1312
     40 H21         2.0619    1.3182   10.3179 H         1 <0>         0.1323
     41 H22         1.2191    3.6300   10.3619 H         1 <0>         0.1329
     42 H23        -1.2745    4.9006    9.0007 H         1 <0>         0.0772
     43 H24         0.3974    5.5083    9.0628 H         1 <0>         0.0768
     44 H25        -0.3978    5.2497    7.4915 H         1 <0>         0.0596
     45 H26         0.8796    0.4448    5.5109 H         1 <0>         0.0829
     46 H27        -0.0818   -0.5931    6.5910 H         1 <0>         0.0709
     47 H28        -0.8542    0.7706    5.7473 H         1 <0>         0.0491
     48 N2         -0.5853    3.2524    2.6819 N.4       1 <0>        -0.3793
     49 H29        -0.2281    2.2944    2.7758 H         1 <0>         0.4311
@<TRIPOS>BOND
     1    1    2 1
     2    1   21 1
     3    1   22 1
     4    1   23 1
     5    2    3 1
     6    2   24 1
     7    2   25 1
     8    3   26 1
     9    3   27 1
    10    3   48 1
    11    4    5 1
    12    4   28 1
    13    4   29 1
    14    4   48 1
    15    5   30 1
    16    5   31 1
    17    5   32 1
    18    6    7 1
    19    6    8 1
    20    6   10 1
    21    6   48 1
    22    8    9 1
    23    8   33 1
    24    8   34 1
    25    9   35 1
    26    9   36 1
    27    9   37 1
    28   10   11 2
    29   10   12 am
    30   12   13 1
    31   12   38 1
    32   13   18 ar
    33   13   14 ar
    34   14   15 ar
    35   14   20 1
    36   15   16 ar
    37   15   39 1
    38   16   17 ar
    39   16   40 1
    40   17   18 ar
    41   17   41 1
    42   18   19 1
    43   19   42 1
    44   19   43 1
    45   19   44 1
    46   20   45 1
    47   20   46 1
    48   20   47 1
    49   48   49 1
@<TRIPOS>MOLECULE
ZINC00113404
   39    40     0     0     0
SMALL
USER_CHARGES

@<TRIPOS>ATOM
      1 C1         -0.0539    1.4704    0.2993 C.3       1 <0>        -0.0478
      2 N1         -0.0295    0.0017    0.2882 N.4       1 <0>        -0.3865
      3 C2          0.5604   -0.4878    1.5413 C.3       1 <0>        -0.0539
      4 C3         -1.4006   -0.5099    0.1598 C.3       1 <0>        -0.0122
      5 C4         -1.3658   -2.0333    0.0229 C.3       1 <0>        -0.1440
      6 C5         -2.7938   -2.5661   -0.1108 C.3       1 <0>         0.0157
      7 H1         -3.3915   -2.2191    0.7321 H         1 <0>         0.1104
      8 C6         -3.3990   -2.0640   -1.3963 C.ar      1 <0>        -0.0932
      9 C7         -2.7600   -2.2998   -2.5992 C.ar      1 <0>        -0.1051
     10 C8         -3.3146   -1.8395   -3.7786 C.ar      1 <0>        -0.1071
     11 C9         -4.5095   -1.1427   -3.7551 C.ar      1 <0>        -0.0289
     12 C10        -5.1487   -0.9070   -2.5509 C.ar      1 <0>        -0.1048
     13 C11        -4.5960   -1.3727   -1.3727 C.ar      1 <0>        -0.0921
     14 Cl1        -5.2065   -0.5637   -5.2359 Cl        1 <0>        -0.0542
     15 C12        -2.7688   -4.0729   -0.1222 C.ar      1 <0>         0.1268
     16 C13        -1.7220   -4.7341   -0.7368 C.ar      1 <0>        -0.1747
     17 C14        -1.7085   -6.1203   -0.7417 C.ar      1 <0>        -0.0683
     18 C15        -2.7531   -6.7927   -0.1256 C.ar      1 <0>        -0.1649
     19 C16        -3.7656   -6.0639    0.4686 C.ar      1 <0>         0.1108
     20 N2         -3.7430   -4.7452    0.4587 N.ar      1 <0>        -0.4759
     21 H2          0.9634    1.8500    0.3946 H         1 <0>         0.1253
     22 H3         -0.4917    1.8336   -0.6305 H         1 <0>         0.1237
     23 H4         -0.6516    1.8175    1.1422 H         1 <0>         0.1229
     24 H5          1.5778   -0.1083    1.6365 H         1 <0>         0.1253
     25 H6         -0.0372   -0.1408    2.3842 H         1 <0>         0.1237
     26 H7          0.5785   -1.5776    1.5330 H         1 <0>         0.1240
     27 H8         -1.9744   -0.2377    1.0458 H         1 <0>         0.1344
     28 H9         -1.8690   -0.0763   -0.7237 H         1 <0>         0.1343
     29 H10        -0.7921   -2.3055   -0.8630 H         1 <0>         0.0938
     30 H11        -0.8974   -2.4670    0.9064 H         1 <0>         0.0978
     31 H12        -1.8270   -2.8434   -2.6175 H         1 <0>         0.1295
     32 H13        -2.8150   -2.0234   -4.7183 H         1 <0>         0.1376
     33 H14        -6.0814   -0.3628   -2.5319 H         1 <0>         0.1397
     34 H15        -5.0972   -1.1929   -0.4331 H         1 <0>         0.1368
     35 H16        -0.9248   -4.1778   -1.2074 H         1 <0>         0.1305
     36 H17        -0.9037   -6.6636   -1.2144 H         1 <0>         0.1392
     37 H18        -2.7752   -7.8723   -0.1106 H         1 <0>         0.1419
     38 H19        -4.5828   -6.5800    0.9505 H         1 <0>         0.1628
     39 H20         0.5237   -0.3196   -0.4921 H         1 <0>         0.4265
@<TRIPOS>BOND
     1    1    2 1
     2    1   21 1
     3    1   22 1
     4    1   23 1
     5    2    3 1
     6    2    4 1
     7    2   39 1
     8    3   24 1
     9    3   25 1
    10    3   26 1
    11    4    5 1
    12    4   27 1
    13    4   28 1
    14    5    6 1
    15    5   29 1
    16    5   30 1
    17    6    7 1
    18    6    8 1
    19    6   15 1
    20    8   13 ar
    21    8    9 ar
    22    9   10 ar
    23    9   31 1
    24   10   11 ar
    25   10   32 1
    26   11   12 ar
    27   11   14 1
    28   12   13 ar
    29   12   33 1
    30   13   34 1
    31   15   20 ar
    32   15   16 ar
    33   16   17 ar
    34   16   35 1
    35   17   18 ar
    36   17   36 1
    37   18   19 ar
    38   18   37 1
    39   19   20 ar
    40   19   38 1
@<TRIPOS>MOLECULE
ZINC00113410
   39    40     0     0     0
SMALL
USER_CHARGES

@<TRIPOS>ATOM
      1 C1          0.1393    1.3034   -0.7375 C.3       1 <0>        -0.0477
      2 N1          0.0864   -0.1636   -0.6820 N.4       1 <0>        -0.3864
      3 C2          1.0003   -0.6474    0.3614 C.3       1 <0>        -0.0540
      4 C3         -1.2835   -0.5928   -0.3705 C.3       1 <0>        -0.0137
      5 C4         -1.3670   -2.1192   -0.4352 C.3       1 <0>        -0.1449
      6 C5         -2.7938   -2.5661   -0.1108 C.3       1 <0>         0.0155
      7 H1         -3.0930   -2.1550    0.8534 H         1 <0>         0.1105
      8 C6         -2.8481   -4.0711   -0.0538 C.ar      1 <0>        -0.0868
      9 C7         -2.3965   -4.8198   -1.1246 C.ar      1 <0>        -0.1020
     10 C8         -2.4460   -6.2000   -1.0730 C.ar      1 <0>        -0.1077
     11 C9         -2.9476   -6.8324    0.0507 C.ar      1 <0>        -0.0275
     12 C10        -3.3994   -6.0826    1.1221 C.ar      1 <0>        -0.1051
     13 C11        -3.3441   -4.7025    1.0715 C.ar      1 <0>        -0.0885
     14 Cl1        -3.0106   -8.5660    0.1161 Cl        1 <0>        -0.0553
     15 C12        -3.7313   -2.0698   -1.1812 C.ar      1 <0>         0.1221
     16 C13        -3.3064   -2.0281   -2.4959 C.ar      1 <0>        -0.1833
     17 C14        -4.1766   -1.5699   -3.4728 C.ar      1 <0>        -0.0678
     18 C15        -5.4475   -1.1690   -3.0893 C.ar      1 <0>        -0.1657
     19 C16        -5.8018   -1.2390   -1.7555 C.ar      1 <0>         0.1123
     20 N2         -4.9493   -1.6855   -0.8536 N.ar      1 <0>        -0.4739
     21 H2          1.1558    1.6218   -0.9687 H         1 <0>         0.1259
     22 H3         -0.5388    1.6623   -1.5117 H         1 <0>         0.1225
     23 H4         -0.1599    1.7145    0.2266 H         1 <0>         0.1229
     24 H5          2.0168   -0.3290    0.1303 H         1 <0>         0.1255
     25 H6          0.7011   -0.2363    1.3256 H         1 <0>         0.1239
     26 H7          0.9611   -1.7359    0.4026 H         1 <0>         0.1253
     27 H8         -1.5507   -0.2565    0.6313 H         1 <0>         0.1349
     28 H9         -1.9734   -0.1601   -1.0950 H         1 <0>         0.1295
     29 H10        -1.0998   -2.4555   -1.4370 H         1 <0>         0.0942
     30 H11        -0.6771   -2.5518    0.2893 H         1 <0>         0.1027
     31 H12        -2.0053   -4.3260   -2.0019 H         1 <0>         0.1273
     32 H13        -2.0935   -6.7848   -1.9097 H         1 <0>         0.1373
     33 H14        -3.7913   -6.5757    1.9994 H         1 <0>         0.1398
     34 H15        -3.6924   -4.1171    1.9097 H         1 <0>         0.1363
     35 H16        -2.3089   -2.3481   -2.7585 H         1 <0>         0.1313
     36 H17        -3.8719   -1.5259   -4.5080 H         1 <0>         0.1392
     37 H18        -6.1513   -0.8062   -3.8237 H         1 <0>         0.1420
     38 H19        -6.7897   -0.9286   -1.4487 H         1 <0>         0.1633
     39 H20         0.3633   -0.5442   -1.5745 H         1 <0>         0.4262
@<TRIPOS>BOND
     1    1    2 1
     2    1   21 1
     3    1   22 1
     4    1   23 1
     5    2    3 1
     6    2    4 1
     7    2   39 1
     8    3   24 1
     9    3   25 1
    10    3   26 1
    11    4    5 1
    12    4   27 1
    13    4   28 1
    14    5    6 1
    15    5   29 1
    16    5   30 1
    17    6    7 1
    18    6    8 1
    19    6   15 1
    20    8   13 ar
    21    8    9 ar
    22    9   10 ar
    23    9   31 1
    24   10   11 ar
    25   10   32 1
    26   11   12 ar
    27   11   14 1
    28   12   13 ar
    29   12   33 1
    30   13   34 1
    31   15   20 ar
    32   15   16 ar
    33   16   17 ar
    34   16   35 1
    35   17   18 ar
    36   17   36 1
    37   18   19 ar
    38   18   37 1
    39   19   20 ar
    40   19   38 1
