@<TRIPOS>MOLECULE
ZINC72110942
   64    67     0     0     0
SMALL
USER_CHARGES

@<TRIPOS>ATOM
      1 C1         -1.4822    1.3177   -0.2780 C.3       1 <0>        -0.1152
      2 C2         -0.5094    0.1837   -0.0812 C.ar      1 <0>        -0.1438
      3 C3          0.0769   -0.4282   -1.1803 C.ar      1 <0>         0.1778
      4 C4          0.9737   -1.4730   -0.9955 C.ar      1 <0>        -0.1234
      5 C5          1.2817   -1.9032    0.2809 C.ar      1 <0>        -0.0855
      6 C6          0.6995   -1.2965    1.3769 C.ar      1 <0>        -0.1401
      7 C7         -0.1936   -0.2470    1.1991 C.ar      1 <0>         0.1605
      8 N1         -0.7784    0.3708    2.3100 N.am      1 <0>        -0.6698
      9 C8         -0.9762   -0.3298    3.4442 C.2       1 <0>         0.5101
     10 O1         -0.5711   -1.4697    3.5314 O.2       1 <0>        -0.5218
     11 C9         -1.7008    0.3031    4.6042 C.3       1 <0>        -0.1707
     12 N2         -0.2350    0.0061   -2.4724 N.pl3     1 <0>        -0.6230
     13 C10        -0.2166   -0.8882   -3.5250 C.ar      1 <0>         0.6269
     14 N3         -0.0219   -2.1848   -3.2945 N.ar      1 <0>        -0.6236
     15 C11        -0.0046   -3.0412   -4.3007 C.ar      1 <0>         0.4081
     16 N4         -0.1799   -2.6145   -5.5393 N.ar      1 <0>        -0.6332
     17 C12        -0.3752   -1.3197   -5.7776 C.ar      1 <0>         0.6314
     18 N5         -0.3987   -0.4563   -4.7680 N.ar      1 <0>        -0.6477
     19 N6         -0.5577   -0.8752   -7.0712 N.pl3     1 <0>        -0.5712
     20 C13        -0.7682    0.5520   -7.3497 C.3       1 <0>         0.1266
     21 C14        -2.0505    0.7100   -8.1728 C.3       1 <0>        -0.1309
     22 C15        -1.9605   -0.1678   -9.4232 C.3       1 <0>         0.0898
     23 C16        -1.8295   -1.6355   -9.0100 C.3       1 <0>        -0.1566
     24 C17        -0.5391   -1.8193   -8.1969 C.3       1 <0>         0.1268
     25 O2         -3.1415    0.0017  -10.2098 O.3       1 <0>        -0.3732
     26 C18        -2.9356   -0.1746  -11.6129 C.3       1 <0>         0.1043
     27 C19        -4.2396    0.0260  -12.3410 C.ar      1 <0>        -0.1084
     28 C20        -5.0813   -1.0493  -12.5583 C.ar      1 <0>        -0.0600
     29 C21        -6.2770   -0.8681  -13.2259 C.ar      1 <0>        -0.1255
     30 C22        -6.6333    0.3941  -13.6782 C.ar      1 <0>         0.1113
     31 C23        -5.7873    1.4714  -13.4586 C.ar      1 <0>        -0.1927
     32 C24        -4.5950    1.2860  -12.7858 C.ar      1 <0>        -0.0557
     33 O3         -7.8089    0.5748  -14.3356 O.3       1 <0>        -0.3103
     34 C25        -8.1105    1.9015  -14.7726 C.3       1 <0>         0.6042
     35 F1         -7.1160    2.3398  -15.6535 F         1 <0>        -0.1642
     36 F2         -9.3476    1.9073  -15.4259 F         1 <0>        -0.1295
     37 F3         -8.1633    2.7562  -13.6663 F         1 <0>        -0.1639
     38 H1         -0.9403    2.2633   -0.2908 H         1 <0>         0.0719
     39 H2         -2.0065    1.1865   -1.2245 H         1 <0>         0.0677
     40 H3         -2.2036    1.3234    0.5392 H         1 <0>         0.0683
     41 H4          1.4304   -1.9496   -1.8503 H         1 <0>         0.1402
     42 H5          1.9790   -2.7159    0.4221 H         1 <0>         0.1294
     43 H6          0.9418   -1.6356    2.3733 H         1 <0>         0.1482
     44 H7         -1.0416    1.3033    2.2638 H         1 <0>         0.4109
     45 H8         -1.9866    1.3218    4.3419 H         1 <0>         0.0781
     46 H9         -2.5943   -0.2770    4.8347 H         1 <0>         0.1004
     47 H10        -1.0455    0.3224    5.4750 H         1 <0>         0.1001
     48 H11        -0.4644    0.9354   -2.6295 H         1 <0>         0.4234
     49 H12         0.1537   -4.0924   -4.1105 H         1 <0>         0.2083
     50 H13        -0.8672    1.0968   -6.4107 H         1 <0>         0.1058
     51 H14         0.0786    0.9430   -7.9137 H         1 <0>         0.0715
     52 H15        -2.9076    0.4028   -7.5735 H         1 <0>         0.0763
     53 H16        -2.1672    1.7527   -8.4679 H         1 <0>         0.0861
     54 H17        -1.0890    0.1236  -10.0095 H         1 <0>         0.0651
     55 H18        -2.6887   -1.9206   -8.4028 H         1 <0>         0.0773
     56 H19        -1.7891   -2.2621   -9.9009 H         1 <0>         0.0805
     57 H20         0.3259   -1.6177   -8.8286 H         1 <0>         0.0711
     58 H21        -0.4871   -2.8397   -7.8171 H         1 <0>         0.1073
     59 H22        -2.2058    0.5534  -11.9673 H         1 <0>         0.0612
     60 H23        -2.5651   -1.1821  -11.8019 H         1 <0>         0.0616
     61 H24        -4.8035   -2.0317  -12.2060 H         1 <0>         0.1392
     62 H25        -6.9338   -1.7085  -13.3960 H         1 <0>         0.1419
     63 H26        -6.0624    2.4550  -13.8097 H         1 <0>         0.1358
     64 H27        -3.9381    2.1252  -12.6107 H         1 <0>         0.1347
@<TRIPOS>BOND
     1    1    2 1
     2    1   38 1
     3    1   39 1
     4    1   40 1
     5    2    7 ar
     6    2    3 ar
     7    3    4 ar
     8    3   12 1
     9    4    5 ar
    10    4   41 1
    11    5    6 ar
    12    5   42 1
    13    6    7 ar
    14    6   43 1
    15    7    8 1
    16    8    9 am
    17    8   44 1
    18    9   10 2
    19    9   11 1
    20   11   45 1
    21   11   46 1
    22   11   47 1
    23   12   13 1
    24   12   48 1
    25   13   18 ar
    26   13   14 ar
    27   14   15 ar
    28   15   16 ar
    29   15   49 1
    30   16   17 ar
    31   17   18 ar
    32   17   19 1
    33   19   24 1
    34   19   20 1
    35   20   21 1
    36   20   50 1
    37   20   51 1
    38   21   22 1
    39   21   52 1
    40   21   53 1
    41   22   23 1
    42   22   25 1
    43   22   54 1
    44   23   24 1
    45   23   55 1
    46   23   56 1
    47   24   57 1
    48   24   58 1
    49   25   26 1
    50   26   27 1
    51   26   59 1
    52   26   60 1
    53   27   32 ar
    54   27   28 ar
    55   28   29 ar
    56   28   61 1
    57   29   30 ar
    58   29   62 1
    59   30   31 ar
    60   30   33 1
    61   31   32 ar
    62   31   63 1
    63   32   64 1
    64   33   34 1
    65   34   35 1
    66   34   36 1
    67   34   37 1
@<TRIPOS>MOLECULE
ZINC00006785
   32    33     0     0     0
SMALL
USER_CHARGES

@<TRIPOS>ATOM
      1 C1         -0.0272    1.4478   -0.0765 C.ar      1 <0>        -0.0704
      2 C2          1.1687    2.1324   -0.0739 C.ar      1 <0>        -0.1422
      3 C3          2.3698    1.4363   -0.0228 C.ar      1 <0>         0.1014
      4 C4          2.3712    0.0479    0.0255 C.ar      1 <0>        -0.1239
      5 C5          1.1800   -0.6448    0.0233 C.ar      1 <0>        -0.0629
      6 C6         -0.0305    0.0513   -0.0276 C.ar      1 <0>        -0.0571
      7 C7         -1.3076   -0.6856   -0.0301 C.2       1 <0>         0.1214
      8 N1         -1.3085   -1.9823    0.0154 N.2       1 <0>        -0.2503
      9 N2         -2.5219   -2.6825    0.0130 N.am      1 <0>        -0.5857
     10 C8         -2.5229   -4.0295    0.0602 C.2       1 <0>         0.7344
     11 O1         -3.5761   -4.6372    0.0581 O.2       1 <0>        -0.5817
     12 N3         -1.3564   -4.7028    0.1098 N.am      1 <0>        -0.8485
     13 O2          3.5463    2.1151   -0.0204 O.3       1 <0>        -0.2534
     14 C9          3.8441    2.8721    1.0685 C.ar      1 <0>         0.1106
     15 C10         3.0248    2.8316    2.1874 C.ar      1 <0>        -0.1656
     16 C11         3.3287    3.6015    3.2934 C.ar      1 <0>        -0.1145
     17 C12         4.4501    4.4136    3.2855 C.ar      1 <0>         0.0686
     18 C13         5.2685    4.4554    2.1694 C.ar      1 <0>        -0.1149
     19 C14         4.9708    3.6816    1.0644 C.ar      1 <0>        -0.1137
     20 F1          4.7459    5.1663    4.3677 F         1 <0>        -0.1378
     21 H1         -0.9606    1.9899   -0.1118 H         1 <0>         0.1390
     22 H2          1.1722    3.2117   -0.1121 H         1 <0>         0.1375
     23 H3          3.3073   -0.4893    0.0644 H         1 <0>         0.1394
     24 H4          1.1821   -1.7242    0.0605 H         1 <0>         0.1426
     25 H5         -2.2423   -0.1460   -0.0698 H         1 <0>         0.1277
     26 H6         -3.3614   -2.1979   -0.0227 H         1 <0>         0.4041
     27 H7         -0.5162   -4.2180    0.1114 H         1 <0>         0.4079
     28 H8         -1.3571   -5.6722    0.1438 H         1 <0>         0.4165
     29 H9          2.1496    2.1989    2.1936 H         1 <0>         0.1399
     30 H10         2.6911    3.5703    4.1645 H         1 <0>         0.1407
     31 H11         6.1427    5.0895    2.1645 H         1 <0>         0.1460
     32 H12         5.6122    3.7104    0.1960 H         1 <0>         0.1449
@<TRIPOS>BOND
     1    1    6 ar
     2    1    2 ar
     3    1   21 1
     4    2    3 ar
     5    2   22 1
     6    3    4 ar
     7    3   13 1
     8    4    5 ar
     9    4   23 1
    10    5    6 ar
    11    5   24 1
    12    6    7 1
    13    7    8 2
    14    7   25 1
    15    8    9 1
    16    9   10 am
    17    9   26 1
    18   10   11 2
    19   10   12 am
    20   12   27 1
    21   12   28 1
    22   13   14 1
    23   14   19 ar
    24   14   15 ar
    25   15   16 ar
    26   15   29 1
    27   16   17 ar
    28   16   30 1
    29   17   18 ar
    30   17   20 1
    31   18   19 ar
    32   18   31 1
    33   19   32 1
@<TRIPOS>MOLECULE
ZINC13559818
   30    32     0     0     0
SMALL
USER_CHARGES
3-[4-(4-fluorophenoxy)phenyl]-1H-pyrazole
@<TRIPOS>ATOM
      1 C1         -1.1497    5.4510    0.0844 C.ar      1 <0>        -0.0775
      2 C2         -1.9628    6.5648    0.1025 C.ar      1 <0>        -0.1189
      3 C3         -3.3429    6.4192    0.0577 C.ar      1 <0>         0.0899
      4 C4         -3.9081    5.1528   -0.0107 C.ar      1 <0>        -0.1393
      5 C5         -3.0996    4.0358   -0.0348 C.ar      1 <0>        -0.0755
      6 C6         -1.7141    4.1790    0.0100 C.ar      1 <0>        -0.0139
      7 C7         -0.8415    2.9789   -0.0153 C.2       1 <0>         0.1096
      8 C8          0.5665    2.9770    0.0241 C.2       1 <0>        -0.2604
      9 C9          0.9801    1.6917   -0.0181 C.2       1 <0>         0.0625
     10 N1         -0.1144    0.9034   -0.0818 N.pl3     1 <0>        -0.4742
     11 H1         -0.1164   -0.0959   -0.1200 H         1 <0>         0.4490
     12 N2         -1.2464    1.7283   -0.0851 N.2       1 <0>        -0.2814
     13 O1         -4.1418    7.5179    0.0805 O.3       1 <0>        -0.2526
     14 C10        -4.9205    7.7181    1.1764 C.ar      1 <0>         0.1120
     15 C11        -4.7967    6.8839    2.2780 C.ar      1 <0>        -0.1658
     16 C12        -5.5852    7.0918    3.3930 C.ar      1 <0>        -0.1142
     17 C13        -6.5068    8.1251    3.4072 C.ar      1 <0>         0.0667
     18 C14        -6.6352    8.9552    2.3065 C.ar      1 <0>        -0.1151
     19 C15        -5.8441    8.7533    1.1922 C.ar      1 <0>        -0.1151
     20 F1         -7.2811    8.3238    4.4963 F         1 <0>        -0.1386
     21 H2         -0.0764    5.5647    0.1237 H         1 <0>         0.1387
     22 H3         -1.5258    7.5510    0.1553 H         1 <0>         0.1393
     23 H4         -4.9819    5.0424   -0.0454 H         1 <0>         0.1349
     24 H5         -3.5398    3.0510   -0.0880 H         1 <0>         0.1377
     25 H6          1.2023    3.8483    0.0784 H         1 <0>         0.1517
     26 H7          2.0059    1.3540   -0.0031 H         1 <0>         0.1806
     27 H8         -4.0810    6.0751    2.2655 H         1 <0>         0.1401
     28 H9         -5.4859    6.4453    4.2525 H         1 <0>         0.1401
     29 H10        -7.3539    9.7612    2.3193 H         1 <0>         0.1454
     30 H11        -5.9442    9.4012    0.3340 H         1 <0>         0.1445
@<TRIPOS>BOND
     1    1    6 ar
     2    1    2 ar
     3    1   21 1
     4    2    3 ar
     5    2   22 1
     6    3    4 ar
     7    3   13 1
     8    4    5 ar
     9    4   23 1
    10    5    6 ar
    11    5   24 1
    12    6    7 1
    13    7   12 2
    14    7    8 1
    15    8    9 2
    16    8   25 1
    17    9   10 1
    18    9   26 1
    19   10   11 1
    20   10   12 1
    21   13   14 1
    22   14   19 ar
    23   14   15 ar
    24   15   16 ar
    25   15   27 1
    26   16   17 ar
    27   16   28 1
    28   17   18 ar
    29   17   20 1
    30   18   19 ar
    31   18   29 1
    32   19   30 1
@<TRIPOS>MOLECULE
ZINC13559817
   30    32     0     0     0
SMALL
USER_CHARGES

@<TRIPOS>ATOM
      1 C1          3.3352    1.3633    3.5661 C.ar      1 <0>        -0.1531
      2 C2          3.4178   -0.0168    3.5458 C.ar      1 <0>        -0.0821
      3 C3          3.5016   -0.6873    2.3410 C.ar      1 <0>        -0.1943
      4 C4          3.5028    0.0254    1.1504 C.ar      1 <0>         0.1218
      5 C5          3.4198    1.4104    1.1736 C.ar      1 <0>        -0.1464
      6 C6          3.3362    2.0759    2.3812 C.ar      1 <0>        -0.0827
      7 O1          3.5855   -0.6316   -0.0361 O.3       1 <0>        -0.2600
      8 C7          3.6573   -1.9882   -0.0103 C.ar      1 <0>         0.0902
      9 C8          2.4934   -2.7444   -0.0460 C.ar      1 <0>        -0.1253
     10 C9          2.5633   -4.1215   -0.0200 C.ar      1 <0>        -0.0781
     11 C10         3.8036   -4.7539    0.0417 C.ar      1 <0>        -0.0123
     12 C11         4.9702   -3.9924    0.0769 C.ar      1 <0>        -0.0806
     13 C12         4.8946   -2.6157    0.0457 C.ar      1 <0>        -0.1246
     14 C13         3.8820   -6.2356    0.0703 C.2       1 <0>         0.1114
     15 C14         5.0619   -7.0019    0.1374 C.2       1 <0>        -0.2595
     16 C15         4.7090   -8.3059    0.1432 C.2       1 <0>         0.0623
     17 N1          3.3617   -8.3733    0.0824 N.pl3     1 <0>        -0.4718
     18 H1          2.8324   -9.1861    0.0718 H         1 <0>         0.4424
     19 N2          2.8609   -7.0658    0.0431 N.2       1 <0>        -0.2814
     20 H2          3.2653    1.8853    4.5090 H         1 <0>         0.1253
     21 H3          3.4172   -0.5711    4.4728 H         1 <0>         0.1259
     22 H4          3.5664   -1.7652    2.3257 H         1 <0>         0.1281
     23 H5          3.4208    1.9675    0.2484 H         1 <0>         0.1326
     24 H6          3.2712    3.1538    2.3998 H         1 <0>         0.1314
     25 H7          1.5325   -2.2538   -0.0937 H         1 <0>         0.1355
     26 H8          1.6576   -4.7093   -0.0470 H         1 <0>         0.1380
     27 H9          5.9327   -4.4799    0.1247 H         1 <0>         0.1373
     28 H10         5.7984   -2.0250    0.0692 H         1 <0>         0.1367
     29 H11         6.0697   -6.6157    0.1768 H         1 <0>         0.1520
     30 H12         5.3854   -9.1466    0.1879 H         1 <0>         0.1811
@<TRIPOS>BOND
     1    1    6 ar
     2    1    2 ar
     3    1   20 1
     4    2    3 ar
     5    2   21 1
     6    3    4 ar
     7    3   22 1
     8    4    5 ar
     9    4    7 1
    10    5    6 ar
    11    5   23 1
    12    6   24 1
    13    7    8 1
    14    8   13 ar
    15    8    9 ar
    16    9   10 ar
    17    9   25 1
    18   10   11 ar
    19   10   26 1
    20   11   12 ar
    21   11   14 1
    22   12   13 ar
    23   12   27 1
    24   13   28 1
    25   14   19 2
    26   14   15 1
    27   15   16 2
    28   15   29 1
    29   16   17 1
    30   16   30 1
    31   17   18 1
    32   17   19 1
