@<TRIPOS>MOLECULE
ZINC03812888
   72    73     0     0     0
SMALL
USER_CHARGES

@<TRIPOS>ATOM
      1 C1          0.4643    1.3329   -0.2411 C.3       1 <0>        -0.1747
      2 C2          0.0733   -0.1223    0.0241 C.3       1 <0>        -0.0830
      3 C3          0.8761   -0.6579    1.2114 C.3       1 <0>        -0.1834
      4 C4         -1.4212   -0.1988    0.3430 C.3       1 <0>         0.1004
      5 C5         -2.2237    0.3455   -0.8405 C.3       1 <0>        -0.1048
      6 C6         -1.9247   -0.4899   -2.0868 C.3       1 <0>        -0.1606
      7 C7         -2.7272    0.0544   -3.2703 C.3       1 <0>        -0.0091
      8 N1         -2.4402   -0.7477   -4.4670 N.4       1 <0>        -0.3873
      9 C8         -1.0302   -0.5789   -4.8430 C.3       1 <0>        -0.0587
     10 C9         -3.2986   -0.3021   -5.5727 C.3       1 <0>        -0.0075
     11 C10        -3.0896   -1.2169   -6.7811 C.3       1 <0>        -0.0949
     12 C11        -3.9702   -0.7598   -7.9154 C.ar      1 <0>        -0.1088
     13 C12        -5.2517   -1.2635   -8.0399 C.ar      1 <0>        -0.1027
     14 C13        -6.0634   -0.8473   -9.0787 C.ar      1 <0>        -0.1717
     15 C14        -5.5933    0.0770   -9.9977 C.ar      1 <0>         0.1180
     16 C15        -4.3036    0.5843   -9.8722 C.ar      1 <0>         0.1059
     17 C16        -3.4969    0.1666   -8.8259 C.ar      1 <0>        -0.1655
     18 O1         -3.8377    1.4917  -10.7717 O.3       1 <0>        -0.3008
     19 C17        -2.5044    1.9690  -10.5804 C.3       1 <0>         0.0253
     20 O2         -6.3903    0.4871  -11.0204 O.3       1 <0>        -0.3014
     21 C18        -7.7019   -0.0764  -11.0869 C.3       1 <0>         0.0227
     22 C19        -1.7993   -1.6000    0.5892 C.1       1 <0>         0.2041
     23 N2         -2.0910   -2.6813    0.7792 N.1       1 <0>        -0.4101
     24 C20        -1.7157    0.6241    1.5707 C.ar      1 <0>        -0.0960
     25 C21        -0.6924    1.2978    2.2112 C.ar      1 <0>        -0.1135
     26 C22        -0.9573    2.0540    3.3377 C.ar      1 <0>        -0.1756
     27 C23        -2.2510    2.1383    3.8270 C.ar      1 <0>         0.1175
     28 C24        -3.2811    1.4605    3.1820 C.ar      1 <0>         0.1030
     29 C25        -3.0094    0.7082    2.0505 C.ar      1 <0>        -0.1606
     30 O3         -4.5524    1.5402    3.6584 O.3       1 <0>        -0.3010
     31 C26        -5.5587    0.8184    2.9454 C.3       1 <0>         0.0257
     32 O4         -2.5133    2.8814    4.9353 O.3       1 <0>        -0.3026
     33 C27        -1.4070    3.5493    5.5454 C.3       1 <0>         0.0232
     34 H1          1.5417    1.4471   -0.1220 H         1 <0>         0.0714
     35 H2          0.1801    1.6060   -1.2573 H         1 <0>         0.0573
     36 H3         -0.0504    1.9823    0.4671 H         1 <0>         0.0866
     37 H4          0.2874   -0.7230   -0.8599 H         1 <0>         0.0818
     38 H5          1.8959   -0.2762    1.1621 H         1 <0>         0.0724
     39 H6          0.4106   -0.3318    2.1415 H         1 <0>         0.0837
     40 H7          0.8938   -1.7472    1.1763 H         1 <0>         0.0565
     41 H8         -3.2884    0.2910   -0.6133 H         1 <0>         0.0854
     42 H9         -1.9437    1.3831   -1.0228 H         1 <0>         0.1040
     43 H10        -0.8600   -0.4354   -2.3140 H         1 <0>         0.0984
     44 H11        -2.2047   -1.5275   -1.9045 H         1 <0>         0.0867
     45 H12        -3.7919   -0.0001   -3.0431 H         1 <0>         0.1322
     46 H13        -2.4473    1.0920   -3.4526 H         1 <0>         0.1347
     47 H14        -0.8339    0.4722   -5.0545 H         1 <0>         0.1249
     48 H15        -0.3932   -0.9095   -4.0226 H         1 <0>         0.1255
     49 H16        -0.8172   -1.1741   -5.7310 H         1 <0>         0.1260
     50 H17        -4.3424   -0.3437   -5.2617 H         1 <0>         0.1327
     51 H18        -3.0405    0.7218   -5.8431 H         1 <0>         0.1319
     52 H19        -2.0457   -1.1754   -7.0921 H         1 <0>         0.0944
     53 H20        -3.3477   -2.2408   -6.5107 H         1 <0>         0.0957
     54 H21        -5.6193   -1.9840   -7.3242 H         1 <0>         0.1290
     55 H22        -7.0638   -1.2429   -9.1741 H         1 <0>         0.1420
     56 H23        -2.4969    0.5616   -8.7240 H         1 <0>         0.1364
     57 H24        -2.2588    2.6850  -11.3647 H         1 <0>         0.1070
     58 H25        -2.4286    2.4553   -9.6078 H         1 <0>         0.0539
     59 H26        -1.8088    1.1309  -10.6227 H         1 <0>         0.0563
     60 H27        -7.6275   -1.1590  -11.1896 H         1 <0>         0.0592
     61 H28        -8.2478    0.1654  -10.1750 H         1 <0>         0.0584
     62 H29        -8.2308    0.3347  -11.9468 H         1 <0>         0.1080
     63 H30         0.3164    1.2329    1.8308 H         1 <0>         0.1604
     64 H31        -0.1560    2.5788    3.8366 H         1 <0>         0.1426
     65 H32        -3.8077    0.1843    1.5459 H         1 <0>         0.1325
     66 H33        -6.5240    0.9669    3.4294 H         1 <0>         0.1055
     67 H34        -5.6074    1.1811    1.9187 H         1 <0>         0.0536
     68 H35        -5.3123   -0.2434    2.9444 H         1 <0>         0.0538
     69 H36        -0.6644    2.8139    5.8548 H         1 <0>         0.0583
     70 H37        -0.9593    4.2388    4.8297 H         1 <0>         0.0585
     71 H38        -1.7536    4.1046    6.4169 H         1 <0>         0.1058
     72 H39        -2.6218   -1.7207   -4.2712 H         1 <0>         0.4250
@<TRIPOS>BOND
     1    1    2 1
     2    1   34 1
     3    1   35 1
     4    1   36 1
     5    2    3 1
     6    2    4 1
     7    2   37 1
     8    3   38 1
     9    3   39 1
    10    3   40 1
    11    4    5 1
    12    4   22 1
    13    4   24 1
    14    5    6 1
    15    5   41 1
    16    5   42 1
    17    6    7 1
    18    6   43 1
    19    6   44 1
    20    7    8 1
    21    7   45 1
    22    7   46 1
    23    8    9 1
    24    8   10 1
    25    8   72 1
    26    9   47 1
    27    9   48 1
    28    9   49 1
    29   10   11 1
    30   10   50 1
    31   10   51 1
    32   11   12 1
    33   11   52 1
    34   11   53 1
    35   12   17 ar
    36   12   13 ar
    37   13   14 ar
    38   13   54 1
    39   14   15 ar
    40   14   55 1
    41   15   16 ar
    42   15   20 1
    43   16   17 ar
    44   16   18 1
    45   17   56 1
    46   18   19 1
    47   19   57 1
    48   19   58 1
    49   19   59 1
    50   20   21 1
    51   21   60 1
    52   21   61 1
    53   21   62 1
    54   22   23 3
    55   24   29 ar
    56   24   25 ar
    57   25   26 ar
    58   25   63 1
    59   26   27 ar
    60   26   64 1
    61   27   28 ar
    62   27   32 1
    63   28   29 ar
    64   28   30 1
    65   29   65 1
    66   30   31 1
    67   31   66 1
    68   31   67 1
    69   31   68 1
    70   32   33 1
    71   33   69 1
    72   33   70 1
    73   33   71 1
@<TRIPOS>MOLECULE
ZINC00537944
   56    59     0     0     0
SMALL
USER_CHARGES
1-[4-(benzothiazol-2-yl-methyl-amino)-1-piperidyl]-3-(3,4-difluorophenoxy)-propan-2-ol
@<TRIPOS>ATOM
      1 C1         10.3099    8.3066    0.1308 C.3       1 <0>         0.0837
      2 N1          9.4710    8.5649   -1.0422 N.pl3     1 <0>        -0.5642
      3 C2          9.9405    9.3656   -2.0634 C.2       1 <0>         0.3962
      4 N2          9.3456    9.7045   -3.1845 N.2       1 <0>        -0.5759
      5 C3          9.9295   10.5069   -4.1017 C.ar      1 <0>         0.1135
      6 C4          9.4020   10.9481   -5.3371 C.ar      1 <0>        -0.0806
      7 C5         10.1347   11.7625   -6.1606 C.ar      1 <0>        -0.0978
      8 C6         11.4116   12.1816   -5.8162 C.ar      1 <0>        -0.1051
      9 C7         11.9587   11.7689   -4.6149 C.ar      1 <0>        -0.0562
     10 C8         11.2322   10.9534   -3.7841 C.ar      1 <0>        -0.1581
     11 S1         11.5157   10.1988   -2.2008 S.3       1 <0>        -0.0003
     12 C9          8.1338    7.9733   -1.1309 C.3       1 <0>         0.1489
     13 C10         7.2815    8.4561    0.0459 C.3       1 <0>        -0.1615
     14 C11         5.9057    7.7889   -0.0193 C.3       1 <0>        -0.0013
     15 C12         6.8400    5.8379   -1.1116 C.3       1 <0>         0.0044
     16 C13         8.2436    6.4469   -1.0790 C.3       1 <0>        -0.1613
     17 C14         4.7596    5.6607    0.1135 C.3       1 <0>        -0.0386
     18 C15         4.0915    6.0017    1.4470 C.3       1 <0>         0.0844
     19 H1          3.9409    7.0792    1.5129 H         1 <0>         0.1360
     20 C16         2.7394    5.2913    1.5365 C.3       1 <0>         0.0267
     21 O1          2.0642    5.7005    2.7276 O.3       1 <0>        -0.2943
     22 C17         0.8396    5.1580    2.9602 C.ar      1 <0>         0.1415
     23 C18         0.2998    4.2513    2.0597 C.ar      1 <0>        -0.1910
     24 C19        -0.9451    3.7004    2.2960 C.ar      1 <0>        -0.0825
     25 C20        -1.6548    4.0524    3.4309 C.ar      1 <0>         0.0417
     26 C21        -1.1174    4.9585    4.3324 C.ar      1 <0>         0.1156
     27 C22         0.1290    5.5112    4.0974 C.ar      1 <0>        -0.1555
     28 F1         -1.8109    5.3020    5.4398 F         1 <0>        -0.1144
     29 F2         -2.8717    3.5125    3.6607 F         1 <0>        -0.1217
     30 O2          4.9280    5.5710    2.5227 O.3       1 <0>        -0.5428
     31 H2         10.9143    7.4165   -0.0437 H         1 <0>         0.0695
     32 H3         10.9636    9.1612    0.3053 H         1 <0>         0.0818
     33 H4          9.6759    8.1500    1.0035 H         1 <0>         0.0844
     34 H5          8.4107   10.6399   -5.6351 H         1 <0>         0.1300
     35 H6          9.7086   12.0851   -7.0991 H         1 <0>         0.1360
     36 H7         11.9727   12.8231   -6.4795 H         1 <0>         0.1413
     37 H8         12.9514   12.0867   -4.3322 H         1 <0>         0.1346
     38 H9          7.6643    8.2731   -2.0679 H         1 <0>         0.1201
     39 H10         7.1640    9.5384   -0.0097 H         1 <0>         0.1195
     40 H11         7.7708    8.1903    0.9829 H         1 <0>         0.0953
     41 H12         5.4113    8.0663   -0.9502 H         1 <0>         0.1364
     42 H13         5.3013    8.1196    0.8253 H         1 <0>         0.1353
     43 H14         6.9141    4.7517   -1.0604 H         1 <0>         0.1349
     44 H15         6.3412    6.1245   -2.0374 H         1 <0>         0.1360
     45 H16         8.8136    6.0937   -1.9383 H         1 <0>         0.1194
     46 H17         8.7481    6.1494   -0.1597 H         1 <0>         0.0943
     47 H18         4.8995    4.5821    0.0425 H         1 <0>         0.1392
     48 H19         4.1271    5.9998   -0.7069 H         1 <0>         0.1479
     49 H20         2.8964    4.2129    1.5600 H         1 <0>         0.0814
     50 H21         2.1341    5.5515    0.6681 H         1 <0>         0.0864
     51 H22         0.8529    3.9756    1.1740 H         1 <0>         0.1423
     52 H23        -1.3627    2.9911    1.5969 H         1 <0>         0.1544
     53 H24         0.5481    6.2173    4.7990 H         1 <0>         0.1576
     54 H25         5.1049    4.6204    2.5270 H         1 <0>         0.3908
     55 N3          6.0792    6.3229    0.0597 N.4       1 <0>        -0.3910
     56 H26         6.6017    6.0950    0.9137 H         1 <0>         0.4326
@<TRIPOS>BOND
     1    1    2 1
     2    1   31 1
     3    1   32 1
     4    1   33 1
     5    2    3 1
     6    2   12 1
     7    3   11 1
     8    3    4 2
     9    4    5 1
    10    5   10 ar
    11    5    6 ar
    12    6    7 ar
    13    6   34 1
    14    7    8 ar
    15    7   35 1
    16    8    9 ar
    17    8   36 1
    18    9   10 ar
    19    9   37 1
    20   10   11 1
    21   12   16 1
    22   12   13 1
    23   12   38 1
    24   13   14 1
    25   13   39 1
    26   13   40 1
    27   14   41 1
    28   14   42 1
    29   14   55 1
    30   15   16 1
    31   15   43 1
    32   15   44 1
    33   15   55 1
    34   16   45 1
    35   16   46 1
    36   17   18 1
    37   17   47 1
    38   17   48 1
    39   17   55 1
    40   18   19 1
    41   18   20 1
    42   18   30 1
    43   20   21 1
    44   20   49 1
    45   20   50 1
    46   21   22 1
    47   22   27 ar
    48   22   23 ar
    49   23   24 ar
    50   23   51 1
    51   24   25 ar
    52   24   52 1
    53   25   26 ar
    54   25   29 1
    55   26   27 ar
    56   26   28 1
    57   27   53 1
    58   30   54 1
    59   55   56 1
@<TRIPOS>MOLECULE
ZINC13733884
   60    62     0     0     0
SMALL
USER_CHARGES
N-[3-[(2R,6R)-2,6-dimethyl-1-piperidyl]propyl]-2,2-diphenyl-acetamide
@<TRIPOS>ATOM
      1 C1          1.0848    2.4595    1.5700 C.3       1 <0>        -0.1849
      2 C2          0.4400    2.8538    2.9003 C.3       1 <0>         0.0271
      3 H1         -0.6446    2.7940    2.8100 H         1 <0>         0.1396
      4 C3          0.8435    4.2861    3.2578 C.3       1 <0>        -0.1407
      5 C4          0.2124    4.6693    4.5992 C.3       1 <0>        -0.1401
      6 C5          0.6633    3.6719    5.6699 C.3       1 <0>        -0.1413
      7 C6          0.2650    2.2574    5.2425 C.3       1 <0>         0.0276
      8 H2          0.5974    1.5433    5.9960 H         1 <0>         0.1346
      9 C7          0.6470    0.5396    3.5800 C.3       1 <0>        -0.0127
     10 C8          1.3938   -0.3859    4.5426 C.3       1 <0>        -0.1614
     11 C9          1.1361   -1.8427    4.1524 C.3       1 <0>         0.1249
     12 N1          1.8511   -2.7290    5.0741 N.am      1 <0>        -0.7335
     13 C10         1.7701   -4.0658    4.9227 C.2       1 <0>         0.5277
     14 O1          1.1053   -4.5350    4.0234 O.2       1 <0>        -0.5133
     15 C11         2.5056   -4.9774    5.8708 C.3       1 <0>        -0.0218
     16 C12         2.0171   -4.7400    7.2765 C.ar      1 <0>        -0.0829
     17 C13         0.6620   -4.7557    7.5492 C.ar      1 <0>        -0.1101
     18 C14         0.2140   -4.5422    8.8394 C.ar      1 <0>        -0.1148
     19 C15         1.1208   -4.3040    9.8553 C.ar      1 <0>        -0.1135
     20 C16         2.4756   -4.2831    9.5817 C.ar      1 <0>        -0.1146
     21 C17         2.9237   -4.5009    8.2922 C.ar      1 <0>        -0.1093
     22 C18         2.2518   -6.4123    5.4865 C.ar      1 <0>        -0.0770
     23 C19         0.9554   -6.8776    5.3697 C.ar      1 <0>        -0.0824
     24 C20         0.7226   -8.1927    5.0129 C.ar      1 <0>        -0.1216
     25 C21         1.7862   -9.0448    4.7817 C.ar      1 <0>        -0.1113
     26 C22         3.0827   -8.5808    4.9035 C.ar      1 <0>        -0.1207
     27 C23         3.3155   -7.2646    5.2561 C.ar      1 <0>        -0.1085
     28 C24        -1.2562    2.1771    5.1002 C.3       1 <0>        -0.1820
     29 H3          0.6953    1.4932    1.2498 H         1 <0>         0.0835
     30 H4          2.1654    2.3920    1.6959 H         1 <0>         0.0796
     31 H5          0.8531    3.2124    0.8166 H         1 <0>         0.1058
     32 H6          1.9289    4.3500    3.3348 H         1 <0>         0.0876
     33 H7          0.4924    4.9673    2.4826 H         1 <0>         0.1114
     34 H8         -0.8738    4.6432    4.5114 H         1 <0>         0.0837
     35 H9          0.5312    5.6733    4.8793 H         1 <0>         0.0949
     36 H10         0.1834    3.9142    6.6181 H         1 <0>         0.1112
     37 H11         1.7458    3.7260    5.7849 H         1 <0>         0.0871
     38 H12        -0.4219    0.3329    3.6329 H         1 <0>         0.1361
     39 H13         1.0004    0.3679    2.5633 H         1 <0>         0.1372
     40 H14         2.4627   -0.1792    4.4897 H         1 <0>         0.0940
     41 H15         1.0404   -0.2142    5.5593 H         1 <0>         0.0932
     42 H16         0.0672   -2.0495    4.2053 H         1 <0>         0.0774
     43 H17         1.4895   -2.0145    3.1356 H         1 <0>         0.0785
     44 H18         2.3828   -2.3537    5.7934 H         1 <0>         0.4039
     45 H19         3.5745   -4.7707    5.8179 H         1 <0>         0.1131
     46 H20        -0.0466   -4.9381    6.7548 H         1 <0>         0.1205
     47 H21        -0.8444   -4.5589    9.0533 H         1 <0>         0.1246
     48 H22         0.7707   -4.1346   10.8629 H         1 <0>         0.1253
     49 H23         3.1840   -4.0970   10.3754 H         1 <0>         0.1268
     50 H24         3.9822   -4.4845    8.0784 H         1 <0>         0.1254
     51 H25         0.1244   -6.2129    5.5540 H         1 <0>         0.1178
     52 H26        -0.2903   -8.5551    4.9174 H         1 <0>         0.1231
     53 H27         1.6043  -10.0729    4.5055 H         1 <0>         0.1242
     54 H28         3.9137   -9.2465    4.7228 H         1 <0>         0.1252
     55 H29         4.3284   -6.9021    5.3513 H         1 <0>         0.1212
     56 H30        -1.5401    1.1695    4.7967 H         1 <0>         0.0795
     57 H31        -1.7236    2.4139    6.0560 H         1 <0>         0.1052
     58 H32        -1.5888    2.8909    4.3464 H         1 <0>         0.0835
     59 N2          0.9242    1.9409    3.9574 N.4       1 <0>        -0.3872
     60 H33         1.9380    2.0631    4.0643 H         1 <0>         0.4236
@<TRIPOS>BOND
     1    1    2 1
     2    1   29 1
     3    1   30 1
     4    1   31 1
     5    2    3 1
     6    2    4 1
     7    2   59 1
     8    4    5 1
     9    4   32 1
    10    4   33 1
    11    5    6 1
    12    5   34 1
    13    5   35 1
    14    6    7 1
    15    6   36 1
    16    6   37 1
    17    7    8 1
    18    7   28 1
    19    7   59 1
    20    9   10 1
    21    9   38 1
    22    9   39 1
    23    9   59 1
    24   10   11 1
    25   10   40 1
    26   10   41 1
    27   11   12 1
    28   11   42 1
    29   11   43 1
    30   12   13 am
    31   12   44 1
    32   13   14 2
    33   13   15 1
    34   15   16 1
    35   15   22 1
    36   15   45 1
    37   16   21 ar
    38   16   17 ar
    39   17   18 ar
    40   17   46 1
    41   18   19 ar
    42   18   47 1
    43   19   20 ar
    44   19   48 1
    45   20   21 ar
    46   20   49 1
    47   21   50 1
    48   22   27 ar
    49   22   23 ar
    50   23   24 ar
    51   23   51 1
    52   24   25 ar
    53   24   52 1
    54   25   26 ar
    55   25   53 1
    56   26   27 ar
    57   26   54 1
    58   27   55 1
    59   28   56 1
    60   28   57 1
    61   28   58 1
    62   59   60 1
@<TRIPOS>MOLECULE
ZINC13733890
   60    62     0     0     0
SMALL
USER_CHARGES

@<TRIPOS>ATOM
      1 C1          0.6967   -2.2500   -0.0015 C.3       1 <0>        -0.1851
      2 C2          0.0143   -1.5173    1.1553 C.3       1 <0>         0.0224
      3 H1          0.4532   -1.8409    2.0991 H         1 <0>         0.1356
      4 C3         -1.4813   -1.8405    1.1516 C.3       1 <0>        -0.1402
      5 C4         -2.1598   -1.1053    2.3111 C.3       1 <0>        -0.1386
      6 C5         -1.8902    0.3963    2.1779 C.3       1 <0>        -0.1402
      7 C6         -0.3794    0.6367    2.1436 C.3       1 <0>         0.0225
      8 H2          0.0680    0.2667    3.0661 H         1 <0>         0.1354
      9 N1          0.2057   -0.0705    0.9981 N.4       1 <0>        -0.3759
     10 C7          1.6424    0.2267    0.9236 C.3       1 <0>        -0.0165
     11 C8          2.3414   -0.3191    2.1704 C.3       1 <0>        -0.1625
     12 C9          3.8127    0.1003    2.1550 C.3       1 <0>         0.1245
     13 N2          4.4820   -0.4223    3.3488 N.am      1 <0>        -0.7334
     14 C10         5.7918   -0.1761    3.5492 C.2       1 <0>         0.5276
     15 O1          6.4164    0.4781    2.7413 O.2       1 <0>        -0.5128
     16 C11         6.4803   -0.7138    4.7773 C.3       1 <0>        -0.0216
     17 C12         7.9295   -0.3006    4.7621 C.ar      1 <0>        -0.0775
     18 C13         8.9217   -1.2558    4.8799 C.ar      1 <0>        -0.1084
     19 C14        10.2511   -0.8769    4.8660 C.ar      1 <0>        -0.1208
     20 C15        10.5881    0.4572    4.7339 C.ar      1 <0>        -0.1111
     21 C16         9.5958    1.4124    4.6152 C.ar      1 <0>        -0.1218
     22 C17         8.2666    1.0329    4.6248 C.ar      1 <0>        -0.0818
     23 C18         5.8130   -0.1604    6.0100 C.ar      1 <0>        -0.0827
     24 C19         5.6093    1.2012    6.1335 C.ar      1 <0>        -0.1100
     25 C20         4.9973    1.7088    7.2643 C.ar      1 <0>        -0.1148
     26 C21         4.5885    0.8546    8.2714 C.ar      1 <0>        -0.1135
     27 C22         4.7914   -0.5072    8.1475 C.ar      1 <0>        -0.1146
     28 C23         5.3996   -1.0151    7.0148 C.ar      1 <0>        -0.1095
     29 C24        -0.1051    2.1360    2.0101 C.3       1 <0>        -0.1839
     30 H3          1.7624   -2.0209    0.0014 H         1 <0>         0.0826
     31 H4          0.5558   -3.3245    0.1154 H         1 <0>         0.1057
     32 H5          0.2581   -1.9267   -0.9455 H         1 <0>         0.0820
     33 H6         -1.9213   -1.5170    0.2083 H         1 <0>         0.0881
     34 H7         -1.6218   -2.9149    1.2700 H         1 <0>         0.1115
     35 H8         -3.2340   -1.2870    2.2791 H         1 <0>         0.0958
     36 H9         -1.7560   -1.4656    3.2573 H         1 <0>         0.0810
     37 H10        -2.3387    0.7663    1.2559 H         1 <0>         0.0883
     38 H11        -2.3229    0.9208    3.0298 H         1 <0>         0.1114
     39 H12         2.0650   -0.2428    0.0353 H         1 <0>         0.1374
     40 H13         1.7879    1.3055    0.8685 H         1 <0>         0.1377
     41 H14         1.8588    0.0811    3.0620 H         1 <0>         0.0935
     42 H15         2.2738   -1.4070    2.1779 H         1 <0>         0.0958
     43 H16         4.2953   -0.2999    1.2634 H         1 <0>         0.0787
     44 H17         3.8803    1.1882    2.1475 H         1 <0>         0.0773
     45 H18         3.9824   -0.9456    3.9950 H         1 <0>         0.4034
     46 H19         6.4127   -1.8016    4.7848 H         1 <0>         0.1129
     47 H20         8.6584   -2.2981    4.9831 H         1 <0>         0.1211
     48 H21        11.0263   -1.6231    4.9587 H         1 <0>         0.1252
     49 H22        11.6267    0.7534    4.7237 H         1 <0>         0.1242
     50 H23         9.8592    2.4547    4.5124 H         1 <0>         0.1232
     51 H24         7.4914    1.7787    4.5283 H         1 <0>         0.1179
     52 H25         5.9287    1.8686    5.3467 H         1 <0>         0.1205
     53 H26         4.8388    2.7727    7.3611 H         1 <0>         0.1246
     54 H27         4.1110    1.2512    9.1552 H         1 <0>         0.1253
     55 H28         4.4724   -1.1745    8.9344 H         1 <0>         0.1268
     56 H29         5.5548   -2.0793    6.9163 H         1 <0>         0.1253
     57 H30        -0.6412    2.6744    2.7916 H         1 <0>         0.1058
     58 H31         0.9646    2.3199    2.1104 H         1 <0>         0.0829
     59 H32        -0.4432    2.4816    1.0332 H         1 <0>         0.0811
     60 H33        -0.2437    0.2368    0.1486 H         1 <0>         0.4221
@<TRIPOS>BOND
     1    1    2 1
     2    1   30 1
     3    1   31 1
     4    1   32 1
     5    2    3 1
     6    2    9 1
     7    2    4 1
     8    4    5 1
     9    4   33 1
    10    4   34 1
    11    5    6 1
    12    5   35 1
    13    5   36 1
    14    6    7 1
    15    6   37 1
    16    6   38 1
    17    7    8 1
    18    7    9 1
    19    7   29 1
    20    9   10 1
    21    9   60 1
    22   10   11 1
    23   10   39 1
    24   10   40 1
    25   11   12 1
    26   11   41 1
    27   11   42 1
    28   12   13 1
    29   12   43 1
    30   12   44 1
    31   13   14 am
    32   13   45 1
    33   14   15 2
    34   14   16 1
    35   16   17 1
    36   16   23 1
    37   16   46 1
    38   17   22 ar
    39   17   18 ar
    40   18   19 ar
    41   18   47 1
    42   19   20 ar
    43   19   48 1
    44   20   21 ar
    45   20   49 1
    46   21   22 ar
    47   21   50 1
    48   22   51 1
    49   23   28 ar
    50   23   24 ar
    51   24   25 ar
    52   24   52 1
    53   25   26 ar
    54   25   53 1
    55   26   27 ar
    56   26   54 1
    57   27   28 ar
    58   27   55 1
    59   28   56 1
    60   29   57 1
    61   29   58 1
    62   29   59 1
@<TRIPOS>MOLECULE
ZINC13733893
   60    62     0     0     0
SMALL
USER_CHARGES
N-[3-[(2S,6S)-2,6-dimethyl-1-piperidyl]propyl]-2,2-diphenyl-acetamide
@<TRIPOS>ATOM
      1 C1          5.7509   -0.2752   -4.4154 C.3       1 <0>        -0.1847
      2 C2          4.6800    0.3814   -5.2889 C.3       1 <0>         0.0272
      3 H1          4.7639    1.4655   -5.2128 H         1 <0>         0.1395
      4 C3          4.8785   -0.0444   -6.7454 C.3       1 <0>        -0.1407
      5 C4          3.7928    0.5989   -7.6126 C.3       1 <0>        -0.1401
      6 C5          2.4166    0.1831   -7.0854 C.3       1 <0>        -0.1414
      7 C6          2.2895    0.6023   -5.6191 C.3       1 <0>         0.0275
      8 H2          1.3162    0.2950   -5.2366 H         1 <0>         0.1347
      9 C7          3.1765    0.2291   -3.3977 C.3       1 <0>        -0.0114
     10 C8          1.8861   -0.4307   -2.9073 C.3       1 <0>        -0.1611
     11 C9          1.7733   -0.2654   -1.3905 C.3       1 <0>         0.1246
     12 N1          0.5377   -0.8972   -0.9209 N.am      1 <0>        -0.7335
     13 C10         0.2261   -0.8760    0.3902 C.2       1 <0>         0.5277
     14 O1          0.9686   -0.3339    1.1812 O.2       1 <0>        -0.5134
     15 C11        -1.0448   -1.5260    0.8732 C.3       1 <0>        -0.0216
     16 C12        -2.2280   -0.8720    0.2072 C.ar      1 <0>        -0.0833
     17 C13        -2.3557    0.5043    0.2215 C.ar      1 <0>        -0.1096
     18 C14        -3.4387    1.1044   -0.3932 C.ar      1 <0>        -0.1150
     19 C15        -4.3987    0.3277   -1.0143 C.ar      1 <0>        -0.1133
     20 C16        -4.2737   -1.0490   -1.0241 C.ar      1 <0>        -0.1148
     21 C17        -3.1885   -1.6489   -0.4132 C.ar      1 <0>        -0.1090
     22 C18        -1.1559   -1.3631    2.3672 C.ar      1 <0>        -0.0777
     23 C19        -1.0552   -0.1067    2.9349 C.ar      1 <0>        -0.0813
     24 C20        -1.1615    0.0432    4.3050 C.ar      1 <0>        -0.1220
     25 C21        -1.3595   -1.0643    5.1082 C.ar      1 <0>        -0.1111
     26 C22        -1.4550   -2.3213    4.5409 C.ar      1 <0>        -0.1210
     27 C23        -1.3530   -2.4707    3.1705 C.ar      1 <0>        -0.1083
     28 C24         2.4230    2.1225   -5.5101 C.3       1 <0>        -0.1820
     29 H3          5.5696   -1.3488   -4.3637 H         1 <0>         0.0793
     30 H4          6.7346   -0.0932   -4.8482 H         1 <0>         0.1056
     31 H5          5.7114    0.1487   -3.4119 H         1 <0>         0.0835
     32 H6          4.8084   -1.1296   -6.8201 H         1 <0>         0.0876
     33 H7          5.8599    0.2820   -7.0894 H         1 <0>         0.1113
     34 H8          3.9043    0.2639   -8.6438 H         1 <0>         0.0947
     35 H9          3.8866    1.6840   -7.5699 H         1 <0>         0.0837
     36 H10         2.3078   -0.8985   -7.1655 H         1 <0>         0.0870
     37 H11         1.6387    0.6715   -7.6723 H         1 <0>         0.1112
     38 H12         3.1191    1.3053   -3.2341 H         1 <0>         0.1361
     39 H13         4.0246   -0.1774   -2.8467 H         1 <0>         0.1365
     40 H14         1.9030   -1.4917   -3.1569 H         1 <0>         0.0930
     41 H15         1.0303    0.0423   -3.3890 H         1 <0>         0.0943
     42 H16         1.7564    0.7955   -1.1409 H         1 <0>         0.0778
     43 H17         2.6290   -0.7384   -0.9087 H         1 <0>         0.0782
     44 H18        -0.0561   -1.3308   -1.5536 H         1 <0>         0.4039
     45 H19        -1.0279   -2.5869    0.6236 H         1 <0>         0.1130
     46 H20        -1.6075    1.1110    0.7101 H         1 <0>         0.1203
     47 H21        -3.5361    2.1800   -0.3858 H         1 <0>         0.1245
     48 H22        -5.2462    0.7964   -1.4923 H         1 <0>         0.1253
     49 H23        -5.0238   -1.6559   -1.5094 H         1 <0>         0.1268
     50 H24        -3.0908   -2.7244   -0.4209 H         1 <0>         0.1254
     51 H25        -0.8968    0.7581    2.3077 H         1 <0>         0.1180
     52 H26        -1.0873    1.0253    4.7481 H         1 <0>         0.1231
     53 H27        -1.4399   -0.9475    6.1788 H         1 <0>         0.1242
     54 H28        -1.6096   -3.1866    5.1685 H         1 <0>         0.1251
     55 H29        -1.4276   -3.4528    2.7273 H         1 <0>         0.1212
     56 H30         3.3965    2.4301   -5.8920 H         1 <0>         0.0835
     57 H31         1.6362    2.5992   -6.0946 H         1 <0>         0.1051
     58 H32         2.3315    2.4214   -4.4658 H         1 <0>         0.0794
     59 N2          3.3475   -0.0695   -4.8346 N.4       1 <0>        -0.3872
     60 H33         3.2733   -1.0838   -4.9754 H         1 <0>         0.4236
@<TRIPOS>BOND
     1    1    2 1
     2    1   29 1
     3    1   30 1
     4    1   31 1
     5    2    3 1
     6    2    4 1
     7    2   59 1
     8    4    5 1
     9    4   32 1
    10    4   33 1
    11    5    6 1
    12    5   34 1
    13    5   35 1
    14    6    7 1
    15    6   36 1
    16    6   37 1
    17    7    8 1
    18    7   28 1
    19    7   59 1
    20    9   10 1
    21    9   38 1
    22    9   39 1
    23    9   59 1
    24   10   11 1
    25   10   40 1
    26   10   41 1
    27   11   12 1
    28   11   42 1
    29   11   43 1
    30   12   13 am
    31   12   44 1
    32   13   14 2
    33   13   15 1
    34   15   16 1
    35   15   22 1
    36   15   45 1
    37   16   21 ar
    38   16   17 ar
    39   17   18 ar
    40   17   46 1
    41   18   19 ar
    42   18   47 1
    43   19   20 ar
    44   19   48 1
    45   20   21 ar
    46   20   49 1
    47   21   50 1
    48   22   27 ar
    49   22   23 ar
    50   23   24 ar
    51   23   51 1
    52   24   25 ar
    53   24   52 1
    54   25   26 ar
    55   25   53 1
    56   26   27 ar
    57   26   54 1
    58   27   55 1
    59   28   56 1
    60   28   57 1
    61   28   58 1
    62   59   60 1
@<TRIPOS>MOLECULE
ZINC05161166
   34    36     0     0     0
SMALL
USER_CHARGES
5-amino-2-(2,6-dimethylphenyl)-isoindoline-1,3-dione
@<TRIPOS>ATOM
      1 C1          2.4568    3.9321    0.0002 C.3       1 <0>        -0.1174
      2 C2          1.1607    3.1631    0.0080 C.ar      1 <0>        -0.0587
      3 C3          1.1762    1.7820    0.0004 C.ar      1 <0>        -0.1192
      4 C4         -0.0126    1.0758    0.0080 C.ar      1 <0>        -0.0942
      5 C5         -1.2201    1.7494    0.0174 C.ar      1 <0>        -0.1192
      6 C6         -1.2420    3.1304    0.0307 C.ar      1 <0>        -0.0589
      7 C7         -0.0501    3.8423    0.0232 C.ar      1 <0>         0.1107
      8 N1         -0.0691    5.2436    0.0304 N.am      1 <0>        -0.5286
      9 C8         -0.0907    6.0099   -1.0748 C.2       1 <0>         0.5798
     10 O1         -0.0971    5.6023   -2.2193 O.2       1 <0>        -0.4602
     11 C9         -0.1059    7.4270   -0.6666 C.ar      1 <0>        -0.2073
     12 C10        -0.1296    8.6322   -1.3554 C.ar      1 <0>         0.0139
     13 C11        -0.1392    9.8241   -0.6556 C.ar      1 <0>        -0.1858
     14 C12        -0.1251    9.8238    0.7348 C.ar      1 <0>         0.2474
     15 C13        -0.1008    8.6187    1.4381 C.ar      1 <0>        -0.1216
     16 C14        -0.0915    7.4225    0.7449 C.ar      1 <0>        -0.0852
     17 C15        -0.0739    5.9988    1.1437 C.2       1 <0>         0.5737
     18 O2         -0.0630    5.5815    2.2842 O.2       1 <0>        -0.4526
     19 N2         -0.1349   11.0295    1.4274 N.pl3     1 <0>        -0.8595
     20 C16        -2.5585    3.8638    0.0468 C.3       1 <0>        -0.1174
     21 H1          2.7598    4.1230   -1.0293 H         1 <0>         0.0773
     22 H2          2.3199    4.8801    0.5204 H         1 <0>         0.0596
     23 H3          3.2280    3.3493    0.5039 H         1 <0>         0.0765
     24 H4          2.1178    1.2532   -0.0111 H         1 <0>         0.1324
     25 H5          0.0021   -0.0041    0.0020 H         1 <0>         0.1314
     26 H6         -2.1471    1.1952    0.0184 H         1 <0>         0.1324
     27 H7         -0.1410    8.6385   -2.4353 H         1 <0>         0.1428
     28 H8         -0.1573   10.7613   -1.1919 H         1 <0>         0.1406
     29 H9         -0.0899    8.6204    2.5180 H         1 <0>         0.1413
     30 H10        -0.1515   11.8684    0.9407 H         1 <0>         0.4070
     31 H11        -0.1252   11.0317    2.3974 H         1 <0>         0.4058
     32 H12        -2.8855    4.0458   -0.9770 H         1 <0>         0.0773
     33 H13        -3.3042    3.2605    0.5646 H         1 <0>         0.0766
     34 H14        -2.4379    4.8155    0.5643 H         1 <0>         0.0594
@<TRIPOS>BOND
     1    1    2 1
     2    1   21 1
     3    1   22 1
     4    1   23 1
     5    2    7 ar
     6    2    3 ar
     7    3    4 ar
     8    3   24 1
     9    4    5 ar
    10    4   25 1
    11    5    6 ar
    12    5   26 1
    13    6    7 ar
    14    6   20 1
    15    7    8 1
    16    8   17 am
    17    8    9 am
    18    9   10 2
    19    9   11 1
    20   11   16 ar
    21   11   12 ar
    22   12   13 ar
    23   12   27 1
    24   13   14 ar
    25   13   28 1
    26   14   15 ar
    27   14   19 1
    28   15   16 ar
    29   15   29 1
    30   16   17 1
    31   17   18 2
    32   19   30 1
    33   19   31 1
    34   20   32 1
    35   20   33 1
    36   20   34 1
@<TRIPOS>MOLECULE
ZINC19362693
   65    68     0     0     0
SMALL
USER_CHARGES

@<TRIPOS>ATOM
      1 C1          0.1921    1.4077   -0.4246 C.3       1 <0>         0.0181
      2 O1          0.3166   -0.0048   -0.6019 O.3       1 <0>        -0.2942
      3 C2          0.8515   -0.7118    0.4294 C.ar      1 <0>         0.1591
      4 C3          1.2424   -0.0597    1.5893 C.ar      1 <0>        -0.2013
      5 C4          1.7865   -0.7772    2.6378 C.ar      1 <0>        -0.0393
      6 C5          1.9434   -2.1469    2.5352 C.ar      1 <0>        -0.2114
      7 C6          1.5551   -2.8064    1.3791 C.ar      1 <0>         0.1374
      8 C7          1.0017   -2.0893    0.3247 C.ar      1 <0>         0.0515
      9 O2          0.6141   -2.7336   -0.8097 O.3       1 <0>        -0.3154
     10 C8          1.5927   -2.8766   -1.8411 C.3       1 <0>         0.0373
     11 O3          1.7106   -4.1537    1.2788 O.3       1 <0>        -0.3395
     12 C9          0.6213   -4.9671    1.7191 C.3       1 <0>         0.0321
     13 C10         2.5377   -2.9242    3.6813 C.3       1 <0>         0.0577
     14 N1          3.9541   -3.1984    3.4047 N.4       1 <0>        -0.3851
     15 C11         4.6986   -1.9329    3.3639 C.3       1 <0>        -0.0031
     16 C12         6.1707   -2.2166    3.0571 C.3       1 <0>         0.0256
     17 N2          6.7238   -3.0969    4.0960 N.3       1 <0>        -0.5307
     18 C13         5.9726   -4.3582    4.1656 C.3       1 <0>         0.0248
     19 C14         4.5021   -4.0569    4.4632 C.3       1 <0>        -0.0007
     20 C15         8.1532   -3.3474    3.8676 C.3       1 <0>         0.1821
     21 C16         8.8926   -2.0349    3.8247 C.ar      1 <0>        -0.1079
     22 C17         8.6156   -1.0553    4.7599 C.ar      1 <0>        -0.0654
     23 C18         9.2934    0.1485    4.7218 C.ar      1 <0>        -0.1561
     24 C19        10.2501    0.3732    3.7465 C.ar      1 <0>         0.1121
     25 C20        10.5266   -0.6088    2.8103 C.ar      1 <0>        -0.1509
     26 C21         9.8514   -1.8138    2.8536 C.ar      1 <0>        -0.0778
     27 F1         10.9130    1.5498    3.7081 F         1 <0>        -0.1332
     28 C22         8.6997   -4.1955    4.9869 C.ar      1 <0>        -0.1077
     29 C23         8.3667   -3.9077    6.2974 C.ar      1 <0>        -0.0644
     30 C24         8.8669   -4.6850    7.3247 C.ar      1 <0>        -0.1560
     31 C25         9.7020   -5.7525    7.0410 C.ar      1 <0>         0.1123
     32 C26        10.0348   -6.0397    5.7281 C.ar      1 <0>        -0.1509
     33 C27         9.5291   -5.2642    4.7021 C.ar      1 <0>        -0.0781
     34 F2         10.1919   -6.5128    8.0445 F         1 <0>        -0.1331
     35 H1          1.1776    1.8406   -0.2527 H         1 <0>         0.0635
     36 H2         -0.2475    1.8488   -1.3192 H         1 <0>         0.1135
     37 H3         -0.4488    1.6110    0.4333 H         1 <0>         0.0652
     38 H4          1.1219    1.0103    1.6732 H         1 <0>         0.1499
     39 H5          2.0904   -0.2664    3.5395 H         1 <0>         0.1450
     40 H6          1.1545   -3.4066   -2.6868 H         1 <0>         0.1022
     41 H7          1.9270   -1.8906   -2.1640 H         1 <0>         0.0499
     42 H8          2.4431   -3.4415   -1.4594 H         1 <0>         0.0484
     43 H9          0.8754   -6.0185    1.5846 H         1 <0>         0.1069
     44 H10         0.4256   -4.7725    2.7736 H         1 <0>         0.0502
     45 H11        -0.2680   -4.7306    1.1349 H         1 <0>         0.0647
     46 H12         2.4528   -2.3413    4.5984 H         1 <0>         0.1385
     47 H13         2.0015   -3.8659    3.7985 H         1 <0>         0.1328
     48 H14         4.2826   -1.2916    2.5868 H         1 <0>         0.1328
     49 H15         4.6184   -1.4328    4.3291 H         1 <0>         0.1382
     50 H16         6.2524   -2.7043    2.0858 H         1 <0>         0.0622
     51 H17         6.7262   -1.2789    3.0415 H         1 <0>         0.1262
     52 H18         6.0510   -4.8813    3.2125 H         1 <0>         0.0635
     53 H19         6.3835   -4.9830    4.9586 H         1 <0>         0.1271
     54 H20         4.4229   -3.5460    5.4228 H         1 <0>         0.1389
     55 H21         3.9404   -4.9902    4.5011 H         1 <0>         0.1356
     56 H22         8.2836   -3.8690    2.9194 H         1 <0>         0.0722
     57 H23         7.8691   -1.2306    5.5204 H         1 <0>         0.1385
     58 H24         9.0766    0.9139    5.4524 H         1 <0>         0.1390
     59 H25        11.2725   -0.4345    2.0489 H         1 <0>         0.1403
     60 H26        10.0701   -2.5815    2.1262 H         1 <0>         0.1328
     61 H27         7.7157   -3.0748    6.5185 H         1 <0>         0.1382
     62 H28         8.6069   -4.4598    8.3485 H         1 <0>         0.1389
     63 H29        10.6863   -6.8719    5.5057 H         1 <0>         0.1403
     64 H30         9.7850   -5.4908    3.6776 H         1 <0>         0.1326
     65 H31         4.0384   -3.6666    2.5149 H         1 <0>         0.4237
@<TRIPOS>BOND
     1    1    2 1
     2    1   35 1
     3    1   36 1
     4    1   37 1
     5    2    3 1
     6    3    8 ar
     7    3    4 ar
     8    4    5 ar
     9    4   38 1
    10    5    6 ar
    11    5   39 1
    12    6    7 ar
    13    6   13 1
    14    7    8 ar
    15    7   11 1
    16    8    9 1
    17    9   10 1
    18   10   40 1
    19   10   41 1
    20   10   42 1
    21   11   12 1
    22   12   43 1
    23   12   44 1
    24   12   45 1
    25   13   14 1
    26   13   46 1
    27   13   47 1
    28   14   19 1
    29   14   15 1
    30   14   65 1
    31   15   16 1
    32   15   48 1
    33   15   49 1
    34   16   17 1
    35   16   50 1
    36   16   51 1
    37   17   18 1
    38   17   20 1
    39   18   19 1
    40   18   52 1
    41   18   53 1
    42   19   54 1
    43   19   55 1
    44   20   21 1
    45   20   28 1
    46   20   56 1
    47   21   26 ar
    48   21   22 ar
    49   22   23 ar
    50   22   57 1
    51   23   24 ar
    52   23   58 1
    53   24   25 ar
    54   24   27 1
    55   25   26 ar
    56   25   59 1
    57   26   60 1
    58   28   33 ar
    59   28   29 ar
    60   29   30 ar
    61   29   61 1
    62   30   31 ar
    63   30   62 1
    64   31   32 ar
    65   31   34 1
    66   32   33 ar
    67   32   63 1
    68   33   64 1
@<TRIPOS>MOLECULE
ZINC19362693
   64    67     0     0     0
SMALL
USER_CHARGES

@<TRIPOS>ATOM
      1 C1          0.2704    1.4556    0.4791 C.3       1 <0>         0.0241
      2 O1          0.3870    0.0399    0.6348 O.3       1 <0>        -0.3048
      3 C2         -0.7596   -0.6868    0.5522 C.ar      1 <0>         0.1246
      4 C3         -1.9699   -0.0504    0.3206 C.ar      1 <0>        -0.2037
      5 C4         -3.1358   -0.7879    0.2371 C.ar      1 <0>        -0.0652
      6 C5         -3.1008   -2.1621    0.3839 C.ar      1 <0>        -0.1267
      7 C6         -1.8950   -2.8060    0.6157 C.ar      1 <0>         0.1435
      8 C7         -0.7194   -2.0685    0.6943 C.ar      1 <0>         0.0408
      9 O2          0.4670   -2.6973    0.9161 O.3       1 <0>        -0.3203
     10 C8          0.8635   -2.8729    2.2777 C.3       1 <0>         0.0391
     11 O3         -1.8618   -4.1578    0.7609 O.3       1 <0>        -0.3180
     12 C9         -1.6745   -4.9332   -0.4247 C.3       1 <0>         0.0390
     13 C10        -4.3752   -2.9613    0.2924 C.3       1 <0>         0.1081
     14 N1         -4.8487   -3.2844    1.6450 N.3       1 <0>        -0.5270
     15 C11        -5.2529   -2.0692    2.3658 C.3       1 <0>         0.0586
     16 C12        -5.6633   -2.4387    3.7932 C.3       1 <0>         0.0581
     17 N2         -6.7642   -3.4111    3.7474 N.3       1 <0>        -0.5290
     18 C13        -6.3600   -4.6263    3.0266 C.3       1 <0>         0.0583
     19 C14        -5.9496   -4.2568    1.5992 C.3       1 <0>         0.0612
     20 C15        -7.2377   -3.7342    5.0999 C.3       1 <0>         0.1707
     21 C16        -7.6653   -2.4690    5.7981 C.ar      1 <0>        -0.0893
     22 C17        -8.4250   -1.5311    5.1240 C.ar      1 <0>        -0.0614
     23 C18        -8.8180   -0.3707    5.7634 C.ar      1 <0>        -0.1565
     24 C19        -8.4507   -0.1476    7.0796 C.ar      1 <0>         0.1005
     25 C20        -7.6897   -1.0876    7.7537 C.ar      1 <0>        -0.1535
     26 C21        -7.3023   -2.2497    7.1139 C.ar      1 <0>        -0.0821
     27 F1         -8.8340    0.9867    7.7055 F         1 <0>        -0.1397
     28 C22        -8.4087   -4.6786    5.0100 C.ar      1 <0>        -0.0891
     29 C23        -9.4122   -4.4485    4.0874 C.ar      1 <0>        -0.0607
     30 C24       -10.4863   -5.3141    4.0036 C.ar      1 <0>        -0.1565
     31 C25       -10.5570   -6.4121    4.8442 C.ar      1 <0>         0.1006
     32 C26        -9.5514   -6.6415    5.7678 C.ar      1 <0>        -0.1536
     33 C27        -8.4756   -5.7774    5.8462 C.ar      1 <0>        -0.0821
     34 F2        -11.6068   -7.2587    4.7635 F         1 <0>        -0.1397
     35 H1          1.2559    1.9131    0.5666 H         1 <0>         0.1030
     36 H2         -0.1486    1.6800   -0.5018 H         1 <0>         0.0577
     37 H3         -0.3849    1.8536    1.2539 H         1 <0>         0.0568
     38 H4         -2.0014    1.0231    0.2057 H         1 <0>         0.1362
     39 H5         -4.0767   -0.2893    0.0570 H         1 <0>         0.1311
     40 H6          1.8245   -3.3861    2.3130 H         1 <0>         0.0927
     41 H7          0.9540   -1.8988    2.7583 H         1 <0>         0.0440
     42 H8          0.1145   -3.4678    2.8004 H         1 <0>         0.0488
     43 H9         -1.6673   -5.9927   -0.1685 H         1 <0>         0.0952
     44 H10        -2.4882   -4.7334   -1.1218 H         1 <0>         0.0441
     45 H11        -0.7250   -4.6650   -0.8880 H         1 <0>         0.0506
     46 H12        -5.1339   -2.3770   -0.2282 H         1 <0>         0.0443
     47 H13        -4.1869   -3.8839   -0.2567 H         1 <0>         0.0828
     48 H14        -4.4172   -1.3701    2.3971 H         1 <0>         0.0799
     49 H15        -6.0961   -1.6059    1.8533 H         1 <0>         0.0417
     50 H16        -4.8122   -2.8771    4.3143 H         1 <0>         0.0445
     51 H17        -5.9910   -1.5429    4.3207 H         1 <0>         0.0824
     52 H18        -5.5169   -5.0896    3.5390 H         1 <0>         0.0460
     53 H19        -7.1957   -5.3254    2.9953 H         1 <0>         0.0831
     54 H20        -6.8007   -3.8184    1.0781 H         1 <0>         0.0425
     55 H21        -5.6219   -5.1526    1.0717 H         1 <0>         0.0801
     56 H22        -6.4329   -4.2061    5.6636 H         1 <0>         0.0625
     57 H23        -8.7111   -1.7052    4.0973 H         1 <0>         0.1389
     58 H24        -9.4113    0.3620    5.2365 H         1 <0>         0.1354
     59 H25        -7.4023   -0.9145    8.7802 H         1 <0>         0.1358
     60 H26        -6.7125   -2.9852    7.6409 H         1 <0>         0.1309
     61 H27        -9.3570   -3.5918    3.4320 H         1 <0>         0.1386
     62 H28       -11.2703   -5.1340    3.2830 H         1 <0>         0.1353
     63 H29        -9.6057   -7.4974    6.4242 H         1 <0>         0.1358
     64 H30        -7.6889   -5.9586    6.5635 H         1 <0>         0.1309
@<TRIPOS>BOND
     1    1    2 1
     2    1   35 1
     3    1   36 1
     4    1   37 1
     5    2    3 1
     6    3    8 ar
     7    3    4 ar
     8    4    5 ar
     9    4   38 1
    10    5    6 ar
    11    5   39 1
    12    6    7 ar
    13    6   13 1
    14    7    8 ar
    15    7   11 1
    16    8    9 1
    17    9   10 1
    18   10   40 1
    19   10   41 1
    20   10   42 1
    21   11   12 1
    22   12   43 1
    23   12   44 1
    24   12   45 1
    25   13   14 1
    26   13   46 1
    27   13   47 1
    28   14   19 1
    29   14   15 1
    30   15   16 1
    31   15   48 1
    32   15   49 1
    33   16   17 1
    34   16   50 1
    35   16   51 1
    36   17   18 1
    37   17   20 1
    38   18   19 1
    39   18   52 1
    40   18   53 1
    41   19   54 1
    42   19   55 1
    43   20   21 1
    44   20   28 1
    45   20   56 1
    46   21   26 ar
    47   21   22 ar
    48   22   23 ar
    49   22   57 1
    50   23   24 ar
    51   23   58 1
    52   24   25 ar
    53   24   27 1
    54   25   26 ar
    55   25   59 1
    56   26   60 1
    57   28   33 ar
    58   28   29 ar
    59   29   30 ar
    60   29   61 1
    61   30   31 ar
    62   30   62 1
    63   31   32 ar
    64   31   34 1
    65   32   33 ar
    66   32   63 1
    67   33   64 1
@<TRIPOS>MOLECULE
ZINC19362693
   65    68     0     0     0
SMALL
USER_CHARGES

@<TRIPOS>ATOM
      1 C1         -0.0173    1.4248    0.0099 C.3       1 <0>         0.0222
      2 O1          0.0021   -0.0041    0.0020 O.3       1 <0>        -0.3011
      3 C2          0.6062   -0.6075   -1.0565 C.ar      1 <0>         0.1348
      4 C3          1.1731    0.1602   -2.0627 C.ar      1 <0>        -0.2036
      5 C4          1.7869   -0.4521   -3.1391 C.ar      1 <0>        -0.0662
      6 C5          1.8384   -1.8314   -3.2174 C.ar      1 <0>        -0.1466
      7 C6          1.2741   -2.6061   -2.2156 C.ar      1 <0>         0.1455
      8 C7          0.6613   -1.9942   -1.1284 C.ar      1 <0>         0.0441
      9 O2          0.1111   -2.7510   -0.1402 O.3       1 <0>        -0.3185
     10 C8         -1.2598   -3.1234   -0.2952 C.3       1 <0>         0.0397
     11 O3          1.3245   -3.9629   -2.2941 O.3       1 <0>        -0.3218
     12 C9          2.4563   -4.6053   -1.7037 C.3       1 <0>         0.0368
     13 C10         2.5085   -2.4938   -4.3936 C.3       1 <0>         0.1115
     14 N1          1.4883   -2.9312   -5.3559 N.3       1 <0>        -0.5265
     15 C11         0.8011   -1.7786   -5.9552 C.3       1 <0>         0.0255
     16 C12        -0.2911   -2.2767   -6.9043 C.3       1 <0>        -0.0035
     17 N2          0.3135   -3.1080   -7.9535 N.4       1 <0>        -0.3850
     18 C13         0.9748   -4.2679   -7.3413 C.3       1 <0>        -0.0039
     19 C14         2.0776   -3.7863   -6.3959 C.3       1 <0>         0.0298
     20 C15        -0.7330   -3.5711   -8.8746 C.3       1 <0>         0.1387
     21 C16        -1.4105   -2.3814   -9.5043 C.ar      1 <0>        -0.1475
     22 C17        -0.6613   -1.2884   -9.8983 C.ar      1 <0>        -0.0904
     23 C18        -1.2814   -0.1970  -10.4762 C.ar      1 <0>        -0.1396
     24 C19        -2.6537   -0.1984  -10.6605 C.ar      1 <0>         0.1328
     25 C20        -3.4031   -1.2936  -10.2654 C.ar      1 <0>        -0.1404
     26 C21        -2.7800   -2.3861   -9.6925 C.ar      1 <0>        -0.0533
     27 F1         -3.2611    0.8683  -11.2250 F         1 <0>        -0.1225
     28 C22        -0.1130   -4.4241   -9.9513 C.ar      1 <0>        -0.1472
     29 C23         1.1064   -4.0688  -10.4973 C.ar      1 <0>        -0.0909
     30 C24         1.6761   -4.8504  -11.4844 C.ar      1 <0>        -0.1392
     31 C25         1.0253   -5.9898  -11.9263 C.ar      1 <0>         0.1329
     32 C26        -0.1959   -6.3447  -11.3787 C.ar      1 <0>        -0.1401
     33 C27        -0.7612   -5.5643  -10.3880 C.ar      1 <0>        -0.0534
     34 F2          1.5811   -6.7545  -12.8915 F         1 <0>        -0.1224
     35 H1          1.0053    1.8021    0.0021 H         1 <0>         0.0605
     36 H2         -0.5445    1.7859   -0.8732 H         1 <0>         0.0581
     37 H3         -0.5275    1.7763    0.9067 H         1 <0>         0.1078
     38 H4          1.1346    1.2380   -2.0054 H         1 <0>         0.1396
     39 H5          2.2271    0.1485   -3.9213 H         1 <0>         0.1311
     40 H6         -1.5723   -3.7231    0.5597 H         1 <0>         0.0966
     41 H7         -1.8756   -2.2260   -0.3541 H         1 <0>         0.0456
     42 H8         -1.3771   -3.7052   -1.2095 H         1 <0>         0.0475
     43 H9          2.3721   -5.6839   -1.8364 H         1 <0>         0.0983
     44 H10         3.3676   -4.2500   -2.1848 H         1 <0>         0.0446
     45 H11         2.4925   -4.3719   -0.6396 H         1 <0>         0.0550
     46 H12         3.1817   -1.7845   -4.8750 H         1 <0>         0.0557
     47 H13         3.0769   -3.3577   -4.0488 H         1 <0>         0.0956
     48 H14         0.3508   -1.1739   -5.1680 H         1 <0>         0.1251
     49 H15         1.5191   -1.1760   -6.5115 H         1 <0>         0.0590
     50 H16        -1.0164   -2.8679   -6.3451 H         1 <0>         0.1413
     51 H17        -0.7927   -1.4234   -7.3608 H         1 <0>         0.1354
     52 H18         0.2431   -4.8489   -6.7799 H         1 <0>         0.1423
     53 H19         1.4118   -4.8908   -8.1218 H         1 <0>         0.1363
     54 H20         2.8166   -3.2168   -6.9594 H         1 <0>         0.0589
     55 H21         2.5586   -4.6464   -5.9302 H         1 <0>         0.1259
     56 H22        -1.4678   -4.1584   -8.3240 H         1 <0>         0.1541
     57 H23         0.4091   -1.2874   -9.7542 H         1 <0>         0.1249
     58 H24        -0.6959    0.6569  -10.7837 H         1 <0>         0.1492
     59 H25        -4.4735   -1.2956  -10.4084 H         1 <0>         0.1516
     60 H26        -3.3638   -3.2423   -9.3884 H         1 <0>         0.1456
     61 H27         1.6137   -3.1798  -10.1527 H         1 <0>         0.1247
     62 H28         2.6285   -4.5725  -11.9111 H         1 <0>         0.1492
     63 H29        -0.7046   -7.2330  -11.7229 H         1 <0>         0.1516
     64 H30        -1.7116   -5.8433   -9.9576 H         1 <0>         0.1456
     65 H31         0.9932   -2.5639   -8.4635 H         1 <0>         0.4125
@<TRIPOS>BOND
     1    1    2 1
     2    1   35 1
     3    1   36 1
     4    1   37 1
     5    2    3 1
     6    3    8 ar
     7    3    4 ar
     8    4    5 ar
     9    4   38 1
    10    5    6 ar
    11    5   39 1
    12    6    7 ar
    13    6   13 1
    14    7    8 ar
    15    7   11 1
    16    8    9 1
    17    9   10 1
    18   10   40 1
    19   10   41 1
    20   10   42 1
    21   11   12 1
    22   12   43 1
    23   12   44 1
    24   12   45 1
    25   13   14 1
    26   13   46 1
    27   13   47 1
    28   14   19 1
    29   14   15 1
    30   15   16 1
    31   15   48 1
    32   15   49 1
    33   16   17 1
    34   16   50 1
    35   16   51 1
    36   17   18 1
    37   17   20 1
    38   17   65 1
    39   18   19 1
    40   18   52 1
    41   18   53 1
    42   19   54 1
    43   19   55 1
    44   20   21 1
    45   20   28 1
    46   20   56 1
    47   21   26 ar
    48   21   22 ar
    49   22   23 ar
    50   22   57 1
    51   23   24 ar
    52   23   58 1
    53   24   25 ar
    54   24   27 1
    55   25   26 ar
    56   25   59 1
    57   26   60 1
    58   28   33 ar
    59   28   29 ar
    60   29   30 ar
    61   29   61 1
    62   30   31 ar
    63   30   62 1
    64   31   32 ar
    65   31   34 1
    66   32   33 ar
    67   32   63 1
    68   33   64 1
@<TRIPOS>MOLECULE
ZINC19360739
   57    60     0     0     0
SMALL
USER_CHARGES

@<TRIPOS>ATOM
      1 C1         -0.5652    1.2485    0.7222 C.ar      1 <0>        -0.0943
      2 C2          0.5404    2.0554    0.9232 C.ar      1 <0>        -0.1192
      3 C3          1.8064    1.5069    0.9299 C.ar      1 <0>        -0.0897
      4 C4          1.9702    0.1352    0.7340 C.ar      1 <0>        -0.1001
      5 C5          0.8509   -0.6733    0.5323 C.ar      1 <0>        -0.0995
      6 C6         -0.4096   -0.1123    0.5274 C.ar      1 <0>        -0.1213
      7 C7          3.3236   -0.4590    0.7395 C.2       1 <0>        -0.0129
      8 C8          3.4760   -1.7626    0.5530 C.2       1 <0>        -0.2547
      9 C9          4.8559   -2.3684    0.5587 C.3       1 <0>         0.0399
     10 N1          4.9108   -3.4522    1.5488 N.4       1 <0>        -0.3851
     11 C10         4.0101   -4.5370    1.1373 C.3       1 <0>        -0.0024
     12 C11         4.0527   -5.6581    2.1781 C.3       1 <0>         0.0240
     13 N2          5.4291   -6.1596    2.2975 N.3       1 <0>        -0.5314
     14 C12         6.3467   -5.0788    2.6848 C.3       1 <0>         0.0243
     15 C13         6.2851   -3.9625    1.6399 C.3       1 <0>        -0.0015
     16 C14         5.5014   -7.2775    3.2479 C.3       1 <0>         0.1826
     17 C15         4.5657   -8.3733    2.8066 C.ar      1 <0>        -0.1088
     18 C16         4.5143   -8.7433    1.4756 C.ar      1 <0>        -0.0655
     19 C17         3.6570   -9.7484    1.0699 C.ar      1 <0>        -0.1560
     20 C18         2.8492  -10.3848    1.9971 C.ar      1 <0>         0.1127
     21 C19         2.9015  -10.0133    3.3299 C.ar      1 <0>        -0.1509
     22 C20         3.7634   -9.0115    3.7341 C.ar      1 <0>        -0.0777
     23 F1          2.0103  -11.3671    1.6015 F         1 <0>        -0.1328
     24 C21         6.9111   -7.8084    3.2926 C.ar      1 <0>        -0.1084
     25 C22         7.6132   -8.0036    2.1178 C.ar      1 <0>        -0.0645
     26 C23         8.9061   -8.4900    2.1575 C.ar      1 <0>        -0.1560
     27 C24         9.4983   -8.7818    3.3746 C.ar      1 <0>         0.1126
     28 C25         8.7941   -8.5859    4.5506 C.ar      1 <0>        -0.1509
     29 C26         7.5032   -8.0944    4.5086 C.ar      1 <0>        -0.0782
     30 F2         10.7620   -9.2578    3.4147 F         1 <0>        -0.1329
     31 H1         -1.5544    1.6820    0.7219 H         1 <0>         0.1310
     32 H2          0.4123    3.1170    1.0747 H         1 <0>         0.1321
     33 H3          2.6688    2.1380    1.0862 H         1 <0>         0.1292
     34 H4          0.9711   -1.7357    0.3797 H         1 <0>         0.1229
     35 H5         -1.2767   -0.7369    0.3711 H         1 <0>         0.1300
     36 H6          4.1884    0.1689    0.8954 H         1 <0>         0.1304
     37 H7          2.6112   -2.3905    0.3971 H         1 <0>         0.1361
     38 H8          5.0814   -2.7678   -0.4301 H         1 <0>         0.1357
     39 H9          5.5877   -1.6029    0.8169 H         1 <0>         0.1303
     40 H10         2.9927   -4.1539    1.0575 H         1 <0>         0.1348
     41 H11         4.3285   -4.9266    0.1704 H         1 <0>         0.1381
     42 H12         3.7213   -5.2722    3.1421 H         1 <0>         0.0629
     43 H13         3.3957   -6.4697    1.8655 H         1 <0>         0.1264
     44 H14         6.0531   -4.6834    3.6572 H         1 <0>         0.0632
     45 H15         7.3633   -5.4679    2.7419 H         1 <0>         0.1267
     46 H16         6.5919   -4.3551    0.6704 H         1 <0>         0.1386
     47 H17         6.9545   -3.1536    1.9326 H         1 <0>         0.1357
     48 H18         5.2123   -6.9303    4.2398 H         1 <0>         0.0722
     49 H19         5.1443   -8.2466    0.7526 H         1 <0>         0.1382
     50 H20         3.6168  -10.0371    0.0300 H         1 <0>         0.1392
     51 H21         2.2716  -10.5087    4.0539 H         1 <0>         0.1406
     52 H22         3.8076   -8.7246    4.7744 H         1 <0>         0.1329
     53 H23         7.1509   -7.7762    1.1685 H         1 <0>         0.1380
     54 H24         9.4543   -8.6427    1.2396 H         1 <0>         0.1391
     55 H25         9.2549   -8.8135    5.5005 H         1 <0>         0.1405
     56 H26         6.9553   -7.9373    5.4260 H         1 <0>         0.1327
     57 H27         4.6228   -3.0997    2.4493 H         1 <0>         0.4211
@<TRIPOS>BOND
     1    1    6 ar
     2    1    2 ar
     3    1   31 1
     4    2    3 ar
     5    2   32 1
     6    3    4 ar
     7    3   33 1
     8    4    5 ar
     9    4    7 1
    10    5    6 ar
    11    5   34 1
    12    6   35 1
    13    7    8 2
    14    7   36 1
    15    8    9 1
    16    8   37 1
    17    9   10 1
    18    9   38 1
    19    9   39 1
    20   10   15 1
    21   10   11 1
    22   10   57 1
    23   11   12 1
    24   11   40 1
    25   11   41 1
    26   12   13 1
    27   12   42 1
    28   12   43 1
    29   13   14 1
    30   13   16 1
    31   14   15 1
    32   14   44 1
    33   14   45 1
    34   15   46 1
    35   15   47 1
    36   16   17 1
    37   16   24 1
    38   16   48 1
    39   17   22 ar
    40   17   18 ar
    41   18   19 ar
    42   18   49 1
    43   19   20 ar
    44   19   50 1
    45   20   21 ar
    46   20   23 1
    47   21   22 ar
    48   21   51 1
    49   22   52 1
    50   24   29 ar
    51   24   25 ar
    52   25   26 ar
    53   25   53 1
    54   26   27 ar
    55   26   54 1
    56   27   28 ar
    57   27   30 1
    58   28   29 ar
    59   28   55 1
    60   29   56 1
@<TRIPOS>MOLECULE
ZINC19360739
   57    60     0     0     0
SMALL
USER_CHARGES

@<TRIPOS>ATOM
      1 C1         -0.0167    1.3792    0.0096 C.ar      1 <0>        -0.1111
      2 C2          1.1683    2.0931    0.0021 C.ar      1 <0>        -0.1174
      3 C3          2.3774    1.4286   -0.0134 C.ar      1 <0>        -0.1032
      4 C4          2.4032    0.0335   -0.0212 C.ar      1 <0>        -0.0719
      5 C5          1.2045   -0.6806   -0.0131 C.ar      1 <0>        -0.1113
      6 C6          0.0021   -0.0041    0.0020 C.ar      1 <0>        -0.1199
      7 C7          3.6950   -0.6848   -0.0384 C.2       1 <0>        -0.0777
      8 C8          3.7162   -2.0103   -0.0457 C.2       1 <0>        -0.1693
      9 C9          5.0332   -2.7426   -0.0633 C.3       1 <0>         0.0894
     10 N1          5.0868   -3.6810    1.0657 N.3       1 <0>        -0.5336
     11 C10         4.0942   -4.7533    0.9069 C.3       1 <0>         0.0249
     12 C11         4.1414   -5.6730    2.1290 C.3       1 <0>        -0.0045
     13 N2          5.4882   -6.2444    2.2603 N.4       1 <0>        -0.3853
     14 C12         6.4652   -5.1629    2.4428 C.3       1 <0>        -0.0043
     15 C13         6.4373   -4.2389    1.2233 C.3       1 <0>         0.0273
     16 C14         5.5281   -7.1413    3.4231 C.3       1 <0>         0.1390
     17 C15         4.5271   -8.2520    3.2353 C.ar      1 <0>        -0.1483
     18 C16         4.3690   -8.8365    1.9925 C.ar      1 <0>        -0.0905
     19 C17         3.4516   -9.8555    1.8192 C.ar      1 <0>        -0.1395
     20 C18         2.6908  -10.2910    2.8909 C.ar      1 <0>         0.1333
     21 C19         2.8500   -9.7049    4.1352 C.ar      1 <0>        -0.1404
     22 C20         3.7717   -8.6896    4.3073 C.ar      1 <0>        -0.0532
     23 F1          1.7934  -11.2868    2.7225 F         1 <0>        -0.1222
     24 C21         6.9097   -7.7277    3.5580 C.ar      1 <0>        -0.1479
     25 C22         7.6094   -8.1138    2.4299 C.ar      1 <0>        -0.0911
     26 C23         8.8766   -8.6513    2.5523 C.ar      1 <0>        -0.1392
     27 C24         9.4456   -8.8030    3.8055 C.ar      1 <0>         0.1332
     28 C25         8.7439   -8.4159    4.9346 C.ar      1 <0>        -0.1401
     29 C26         7.4789   -7.8738    4.8093 C.ar      1 <0>        -0.0534
     30 F2         10.6842   -9.3287    3.9264 F         1 <0>        -0.1221
     31 H1         -0.9604    1.9041    0.0260 H         1 <0>         0.1259
     32 H2          1.1469    3.1729    0.0082 H         1 <0>         0.1273
     33 H3          3.3018    1.9870   -0.0200 H         1 <0>         0.1256
     34 H4          1.2178   -1.7605   -0.0194 H         1 <0>         0.1202
     35 H5         -0.9265   -0.5556    0.0079 H         1 <0>         0.1249
     36 H6          4.6214   -0.1298   -0.0450 H         1 <0>         0.1212
     37 H7          2.7898   -2.5653   -0.0392 H         1 <0>         0.1156
     38 H8          5.1300   -3.2938   -0.9987 H         1 <0>         0.0564
     39 H9          5.8492   -2.0250    0.0217 H         1 <0>         0.0932
     40 H10         3.0991   -4.3175    0.8179 H         1 <0>         0.1259
     41 H11         4.3212   -5.3289    0.0096 H         1 <0>         0.0604
     42 H12         3.9011   -5.0999    3.0245 H         1 <0>         0.1416
     43 H13         3.4159   -6.4772    2.0068 H         1 <0>         0.1365
     44 H14         6.2129   -4.5924    3.3367 H         1 <0>         0.1418
     45 H15         7.4624   -5.5889    2.5531 H         1 <0>         0.1369
     46 H16         6.7029   -4.8061    0.3311 H         1 <0>         0.0602
     47 H17         7.1516   -3.4279    1.3651 H         1 <0>         0.1261
     48 H18         5.2824   -6.5792    4.3241 H         1 <0>         0.1543
     49 H19         4.9623   -8.4964    1.1566 H         1 <0>         0.1248
     50 H20         3.3280  -10.3117    0.8481 H         1 <0>         0.1494
     51 H21         2.2569  -10.0435    4.9717 H         1 <0>         0.1518
     52 H22         3.8993   -8.2353    5.2787 H         1 <0>         0.1457
     53 H23         7.1652   -7.9958    1.4525 H         1 <0>         0.1247
     54 H24         9.4229   -8.9532    1.6709 H         1 <0>         0.1494
     55 H25         9.1866   -8.5340    5.9126 H         1 <0>         0.1518
     56 H26         6.9332   -7.5676    5.6896 H         1 <0>         0.1457
     57 H27         5.7151   -6.7652    1.4264 H         1 <0>         0.4130
@<TRIPOS>BOND
     1    1    6 ar
     2    1    2 ar
     3    1   31 1
     4    2    3 ar
     5    2   32 1
     6    3    4 ar
     7    3   33 1
     8    4    5 ar
     9    4    7 1
    10    5    6 ar
    11    5   34 1
    12    6   35 1
    13    7    8 2
    14    7   36 1
    15    8    9 1
    16    8   37 1
    17    9   10 1
    18    9   38 1
    19    9   39 1
    20   10   15 1
    21   10   11 1
    22   11   12 1
    23   11   40 1
    24   11   41 1
    25   12   13 1
    26   12   42 1
    27   12   43 1
    28   13   14 1
    29   13   16 1
    30   13   57 1
    31   14   15 1
    32   14   44 1
    33   14   45 1
    34   15   46 1
    35   15   47 1
    36   16   17 1
    37   16   24 1
    38   16   48 1
    39   17   22 ar
    40   17   18 ar
    41   18   19 ar
    42   18   49 1
    43   19   20 ar
    44   19   50 1
    45   20   21 ar
    46   20   23 1
    47   21   22 ar
    48   21   51 1
    49   22   52 1
    50   24   29 ar
    51   24   25 ar
    52   25   26 ar
    53   25   53 1
    54   26   27 ar
    55   26   54 1
    56   27   28 ar
    57   27   30 1
    58   28   29 ar
    59   28   55 1
    60   29   56 1
@<TRIPOS>MOLECULE
ZINC19360739
   56    59     0     0     0
SMALL
USER_CHARGES

@<TRIPOS>ATOM
      1 C1         -0.6450    1.2067    0.7385 C.ar      1 <0>        -0.1212
      2 C2          0.4537    2.0253    0.9303 C.ar      1 <0>        -0.1188
      3 C3          1.7253    1.4899    0.9286 C.ar      1 <0>        -0.1101
      4 C4          1.9018    0.1196    0.7332 C.ar      1 <0>        -0.0554
      5 C5          0.7895   -0.7006    0.5408 C.ar      1 <0>        -0.1151
      6 C6         -0.4768   -0.1527    0.5444 C.ar      1 <0>        -0.1183
      7 C7          3.2613   -0.4606    0.7297 C.2       1 <0>        -0.1106
      8 C8          3.4257   -1.7628    0.5439 C.2       1 <0>        -0.1355
      9 C9          4.8118   -2.3544    0.5403 C.3       1 <0>         0.0846
     10 N1          4.8851   -3.4361    1.5314 N.3       1 <0>        -0.5355
     11 C10         4.0261   -4.5640    1.1446 C.3       1 <0>         0.0568
     12 C11         4.0688   -5.6331    2.2389 C.3       1 <0>         0.0566
     13 N2          5.4567   -6.0748    2.4347 N.3       1 <0>        -0.5294
     14 C12         6.3157   -4.9470    2.8216 C.3       1 <0>         0.0574
     15 C13         6.2730   -3.8778    1.7272 C.3       1 <0>         0.0585
     16 C14         5.5300   -7.1566    3.4259 C.3       1 <0>         0.1710
     17 C15         4.6571   -8.3028    2.9839 C.ar      1 <0>        -0.0902
     18 C16         4.6784   -8.7188    1.6657 C.ar      1 <0>        -0.0616
     19 C17         3.8787   -9.7702    1.2594 C.ar      1 <0>        -0.1564
     20 C18         3.0561  -10.4069    2.1731 C.ar      1 <0>         0.1011
     21 C19         3.0356   -9.9894    3.4931 C.ar      1 <0>        -0.1535
     22 C20         3.8401   -8.9412    3.8983 C.ar      1 <0>        -0.0820
     23 F1          2.2736  -11.4345    1.7769 F         1 <0>        -0.1394
     24 C21         6.9556   -7.6292    3.5490 C.ar      1 <0>        -0.0900
     25 C22         7.7154   -7.8360    2.4127 C.ar      1 <0>        -0.0609
     26 C23         9.0230   -8.2690    2.5245 C.ar      1 <0>        -0.1564
     27 C24         9.5721   -8.4957    3.7751 C.ar      1 <0>         0.1010
     28 C25         8.8102   -8.2884    4.9125 C.ar      1 <0>        -0.1536
     29 C26         7.5045   -7.8503    4.7985 C.ar      1 <0>        -0.0822
     30 F2         10.8502   -8.9195    3.8855 F         1 <0>        -0.1394
     31 H1         -1.6385    1.6300    0.7449 H         1 <0>         0.1219
     32 H2          0.3157    3.0857    1.0814 H         1 <0>         0.1233
     33 H3          2.5822    2.1300    1.0777 H         1 <0>         0.1236
     34 H4          0.9195   -1.7619    0.3888 H         1 <0>         0.1224
     35 H5         -1.3385   -0.7864    0.3952 H         1 <0>         0.1228
     36 H6          4.1206    0.1764    0.8785 H         1 <0>         0.1188
     37 H7          2.5664   -2.3998    0.3951 H         1 <0>         0.1136
     38 H8          5.0342   -2.7529   -0.4496 H         1 <0>         0.0473
     39 H9          5.5375   -1.5811    0.7921 H         1 <0>         0.0809
     40 H10         3.0016   -4.2141    1.0178 H         1 <0>         0.0804
     41 H11         4.3842   -4.9889    0.2069 H         1 <0>         0.0440
     42 H12         3.6851   -5.2160    3.1700 H         1 <0>         0.0452
     43 H13         3.4552   -6.4833    1.9409 H         1 <0>         0.0839
     44 H14         5.9575   -4.5220    3.7593 H         1 <0>         0.0455
     45 H15         7.3402   -5.2969    2.9483 H         1 <0>         0.0841
     46 H16         6.6566   -4.2950    0.7961 H         1 <0>         0.0443
     47 H17         6.8865   -3.0277    2.0252 H         1 <0>         0.0807
     48 H18         5.1846   -6.7883    4.3919 H         1 <0>         0.0629
     49 H19         5.3199   -8.2218    0.9531 H         1 <0>         0.1388
     50 H20         3.8952  -10.0948    0.2295 H         1 <0>         0.1357
     51 H21         2.3941  -10.4851    4.2066 H         1 <0>         0.1360
     52 H22         3.8276   -8.6183    4.9288 H         1 <0>         0.1311
     53 H23         7.2867   -7.6593    1.4373 H         1 <0>         0.1386
     54 H24         9.6162   -8.4307    1.6366 H         1 <0>         0.1356
     55 H25         9.2374   -8.4652    5.8885 H         1 <0>         0.1360
     56 H26         6.9114   -7.6842    5.6856 H         1 <0>         0.1310
@<TRIPOS>BOND
     1    1    6 ar
     2    1    2 ar
     3    1   31 1
     4    2    3 ar
     5    2   32 1
     6    3    4 ar
     7    3   33 1
     8    4    5 ar
     9    4    7 1
    10    5    6 ar
    11    5   34 1
    12    6   35 1
    13    7    8 2
    14    7   36 1
    15    8    9 1
    16    8   37 1
    17    9   10 1
    18    9   38 1
    19    9   39 1
    20   10   15 1
    21   10   11 1
    22   11   12 1
    23   11   40 1
    24   11   41 1
    25   12   13 1
    26   12   42 1
    27   12   43 1
    28   13   14 1
    29   13   16 1
    30   14   15 1
    31   14   44 1
    32   14   45 1
    33   15   46 1
    34   15   47 1
    35   16   17 1
    36   16   24 1
    37   16   48 1
    38   17   22 ar
    39   17   18 ar
    40   18   19 ar
    41   18   49 1
    42   19   20 ar
    43   19   50 1
    44   20   21 ar
    45   20   23 1
    46   21   22 ar
    47   21   51 1
    48   22   52 1
    49   24   29 ar
    50   24   25 ar
    51   25   26 ar
    52   25   53 1
    53   26   27 ar
    54   26   54 1
    55   27   28 ar
    56   27   30 1
    57   28   29 ar
    58   28   55 1
    59   29   56 1
@<TRIPOS>MOLECULE
ZINC01530579
   57    60     0     0     0
SMALL
USER_CHARGES

@<TRIPOS>ATOM
      1 C1         -0.0173    1.4248    0.0099 C.3       1 <0>         0.0234
      2 O1          0.0021   -0.0041    0.0020 O.3       1 <0>        -0.3124
      3 C2          0.6062   -0.6075   -1.0564 C.ar      1 <0>         0.1102
      4 C3          1.1729    0.1590   -2.0621 C.ar      1 <0>        -0.1707
      5 C4          1.7870   -0.4560   -3.1371 C.ar      1 <0>        -0.0979
      6 C5          1.8372   -1.8356   -3.2121 C.ar      1 <0>        -0.1163
      7 C6          1.2734   -2.6062   -2.2124 C.ar      1 <0>        -0.1651
      8 C7          0.6617   -1.9961   -1.1290 C.ar      1 <0>         0.0803
      9 O2          0.1119   -2.7526   -0.1417 O.3       1 <0>        -0.3185
     10 C8          0.2064   -4.1715   -0.2827 C.3       1 <0>         0.0231
     11 C9         -0.4630   -4.8487    0.9148 C.3       1 <0>         0.0020
     12 N1         -1.9017   -4.5521    0.9040 N.4       1 <0>        -0.5046
     13 C10        -2.5444   -5.2023    2.0538 C.3       1 <0>        -0.0423
     14 C11        -4.0428   -4.8933    2.0425 C.3       1 <0>         0.0852
     15 H1         -4.4843   -5.2687    1.1193 H         1 <0>         0.1354
     16 C12        -4.7123   -5.5706    3.2401 C.3       1 <0>         0.0286
     17 O3         -6.1265   -5.3798    3.1660 O.3       1 <0>        -0.2954
     18 C13        -6.8751   -5.9229    4.1611 C.ar      1 <0>         0.1791
     19 C14        -6.2645   -6.6191    5.1897 C.ar      1 <0>        -0.2456
     20 C15        -7.0273   -7.1730    6.2045 C.ar      1 <0>        -0.0444
     21 C16        -8.3996   -7.0397    6.2043 C.ar      1 <0>        -0.1712
     22 C17        -9.0343   -6.3440    5.1793 C.ar      1 <0>         0.1818
     23 C18        -8.2644   -5.7764    4.1541 C.ar      1 <0>        -0.1299
     24 C19        -9.2097   -5.1108    3.2397 C.ar      1 <0>        -0.0923
     25 C20        -9.0542   -4.3908    2.0573 C.ar      1 <0>        -0.0604
     26 C21       -10.1619   -3.8790    1.4166 C.ar      1 <0>        -0.1468
     27 C22       -11.4283   -4.0780    1.9446 C.ar      1 <0>        -0.0826
     28 C23       -11.5964   -4.7880    3.1139 C.ar      1 <0>        -0.1382
     29 C24       -10.4904   -5.3134    3.7750 C.ar      1 <0>         0.1336
     30 N2        -10.3660   -6.0629    4.9316 N.pl3     1 <0>        -0.6121
     31 H2        -11.1055   -6.3405    5.4947 H         1 <0>         0.4226
     32 O4         -4.2384   -3.4801    2.1238 O.3       1 <0>        -0.5417
     33 H3          1.0053    1.8021    0.0021 H         1 <0>         0.0599
     34 H4         -0.5445    1.7859   -0.8732 H         1 <0>         0.0597
     35 H5         -0.5275    1.7763    0.9067 H         1 <0>         0.1055
     36 H6          1.1344    1.2368   -2.0063 H         1 <0>         0.1417
     37 H7          2.2283    0.1425   -3.9203 H         1 <0>         0.1350
     38 H8          2.3175   -2.3124   -4.0537 H         1 <0>         0.1340
     39 H9          1.3136   -3.6837   -2.2735 H         1 <0>         0.1347
     40 H10        -0.2940   -4.4795   -1.2008 H         1 <0>         0.0872
     41 H11         1.2558   -4.4633   -0.3254 H         1 <0>         0.1106
     42 H12        -0.3138   -5.9267    0.8528 H         1 <0>         0.1526
     43 H13        -0.0216   -4.4734    1.8380 H         1 <0>         0.1440
     44 H14        -2.0398   -3.5542    0.9614 H         1 <0>         0.4417
     45 H15        -2.3952   -6.2803    1.9918 H         1 <0>         0.1479
     46 H16        -2.1030   -4.8270    2.9770 H         1 <0>         0.1411
     47 H17        -4.4883   -6.6372    3.2262 H         1 <0>         0.0830
     48 H18        -4.3343   -5.1319    4.1636 H         1 <0>         0.0784
     49 H19        -5.1904   -6.7310    5.2009 H         1 <0>         0.1279
     50 H20        -6.5426   -7.7147    7.0033 H         1 <0>         0.1351
     51 H21        -8.9834   -7.4765    7.0010 H         1 <0>         0.1305
     52 H22        -8.0687   -4.2338    1.6443 H         1 <0>         0.1254
     53 H23       -10.0429   -3.3206    0.4999 H         1 <0>         0.1275
     54 H24       -12.2904   -3.6728    1.4356 H         1 <0>         0.1319
     55 H25       -12.5872   -4.9370    3.5170 H         1 <0>         0.1270
     56 H26        -3.8700   -3.0774    2.9221 H         1 <0>         0.3907
     57 H27        -2.3103   -4.8995    0.0494 H         1 <0>         0.4299
@<TRIPOS>BOND
     1    1    2 1
     2    1   33 1
     3    1   34 1
     4    1   35 1
     5    2    3 1
     6    3    8 ar
     7    3    4 ar
     8    4    5 ar
     9    4   36 1
    10    5    6 ar
    11    5   37 1
    12    6    7 ar
    13    6   38 1
    14    7    8 ar
    15    7   39 1
    16    8    9 1
    17    9   10 1
    18   10   11 1
    19   10   40 1
    20   10   41 1
    21   11   12 1
    22   11   42 1
    23   11   43 1
    24   12   13 1
    25   12   44 1
    26   12   57 1
    27   13   14 1
    28   13   45 1
    29   13   46 1
    30   14   15 1
    31   14   16 1
    32   14   32 1
    33   16   17 1
    34   16   47 1
    35   16   48 1
    36   17   18 1
    37   18   23 ar
    38   18   19 ar
    39   19   20 ar
    40   19   49 1
    41   20   21 ar
    42   20   50 1
    43   21   22 ar
    44   21   51 1
    45   22   30 1
    46   22   23 ar
    47   23   24 1
    48   24   29 ar
    49   24   25 ar
    50   25   26 ar
    51   25   52 1
    52   26   27 ar
    53   26   53 1
    54   27   28 ar
    55   27   54 1
    56   28   29 ar
    57   28   55 1
    58   29   30 1
    59   30   31 1
    60   32   56 1
@<TRIPOS>MOLECULE
ZINC01530580
   57    60     0     0     0
SMALL
USER_CHARGES

@<TRIPOS>ATOM
      1 C1         -0.0173    1.4248    0.0099 C.3       1 <0>         0.0233
      2 O1          0.0021   -0.0041    0.0020 O.3       1 <0>        -0.3130
      3 C2          0.6062   -0.6075   -1.0564 C.ar      1 <0>         0.1098
      4 C3          1.1729    0.1590   -2.0621 C.ar      1 <0>        -0.1705
      5 C4          1.7870   -0.4560   -3.1371 C.ar      1 <0>        -0.0978
      6 C5          1.8372   -1.8356   -3.2121 C.ar      1 <0>        -0.1160
      7 C6          1.2734   -2.6062   -2.2124 C.ar      1 <0>        -0.1649
      8 C7          0.6617   -1.9961   -1.1290 C.ar      1 <0>         0.0803
      9 O2          0.1119   -2.7526   -0.1417 O.3       1 <0>        -0.3191
     10 C8          0.2064   -4.1715   -0.2827 C.3       1 <0>         0.0232
     11 C9         -0.4630   -4.8487    0.9148 C.3       1 <0>         0.0020
     12 N1         -1.9017   -4.5521    0.9040 N.4       1 <0>        -0.5050
     13 C10        -2.5444   -5.2023    2.0538 C.3       1 <0>        -0.0416
     14 C11        -4.0428   -4.8933    2.0425 C.3       1 <0>         0.0851
     15 H1         -4.1910   -3.8138    2.0149 H         1 <0>         0.1355
     16 C12        -4.6910   -5.4650    3.3051 C.3       1 <0>         0.0288
     17 O3         -6.0655   -5.0771    3.3523 O.3       1 <0>        -0.2955
     18 C13        -6.7910   -5.5055    4.4180 C.ar      1 <0>         0.1791
     19 C14        -6.1946   -6.2769    5.4003 C.ar      1 <0>        -0.2456
     20 C15        -6.9338   -6.7140    6.4870 C.ar      1 <0>        -0.0443
     21 C16        -8.2684   -6.3887    6.6050 C.ar      1 <0>        -0.1712
     22 C17        -8.8884   -5.6144    5.6285 C.ar      1 <0>         0.1819
     23 C18        -8.1411   -5.1648    4.5306 C.ar      1 <0>        -0.1299
     24 C19        -9.0617   -4.3762    3.6919 C.ar      1 <0>        -0.0923
     25 C20        -8.9130   -3.6898    2.4889 C.ar      1 <0>        -0.0604
     26 C21        -9.9908   -3.0295    1.9395 C.ar      1 <0>        -0.1468
     27 C22       -11.2205   -3.0461    2.5799 C.ar      1 <0>        -0.0826
     28 C23       -11.3814   -3.7209    3.7708 C.ar      1 <0>        -0.1382
     29 C24       -10.3053   -4.3943    4.3408 C.ar      1 <0>         0.1335
     30 N2        -10.1844   -5.1495    5.4941 N.pl3     1 <0>        -0.6121
     31 H2        -10.9022   -5.3180    6.1244 H         1 <0>         0.4226
     32 O4         -4.6428   -5.4861    0.8889 O.3       1 <0>        -0.5420
     33 H3          1.0053    1.8021    0.0021 H         1 <0>         0.0601
     34 H4         -0.5445    1.7859   -0.8732 H         1 <0>         0.0597
     35 H5         -0.5275    1.7763    0.9067 H         1 <0>         0.1055
     36 H6          1.1344    1.2368   -2.0063 H         1 <0>         0.1417
     37 H7          2.2283    0.1425   -3.9203 H         1 <0>         0.1351
     38 H8          2.3175   -2.3124   -4.0537 H         1 <0>         0.1342
     39 H9          1.3136   -3.6837   -2.2735 H         1 <0>         0.1348
     40 H10        -0.2940   -4.4795   -1.2008 H         1 <0>         0.0873
     41 H11         1.2558   -4.4633   -0.3254 H         1 <0>         0.1106
     42 H12        -0.3138   -5.9267    0.8528 H         1 <0>         0.1521
     43 H13        -0.0216   -4.4734    1.8380 H         1 <0>         0.1446
     44 H14        -2.0398   -3.5542    0.9614 H         1 <0>         0.4387
     45 H15        -2.3952   -6.2803    1.9918 H         1 <0>         0.1414
     46 H16        -2.1030   -4.8270    2.9770 H         1 <0>         0.1478
     47 H17        -4.6207   -6.5526    3.2891 H         1 <0>         0.0785
     48 H18        -4.1745   -5.0804    4.1846 H         1 <0>         0.0831
     49 H19        -5.1500   -6.5390    5.3190 H         1 <0>         0.1279
     50 H20        -6.4604   -7.3155    7.2489 H         1 <0>         0.1352
     51 H21        -8.8343   -6.7358    7.4570 H         1 <0>         0.1305
     52 H22        -7.9561   -3.6747    1.9885 H         1 <0>         0.1254
     53 H23        -9.8771   -2.4969    1.0069 H         1 <0>         0.1275
     54 H24       -12.0593   -2.5255    2.1419 H         1 <0>         0.1319
     55 H25       -12.3433   -3.7273    4.2617 H         1 <0>         0.1270
     56 H26        -4.5494   -6.4477    0.8473 H         1 <0>         0.3897
     57 H27        -2.3103   -4.8995    0.0494 H         1 <0>         0.4329
@<TRIPOS>BOND
     1    1    2 1
     2    1   33 1
     3    1   34 1
     4    1   35 1
     5    2    3 1
     6    3    8 ar
     7    3    4 ar
     8    4    5 ar
     9    4   36 1
    10    5    6 ar
    11    5   37 1
    12    6    7 ar
    13    6   38 1
    14    7    8 ar
    15    7   39 1
    16    8    9 1
    17    9   10 1
    18   10   11 1
    19   10   40 1
    20   10   41 1
    21   11   12 1
    22   11   42 1
    23   11   43 1
    24   12   13 1
    25   12   44 1
    26   12   57 1
    27   13   14 1
    28   13   45 1
    29   13   46 1
    30   14   15 1
    31   14   16 1
    32   14   32 1
    33   16   17 1
    34   16   47 1
    35   16   48 1
    36   17   18 1
    37   18   23 ar
    38   18   19 ar
    39   19   20 ar
    40   19   49 1
    41   20   21 ar
    42   20   50 1
    43   21   22 ar
    44   21   51 1
    45   22   30 1
    46   22   23 ar
    47   23   24 1
    48   24   29 ar
    49   24   25 ar
    50   25   26 ar
    51   25   52 1
    52   26   27 ar
    53   26   53 1
    54   27   28 ar
    55   27   54 1
    56   28   29 ar
    57   28   55 1
    58   29   30 1
    59   30   31 1
    60   32   56 1
