@<TRIPOS>MOLECULE
ZINC14982453
   41    43     0     0     0
SMALL
USER_CHARGES
5-(4-chlorophenyl)-N-(3,5-dimethoxyphenyl)furan-2-carboxamide
@<TRIPOS>ATOM
      1 C1          2.6766   -2.4088    1.0951 C.3       1 <0>         0.0261
      2 O1          1.4013   -1.7670    1.1562 O.3       1 <0>        -0.3115
      3 C2          1.2979   -0.5435    0.5738 C.ar      1 <0>         0.1852
      4 C3          0.0890    0.1348    0.5966 C.ar      1 <0>        -0.2114
      5 C4         -0.0165    1.3849    0.0016 C.ar      1 <0>         0.2188
      6 C5          1.0890    1.9545   -0.6158 C.ar      1 <0>        -0.1889
      7 C6          2.2972    1.2750   -0.6373 C.ar      1 <0>         0.1853
      8 C7          2.4018    0.0264   -0.0427 C.ar      1 <0>        -0.3081
      9 O2          3.3796    1.8328   -1.2408 O.3       1 <0>        -0.3088
     10 C8          4.5923    1.0771   -1.2250 C.3       1 <0>         0.0257
     11 N1         -1.2367    2.0671    0.0192 N.am      1 <0>        -0.6612
     12 C9         -1.2562    3.4103    0.1283 C.2       1 <0>         0.6085
     13 O3         -0.2122    4.0363    0.1269 O.2       1 <0>        -0.4884
     14 C10        -2.5336    4.1167    0.2485 C.2       1 <0>        -0.0814
     15 C11        -2.6960    5.4796    0.3719 C.2       1 <0>        -0.1003
     16 C12        -4.0719    5.7162    0.4533 C.2       1 <0>        -0.1969
     17 C13        -4.6928    4.5018    0.3869 C.2       1 <0>         0.0677
     18 O4         -3.7567    3.5459    0.2637 O.3       1 <0>        -0.1559
     19 C14        -6.1512    4.2764    0.4422 C.ar      1 <0>        -0.0249
     20 C15        -7.0233    5.3587    0.5787 C.ar      1 <0>        -0.0777
     21 C16        -8.3844    5.1420    0.6249 C.ar      1 <0>        -0.1062
     22 C17        -8.8865    3.8536    0.5470 C.ar      1 <0>        -0.0241
     23 C18        -8.0266    2.7757    0.4168 C.ar      1 <0>        -0.1072
     24 C19        -6.6638    2.9796    0.3641 C.ar      1 <0>        -0.0837
     25 Cl1       -10.6009    3.5885    0.6132 Cl        1 <0>        -0.0594
     26 H1          2.9599   -2.5557    0.0529 H         1 <0>         0.0569
     27 H2          3.4213   -1.7852    1.5897 H         1 <0>         0.0568
     28 H3          2.6214   -3.3753    1.5962 H         1 <0>         0.1037
     29 H4         -0.7703   -0.3088    1.0774 H         1 <0>         0.1377
     30 H5          1.0076    2.9266   -1.0792 H         1 <0>         0.1505
     31 H6          3.3434   -0.5023   -0.0595 H         1 <0>         0.1371
     32 H7          5.3749    1.6353   -1.7390 H         1 <0>         0.1038
     33 H8          4.8936    0.8952   -0.1934 H         1 <0>         0.0565
     34 H9          4.4336    0.1246   -1.7306 H         1 <0>         0.0564
     35 H10        -2.0692    1.5737   -0.0472 H         1 <0>         0.4196
     36 H11        -1.9121    6.2220    0.3979 H         1 <0>         0.1686
     37 H12        -4.5527    6.6779    0.5543 H         1 <0>         0.1641
     38 H13        -6.6327    6.3635    0.6437 H         1 <0>         0.1419
     39 H14        -9.0601    5.9784    0.7263 H         1 <0>         0.1435
     40 H15        -8.4242    1.7733    0.3569 H         1 <0>         0.1416
     41 H16        -5.9942    2.1382    0.2630 H         1 <0>         0.1400
@<TRIPOS>BOND
     1    1    2 1
     2    1   26 1
     3    1   27 1
     4    1   28 1
     5    2    3 1
     6    3    8 ar
     7    3    4 ar
     8    4    5 ar
     9    4   29 1
    10    5    6 ar
    11    5   11 1
    12    6    7 ar
    13    6   30 1
    14    7    8 ar
    15    7    9 1
    16    8   31 1
    17    9   10 1
    18   10   32 1
    19   10   33 1
    20   10   34 1
    21   11   12 am
    22   11   35 1
    23   12   13 2
    24   12   14 1
    25   14   18 1
    26   14   15 2
    27   15   16 1
    28   15   36 1
    29   16   17 2
    30   16   37 1
    31   17   18 1
    32   17   19 1
    33   19   24 ar
    34   19   20 ar
    35   20   21 ar
    36   20   38 1
    37   21   22 ar
    38   21   39 1
    39   22   23 ar
    40   22   25 1
    41   23   24 ar
    42   23   40 1
    43   24   41 1
@<TRIPOS>MOLECULE
ZINC06860381
   39    41     0     0     0
SMALL
USER_CHARGES
N-(m-tolyl)-5-[3-(trifluoromethyl)phenyl]-furan-2-carboxamide
@<TRIPOS>ATOM
      1 C1          6.9854   10.4392   -1.6604 C.3       1 <0>        -0.1157
      2 C2          5.6916   10.5386   -0.8940 C.ar      1 <0>        -0.0675
      3 C3          5.3342   11.7324   -0.2939 C.ar      1 <0>        -0.1311
      4 C4          4.1483   11.8277    0.4105 C.ar      1 <0>        -0.0970
      5 C5          3.3166   10.7301    0.5175 C.ar      1 <0>        -0.1252
      6 C6          3.6725    9.5299   -0.0839 C.ar      1 <0>         0.1422
      7 C7          4.8671    9.4362   -0.7868 C.ar      1 <0>        -0.1420
      8 N1          2.8332    8.4168    0.0229 N.am      1 <0>        -0.6630
      9 C8          1.4954    8.5801    0.0338 C.2       1 <0>         0.6068
     10 O1          1.0190    9.7003    0.0356 O.2       1 <0>        -0.4953
     11 C9          0.6147    7.4096    0.0436 C.2       1 <0>        -0.0780
     12 C10        -0.7630    7.4338    0.0551 C.2       1 <0>        -0.1025
     13 C11        -1.1898    6.1019    0.0614 C.2       1 <0>        -0.1932
     14 C12        -0.0696    5.3214    0.0535 C.2       1 <0>         0.0635
     15 O2          1.0112    6.1195    0.0486 O.3       1 <0>        -0.1563
     16 C13        -0.0493    3.8445    0.0562 C.ar      1 <0>        -0.0262
     17 C14        -1.2472    3.1265    0.0681 C.ar      1 <0>        -0.0597
     18 C15        -1.2209    1.7476    0.0662 C.ar      1 <0>        -0.1127
     19 C16        -0.0112    1.0754    0.0627 C.ar      1 <0>        -0.0601
     20 C17         1.1792    1.7803    0.0504 C.ar      1 <0>        -0.1790
     21 C18         1.1675    3.1599    0.0473 C.ar      1 <0>        -0.0487
     22 C19         2.4915    1.0396    0.0408 C.3       1 <0>         0.5092
     23 F1          2.2493   -0.3383    0.0465 F         1 <0>        -0.1741
     24 F2          3.2117    1.3817   -1.1088 F         1 <0>        -0.1739
     25 F3          3.2318    1.3877    1.1757 F         1 <0>        -0.1739
     26 H1          7.7840   10.1292   -0.9864 H         1 <0>         0.0728
     27 H2          6.8790    9.7053   -2.4593 H         1 <0>         0.0670
     28 H3          7.2290   11.4110   -2.0897 H         1 <0>         0.0693
     29 H4          5.9831   12.5919   -0.3755 H         1 <0>         0.1248
     30 H5          3.8721   12.7613    0.8779 H         1 <0>         0.1281
     31 H6          2.3908   10.8050    1.0685 H         1 <0>         0.1391
     32 H7          5.1489    8.5030   -1.2519 H         1 <0>         0.1261
     33 H8          3.2137    7.5270    0.0891 H         1 <0>         0.4158
     34 H9         -1.3919    8.3118    0.0587 H         1 <0>         0.1691
     35 H10        -2.2129    5.7560    0.0707 H         1 <0>         0.1650
     36 H11        -2.1919    3.6499    0.0751 H         1 <0>         0.1429
     37 H12        -2.1465    1.1911    0.0717 H         1 <0>         0.1467
     38 H13         0.0037   -0.0045    0.0650 H         1 <0>         0.1457
     39 H14         2.0975    3.7090    0.0377 H         1 <0>         0.1408
@<TRIPOS>BOND
     1    1    2 1
     2    1   26 1
     3    1   27 1
     4    1   28 1
     5    2    7 ar
     6    2    3 ar
     7    3    4 ar
     8    3   29 1
     9    4    5 ar
    10    4   30 1
    11    5    6 ar
    12    5   31 1
    13    6    7 ar
    14    6    8 1
    15    7   32 1
    16    8    9 am
    17    8   33 1
    18    9   10 2
    19    9   11 1
    20   11   15 1
    21   11   12 2
    22   12   13 1
    23   12   34 1
    24   13   14 2
    25   13   35 1
    26   14   15 1
    27   14   16 1
    28   16   21 ar
    29   16   17 ar
    30   17   18 ar
    31   17   36 1
    32   18   19 ar
    33   18   37 1
    34   19   20 ar
    35   19   38 1
    36   20   21 ar
    37   20   22 1
    38   21   39 1
    39   22   23 1
    40   22   24 1
    41   22   25 1
@<TRIPOS>MOLECULE
ZINC05796043
   36    38     0     0     0
SMALL
USER_CHARGES
5-(4-chlorophenyl)-N-(m-tolyl)furan-2-carboxamide
@<TRIPOS>ATOM
      1 C1          1.9528    1.0353    1.5746 C.3       1 <0>        -0.1160
      2 C2          0.9185    1.7779    0.7686 C.ar      1 <0>        -0.0656
      3 C3         -0.0148    1.0757    0.0277 C.ar      1 <0>        -0.1329
      4 C4         -0.9687    1.7532   -0.7090 C.ar      1 <0>        -0.0953
      5 C5         -0.9895    3.1343   -0.7110 C.ar      1 <0>        -0.1485
      6 C6         -0.0506    3.8425    0.0276 C.ar      1 <0>         0.1456
      7 C7          0.9068    3.1587    0.7664 C.ar      1 <0>        -0.1215
      8 N1         -0.0691    5.2405    0.0281 N.am      1 <0>        -0.6637
      9 C8          1.0853    5.9297    0.1216 C.2       1 <0>         0.6066
     10 O1          2.1497    5.3390    0.1088 O.2       1 <0>        -0.4950
     11 C9          1.0594    7.3895    0.2386 C.2       1 <0>        -0.0818
     12 C10         2.1595    8.2123    0.3466 C.2       1 <0>        -0.1019
     13 C11         1.6770    9.5221    0.4307 C.2       1 <0>        -0.1968
     14 C12         0.3141    9.4520    0.3809 C.2       1 <0>         0.0669
     15 O2         -0.0466    8.1629    0.2652 O.3       1 <0>        -0.1563
     16 C13        -0.6099   10.6021    0.4443 C.ar      1 <0>        -0.0249
     17 C14        -0.1076   11.8990    0.5715 C.ar      1 <0>        -0.0777
     18 C15        -0.9755   12.9693    0.6247 C.ar      1 <0>        -0.1060
     19 C16        -2.3431   12.7594    0.5630 C.ar      1 <0>        -0.0240
     20 C17        -2.8477   11.4752    0.4426 C.ar      1 <0>        -0.1072
     21 C18        -1.9900   10.3970    0.3830 C.ar      1 <0>        -0.0840
     22 Cl1        -3.4294   14.1114    0.6374 Cl        1 <0>        -0.0590
     23 H1          2.8374    0.8642    0.9612 H         1 <0>         0.0738
     24 H2          2.2256    1.6266    2.4487 H         1 <0>         0.0673
     25 H3          1.5435    0.0778    1.8970 H         1 <0>         0.0688
     26 H4         -0.0011   -0.0042    0.0282 H         1 <0>         0.1250
     27 H5         -1.6986    1.2019   -1.2832 H         1 <0>         0.1285
     28 H6         -1.7354    3.6629   -1.2861 H         1 <0>         0.1261
     29 H7          1.6382    3.7064    1.3421 H         1 <0>         0.1347
     30 H8         -0.9128    5.7144   -0.0389 H         1 <0>         0.4158
     31 H9          3.1948    7.9050    0.3609 H         1 <0>         0.1681
     32 H10         2.2703   10.4198    0.5227 H         1 <0>         0.1641
     33 H11         0.9585   12.0637    0.6239 H         1 <0>         0.1419
     34 H12        -0.5882   13.9731    0.7190 H         1 <0>         0.1437
     35 H13        -3.9152   11.3179    0.3957 H         1 <0>         0.1416
     36 H14        -2.3847    9.3960    0.2894 H         1 <0>         0.1395
@<TRIPOS>BOND
     1    1    2 1
     2    1   23 1
     3    1   24 1
     4    1   25 1
     5    2    7 ar
     6    2    3 ar
     7    3    4 ar
     8    3   26 1
     9    4    5 ar
    10    4   27 1
    11    5    6 ar
    12    5   28 1
    13    6    7 ar
    14    6    8 1
    15    7   29 1
    16    8    9 am
    17    8   30 1
    18    9   10 2
    19    9   11 1
    20   11   15 1
    21   11   12 2
    22   12   13 1
    23   12   31 1
    24   13   14 2
    25   13   32 1
    26   14   15 1
    27   14   16 1
    28   16   21 ar
    29   16   17 ar
    30   17   18 ar
    31   17   33 1
    32   18   19 ar
    33   18   34 1
    34   19   20 ar
    35   19   22 1
    36   20   21 ar
    37   20   35 1
    38   21   36 1
@<TRIPOS>MOLECULE
ZINC22695608
   48    50     0     0     0
SMALL
USER_CHARGES
5-(4-chlorophenyl)-N-[3-(1-piperidyl)propyl]furan-2-carboxamide
@<TRIPOS>ATOM
      1 C1         -8.8737   -4.9647    1.6382 C.ar      1 <0>        -0.0758
      2 C2        -10.1637   -4.5448    1.8862 C.ar      1 <0>        -0.1042
      3 C3        -10.4554   -3.1922    1.9453 C.ar      1 <0>        -0.0220
      4 C4         -9.4542   -2.2531    1.7609 C.ar      1 <0>        -0.1086
      5 C5         -8.1594   -2.6603    1.5170 C.ar      1 <0>        -0.0850
      6 C6         -7.8587   -4.0228    1.4566 C.ar      1 <0>        -0.0293
      7 C7         -6.4742   -4.4657    1.1958 C.2       1 <0>         0.0724
      8 C8         -6.0556   -5.7628    1.1135 C.2       1 <0>        -0.1976
      9 C9         -4.6811   -5.7358    0.8568 C.2       1 <0>        -0.0990
     10 C10        -4.3147   -4.4092    0.7926 C.2       1 <0>        -0.0918
     11 O1         -5.4166   -3.6593    1.0060 O.3       1 <0>        -0.1601
     12 C11        -2.9635   -3.9011    0.5425 C.2       1 <0>         0.6138
     13 O2         -2.0433   -4.6787    0.3689 O.2       1 <0>        -0.5122
     14 N1         -2.7394   -2.5726    0.5048 N.am      1 <0>        -0.7404
     15 C12        -1.3883   -2.0645    0.2547 C.3       1 <0>         0.1254
     16 C13        -1.4090   -0.5347    0.2631 C.3       1 <0>        -0.1620
     17 C14         0.0021   -0.0041    0.0020 C.3       1 <0>        -0.0036
     18 N2         -0.0178    1.4648    0.0101 N.4       1 <0>        -0.3971
     19 C15        -0.8065    1.9866   -1.1134 C.3       1 <0>        -0.0097
     20 C16        -0.9267    3.5073   -0.9912 C.3       1 <0>        -0.1465
     21 C17         0.4734    4.1270   -0.9947 C.3       1 <0>        -0.1416
     22 C18         1.2898    3.5311    0.1555 C.3       1 <0>        -0.1470
     23 C19         1.3458    2.0096    0.0000 C.3       1 <0>        -0.0042
     24 Cl1       -12.0830   -2.6715    2.2514 Cl        1 <0>        -0.0540
     25 H1         -8.6483   -6.0197    1.5878 H         1 <0>         0.1426
     26 H2        -10.9488   -5.2722    2.0305 H         1 <0>         0.1457
     27 H3         -9.6880   -1.1998    1.8078 H         1 <0>         0.1413
     28 H4         -7.3796   -1.9271    1.3726 H         1 <0>         0.1364
     29 H5         -6.6702   -6.6438    1.2256 H         1 <0>         0.1649
     30 H6         -4.0320   -6.5900    0.7332 H         1 <0>         0.1671
     31 H7         -3.5710   -1.8699    0.6618 H         1 <0>         0.4300
     32 H8         -0.7092   -2.4263    1.0408 H         1 <0>         0.0807
     33 H9         -1.0380   -2.4211   -0.7252 H         1 <0>         0.0800
     34 H10        -2.0881   -0.1729   -0.5230 H         1 <0>         0.0951
     35 H11        -1.7594   -0.1781    1.2429 H         1 <0>         0.0966
     36 H12         0.6812   -0.3660    0.7881 H         1 <0>         0.1365
     37 H13         0.3525   -0.3607   -0.9778 H         1 <0>         0.1317
     38 H14        -0.3074    1.7336   -2.0605 H         1 <0>         0.1265
     39 H15        -1.8104    1.5374   -1.0966 H         1 <0>         0.1305
     40 H16        -1.5050    3.8988   -1.8411 H         1 <0>         0.1118
     41 H17        -1.4392    3.7603   -0.0513 H         1 <0>         0.0881
     42 H18         0.9690    3.9077   -1.9519 H         1 <0>         0.0812
     43 H19         0.3926    5.2163   -0.8648 H         1 <0>         0.0946
     44 H20         2.3100    3.9417    0.1321 H         1 <0>         0.1127
     45 H21         0.8137    3.7863    1.1138 H         1 <0>         0.0885
     46 H22         1.9196    1.5772    0.8330 H         1 <0>         0.1315
     47 H23         1.8347    1.7565   -0.9523 H         1 <0>         0.1264
     48 H24        -0.5029    1.7929    0.9412 H         1 <0>         0.4400
@<TRIPOS>BOND
     1    1    6 ar
     2    1    2 ar
     3    1   25 1
     4    2    3 ar
     5    2   26 1
     6    3    4 ar
     7    3   24 1
     8    4    5 ar
     9    4   27 1
    10    5    6 ar
    11    5   28 1
    12    6    7 1
    13    7   11 1
    14    7    8 2
    15    8    9 1
    16    8   29 1
    17    9   10 2
    18    9   30 1
    19   10   11 1
    20   10   12 1
    21   12   13 2
    22   12   14 am
    23   14   15 1
    24   14   31 1
    25   15   16 1
    26   15   32 1
    27   15   33 1
    28   16   17 1
    29   16   34 1
    30   16   35 1
    31   17   18 1
    32   17   36 1
    33   17   37 1
    34   18   23 1
    35   18   19 1
    36   18   48 1
    37   19   20 1
    38   19   38 1
    39   19   39 1
    40   20   21 1
    41   20   40 1
    42   20   41 1
    43   21   22 1
    44   21   42 1
    45   21   43 1
    46   22   23 1
    47   22   44 1
    48   22   45 1
    49   23   46 1
    50   23   47 1
@<TRIPOS>MOLECULE
ZINC43152618
   52    55     0     0     0
SMALL
USER_CHARGES

@<TRIPOS>ATOM
      1 C1         -0.0358    1.2994    0.8293 C.ar      1 <0>        -0.0854
      2 C2          1.1455    1.9769    1.0463 C.ar      1 <0>        -0.1085
      3 C3          2.3567    1.3128    0.9452 C.ar      1 <0>        -0.0191
      4 C4          2.3899   -0.0343    0.6254 C.ar      1 <0>        -0.1032
      5 C5          1.2155   -0.7230    0.4060 C.ar      1 <0>        -0.0729
      6 C6         -0.0091   -0.0592    0.5069 C.ar      1 <0>        -0.0350
      7 C7         -1.2705   -0.7909    0.2737 C.2       1 <0>         0.0787
      8 C8         -1.3760   -2.1154   -0.0411 C.2       1 <0>        -0.1969
      9 C9         -2.7389   -2.3991   -0.1746 C.2       1 <0>        -0.0820
     10 C10        -3.4152   -1.2233    0.0669 C.2       1 <0>        -0.1070
     11 O1         -2.5050   -0.2651    0.3418 O.3       1 <0>        -0.1629
     12 C11        -4.8691   -1.0452    0.0361 C.2       1 <0>         0.6207
     13 O2         -5.5982   -2.0122   -0.0863 O.2       1 <0>        -0.4900
     14 N1         -5.3992    0.1892    0.1432 N.am      1 <0>        -0.6293
     15 C12        -4.5412    1.3842    0.1353 C.3       1 <0>         0.0767
     16 C13        -5.0969    2.3743   -0.8937 C.3       1 <0>        -0.0251
     17 N2         -6.5096    2.6445   -0.5983 N.4       1 <0>        -0.3826
     18 C14        -7.2988    1.4174   -0.7644 C.3       1 <0>        -0.0250
     19 C15        -6.8527    0.3802    0.2653 C.3       1 <0>         0.0914
     20 C16        -7.0116    3.6755   -1.5164 C.3       1 <0>         0.0245
     21 C17        -6.1975    4.9584   -1.3367 C.3       1 <0>        -0.1407
     22 C18        -6.7203    6.0323   -2.2930 C.3       1 <0>        -0.1173
     23 C19        -8.1924    6.3151   -1.9866 C.3       1 <0>        -0.1317
     24 C20        -9.0064    5.0322   -2.1663 C.3       1 <0>        -0.1174
     25 C21        -8.4836    3.9583   -1.2100 C.3       1 <0>        -0.1410
     26 Cl1         3.8395    2.1728    1.2199 Cl        1 <0>        -0.0499
     27 H1         -0.9799    1.8172    0.9128 H         1 <0>         0.1342
     28 H2          1.1262    3.0276    1.2953 H         1 <0>         0.1424
     29 H3          3.3376   -0.5464    0.5473 H         1 <0>         0.1471
     30 H4          1.2427   -1.7734    0.1563 H         1 <0>         0.1434
     31 H5         -0.5604   -2.8126   -0.1642 H         1 <0>         0.1675
     32 H6         -3.1768   -3.3554   -0.4197 H         1 <0>         0.1699
     33 H7         -4.5436    1.8434    1.1238 H         1 <0>         0.0997
     34 H8         -3.5244    1.1032   -0.1388 H         1 <0>         0.1440
     35 H9         -4.5311    3.3046   -0.8453 H         1 <0>         0.1476
     36 H10        -5.0097    1.9473   -1.8928 H         1 <0>         0.1346
     37 H11        -8.3556    1.6427   -0.6208 H         1 <0>         0.1485
     38 H12        -7.1451    1.0194   -1.7674 H         1 <0>         0.1349
     39 H13        -7.3633   -0.5642    0.0771 H         1 <0>         0.1398
     40 H14        -7.0925    0.7363    1.2672 H         1 <0>         0.0987
     41 H15        -6.9152    3.3250   -2.5440 H         1 <0>         0.1369
     42 H16        -6.2939    5.3090   -0.3091 H         1 <0>         0.0876
     43 H17        -5.1488    4.7569   -1.5550 H         1 <0>         0.0872
     44 H18        -6.1404    6.9463   -2.1650 H         1 <0>         0.0854
     45 H19        -6.6239    5.6818   -3.3206 H         1 <0>         0.0744
     46 H20        -8.2888    6.6657   -0.9590 H         1 <0>         0.0706
     47 H21        -8.5648    7.0802   -2.6679 H         1 <0>         0.0799
     48 H22       -10.0551    5.2337   -1.9480 H         1 <0>         0.0856
     49 H23        -8.9100    4.6817   -3.1939 H         1 <0>         0.0744
     50 H24        -9.0635    3.0443   -1.3381 H         1 <0>         0.0881
     51 H25        -8.5800    4.3089   -0.1824 H         1 <0>         0.0876
     52 H26        -6.5965    2.9726    0.3519 H         1 <0>         0.4212
@<TRIPOS>BOND
     1    1    6 ar
     2    1    2 ar
     3    1   27 1
     4    2    3 ar
     5    2   28 1
     6    3    4 ar
     7    3   26 1
     8    4    5 ar
     9    4   29 1
    10    5    6 ar
    11    5   30 1
    12    6    7 1
    13    7   11 1
    14    7    8 2
    15    8    9 1
    16    8   31 1
    17    9   10 2
    18    9   32 1
    19   10   11 1
    20   10   12 1
    21   12   13 2
    22   12   14 am
    23   14   19 1
    24   14   15 1
    25   15   16 1
    26   15   33 1
    27   15   34 1
    28   16   17 1
    29   16   35 1
    30   16   36 1
    31   17   18 1
    32   17   20 1
    33   17   52 1
    34   18   19 1
    35   18   37 1
    36   18   38 1
    37   19   39 1
    38   19   40 1
    39   20   25 1
    40   20   21 1
    41   20   41 1
    42   21   22 1
    43   21   42 1
    44   21   43 1
    45   22   23 1
    46   22   44 1
    47   22   45 1
    48   23   24 1
    49   23   46 1
    50   23   47 1
    51   24   25 1
    52   24   48 1
    53   24   49 1
    54   25   50 1
    55   25   51 1
@<TRIPOS>MOLECULE
ZINC43152618
   51    54     0     0     0
SMALL
USER_CHARGES

@<TRIPOS>ATOM
      1 C1         -0.0369    1.2975    0.8414 C.ar      1 <0>        -0.0855
      2 C2          1.1441    1.9745    1.0616 C.ar      1 <0>        -0.1065
      3 C3          2.3554    1.3105    0.9615 C.ar      1 <0>        -0.0255
      4 C4          2.3890   -0.0362    0.6395 C.ar      1 <0>        -0.1057
      5 C5          1.2149   -0.7244    0.4170 C.ar      1 <0>        -0.0795
      6 C6         -0.0098   -0.0606    0.5169 C.ar      1 <0>        -0.0218
      7 C7         -1.2709   -0.7917    0.2803 C.2       1 <0>         0.0531
      8 C8         -1.3760   -2.1157   -0.0368 C.2       1 <0>        -0.1938
      9 C9         -2.7387   -2.3990   -0.1731 C.2       1 <0>        -0.1088
     10 C10        -3.4153   -1.2235    0.0691 C.2       1 <0>        -0.0745
     11 O1         -2.5054   -0.2659    0.3471 O.3       1 <0>        -0.1505
     12 C11        -4.8691   -1.0452    0.0361 C.2       1 <0>         0.6045
     13 O2         -5.5981   -2.0120   -0.0882 O.2       1 <0>        -0.5175
     14 N1         -5.3992    0.1892    0.1432 N.am      1 <0>        -0.6054
     15 C12        -4.5401    1.3830    0.1352 C.3       1 <0>         0.1032
     16 C13        -5.0831    2.3665   -0.9070 C.3       1 <0>         0.0377
     17 N2         -6.5038    2.6254   -0.6377 N.3       1 <0>        -0.5334
     18 C14        -7.3041    1.4014   -0.7762 C.3       1 <0>         0.0360
     19 C15        -6.8526    0.3786    0.2652 C.3       1 <0>         0.1175
     20 C16        -7.0185    3.6920   -1.5069 C.3       1 <0>         0.0870
     21 C17        -6.2294    4.9788   -1.2571 C.3       1 <0>        -0.1127
     22 C18        -6.7655    6.0897   -2.1623 C.3       1 <0>        -0.1190
     23 C19        -8.2445    6.3302   -1.8533 C.3       1 <0>        -0.1211
     24 C20        -9.0336    5.0435   -2.1031 C.3       1 <0>        -0.1189
     25 C21        -8.4975    3.9326   -1.1979 C.3       1 <0>        -0.1150
     26 Cl1         3.8378    2.1698    1.2401 Cl        1 <0>        -0.0601
     27 H1         -0.9811    1.8153    0.9242 H         1 <0>         0.1389
     28 H2          1.1245    3.0248    1.3123 H         1 <0>         0.1412
     29 H3          3.3367   -0.5483    0.5622 H         1 <0>         0.1429
     30 H4          1.2424   -1.7744    0.1657 H         1 <0>         0.1411
     31 H5         -0.5603   -2.8128   -0.1597 H         1 <0>         0.1617
     32 H6         -3.1763   -3.3549   -0.4206 H         1 <0>         0.1657
     33 H7         -4.5524    1.8496    1.1202 H         1 <0>         0.0816
     34 H8         -3.5207    1.0988   -0.1258 H         1 <0>         0.1044
     35 H9         -4.5258    3.3015   -0.8498 H         1 <0>         0.0947
     36 H10        -4.9740    1.9378   -1.9032 H         1 <0>         0.0386
     37 H11        -8.3576    1.6364   -0.6242 H         1 <0>         0.0968
     38 H12        -7.1640    0.9861   -1.7742 H         1 <0>         0.0393
     39 H13        -7.3614   -0.5693    0.0901 H         1 <0>         0.0995
     40 H14        -7.0915    0.7468    1.2630 H         1 <0>         0.0807
     41 H15        -6.9089    3.3953   -2.5500 H         1 <0>         0.0406
     42 H16        -6.3391    5.2755   -0.2140 H         1 <0>         0.0729
     43 H17        -5.1757    4.8074   -1.4772 H         1 <0>         0.0620
     44 H18        -6.2033    7.0064   -1.9843 H         1 <0>         0.0652
     45 H19        -6.6558    5.7930   -3.2054 H         1 <0>         0.0600
     46 H20        -8.3541    6.6270   -0.8102 H         1 <0>         0.0638
     47 H21        -8.6264    7.1217   -2.4982 H         1 <0>         0.0620
     48 H22       -10.0873    5.2149   -1.8829 H         1 <0>         0.0654
     49 H23        -8.9240    4.7468   -3.1462 H         1 <0>         0.0601
     50 H24        -9.0597    3.0159   -1.3759 H         1 <0>         0.0636
     51 H25        -8.6072    4.2293   -0.1548 H         1 <0>         0.0732
@<TRIPOS>BOND
     1    1    6 ar
     2    1    2 ar
     3    1   27 1
     4    2    3 ar
     5    2   28 1
     6    3    4 ar
     7    3   26 1
     8    4    5 ar
     9    4   29 1
    10    5    6 ar
    11    5   30 1
    12    6    7 1
    13    7   11 1
    14    7    8 2
    15    8    9 1
    16    8   31 1
    17    9   10 2
    18    9   32 1
    19   10   11 1
    20   10   12 1
    21   12   13 2
    22   12   14 am
    23   14   19 1
    24   14   15 1
    25   15   16 1
    26   15   33 1
    27   15   34 1
    28   16   17 1
    29   16   35 1
    30   16   36 1
    31   17   18 1
    32   17   20 1
    33   18   19 1
    34   18   37 1
    35   18   38 1
    36   19   39 1
    37   19   40 1
    38   20   25 1
    39   20   21 1
    40   20   41 1
    41   21   22 1
    42   21   42 1
    43   21   43 1
    44   22   23 1
    45   22   44 1
    46   22   45 1
    47   23   24 1
    48   23   46 1
    49   23   47 1
    50   24   25 1
    51   24   48 1
    52   24   49 1
    53   25   50 1
    54   25   51 1
@<TRIPOS>MOLECULE
ZINC06734508
   39    41     0     0     0
SMALL
USER_CHARGES
[5-(4-chlorophenyl)-2-furyl]-(4-methylpiperazin-1-yl)-methanone
@<TRIPOS>ATOM
      1 C1          0.8946    1.0765    2.2954 C.3       1 <0>        -0.0420
      2 C2          0.4409    1.1377   -0.0822 C.3       1 <0>        -0.0153
      3 C3         -0.5638    1.6252   -1.1316 C.3       1 <0>         0.0881
      4 N1         -0.6563    3.0905   -1.0445 N.am      1 <0>        -0.6302
      5 C4         -0.9021    3.6952    0.2735 C.3       1 <0>         0.0726
      6 C5          0.1159    3.1261    1.2676 C.3       1 <0>        -0.0157
      7 C6         -0.5190    3.8588   -2.1433 C.2       1 <0>         0.6205
      8 O1         -0.1900    3.3547   -3.2012 O.2       1 <0>        -0.4896
      9 C7         -0.7659    5.3008   -2.0644 C.2       1 <0>        -0.1081
     10 C8         -0.5246    6.2186   -3.0631 C.2       1 <0>        -0.0814
     11 C9         -0.9027    7.4685   -2.5625 C.2       1 <0>        -0.1970
     12 C10        -1.3562    7.2707   -1.2898 C.2       1 <0>         0.0793
     13 O2         -1.2747    5.9608   -1.0026 O.3       1 <0>        -0.1631
     14 C11        -1.8594    8.3214   -0.3821 C.ar      1 <0>        -0.0355
     15 C12        -1.8944    9.6529   -0.8020 C.ar      1 <0>        -0.0728
     16 C13        -2.3704   10.6287    0.0483 C.ar      1 <0>        -0.1032
     17 C14        -2.8032   10.2920    1.3202 C.ar      1 <0>        -0.0190
     18 C15        -2.7656    8.9741    1.7445 C.ar      1 <0>        -0.1086
     19 C16        -2.2968    7.9884    0.9017 C.ar      1 <0>        -0.0853
     20 Cl1        -3.3947   11.5271    2.3871 Cl        1 <0>        -0.0496
     21 H1          1.9397    1.3251    2.1109 H         1 <0>         0.1238
     22 H2          0.5904    1.4792    3.2615 H         1 <0>         0.1243
     23 H3          0.7741   -0.0069    2.2990 H         1 <0>         0.1248
     24 H4          0.4406    0.0480   -0.0570 H         1 <0>         0.1452
     25 H5          1.4379    1.4953   -0.3395 H         1 <0>         0.1362
     26 H6         -0.2226    1.3383   -2.1263 H         1 <0>         0.1393
     27 H7         -1.5403    1.1816   -0.9374 H         1 <0>         0.0997
     28 H8         -0.7845    4.7768    0.2078 H         1 <0>         0.1443
     29 H9         -1.9119    3.4532    0.6048 H         1 <0>         0.1002
     30 H10         1.1174    3.4564    0.9918 H         1 <0>         0.1357
     31 H11        -0.1198    3.4789    2.2716 H         1 <0>         0.1446
     32 H12        -0.1216    6.0126   -4.0437 H         1 <0>         0.1701
     33 H13        -0.8465    8.4125   -3.0842 H         1 <0>         0.1677
     34 H14        -1.5534    9.9173   -1.7921 H         1 <0>         0.1435
     35 H15        -2.4022   11.6581   -0.2768 H         1 <0>         0.1472
     36 H16        -3.1038    8.7180    2.7377 H         1 <0>         0.1425
     37 H17        -2.2676    6.9612    1.2339 H         1 <0>         0.1341
     38 N2          0.0299    1.6497    1.2431 N.4       1 <0>        -0.3976
     39 H18        -0.9418    1.3700    1.4212 H         1 <0>         0.4302
@<TRIPOS>BOND
     1    1   21 1
     2    1   22 1
     3    1   23 1
     4    1   38 1
     5    2    3 1
     6    2   24 1
     7    2   25 1
     8    2   38 1
     9    3    4 1
    10    3   26 1
    11    3   27 1
    12    4    5 1
    13    4    7 am
    14    5    6 1
    15    5   28 1
    16    5   29 1
    17    6   30 1
    18    6   31 1
    19    6   38 1
    20    7    8 2
    21    7    9 1
    22    9   13 1
    23    9   10 2
    24   10   11 1
    25   10   32 1
    26   11   12 2
    27   11   33 1
    28   12   13 1
    29   12   14 1
    30   14   19 ar
    31   14   15 ar
    32   15   16 ar
    33   15   34 1
    34   16   17 ar
    35   16   35 1
    36   17   18 ar
    37   17   20 1
    38   18   19 ar
    39   18   36 1
    40   19   37 1
    41   38   39 1
@<TRIPOS>MOLECULE
ZINC40464616
   42    44     0     0     0
SMALL
USER_CHARGES

@<TRIPOS>ATOM
      1 C1         -0.0178    1.4648    0.0101 C.3       1 <0>        -0.0473
      2 N1          0.0021   -0.0041    0.0020 N.4       1 <0>        -0.3867
      3 C2          0.6815   -0.4760   -1.2105 C.3       1 <0>        -0.0014
      4 C3          0.6339   -2.0045   -1.2642 C.3       1 <0>        -0.1574
      5 C4          1.3359   -2.5754   -0.0287 C.3       1 <0>         0.1364
      6 C5          0.6658   -2.0178    1.2303 C.3       1 <0>        -0.1634
      7 C6          0.7122   -0.4888    1.1916 C.3       1 <0>        -0.0028
      8 N2          1.2277   -4.0364   -0.0351 N.am      1 <0>        -0.7238
      9 C7          2.1422   -4.7827    0.6154 C.2       1 <0>         0.6168
     10 O1          3.0580   -4.2429    1.2083 O.2       1 <0>        -0.5090
     11 C8          2.0340   -6.2438    0.6090 C.2       1 <0>        -0.1013
     12 C9          2.8925   -7.1213    1.2344 C.2       1 <0>        -0.0924
     13 C10         2.4165   -8.4093    0.9695 C.2       1 <0>        -0.2005
     14 C11         1.2967   -8.2732    0.2001 C.2       1 <0>         0.0801
     15 O2          1.0725   -6.9646   -0.0058 O.3       1 <0>        -0.1592
     16 C12         0.4664   -9.3804   -0.3152 C.ar      1 <0>        -0.0332
     17 C13         0.8008  -10.7038   -0.0198 C.ar      1 <0>        -0.0745
     18 C14         0.0211  -11.7334   -0.5036 C.ar      1 <0>        -0.1047
     19 C15        -1.0914  -11.4571   -1.2808 C.ar      1 <0>        -0.0203
     20 C16        -1.4280  -10.1468   -1.5776 C.ar      1 <0>        -0.1086
     21 C17        -0.6597   -9.1082   -1.0950 C.ar      1 <0>        -0.0834
     22 Cl1        -2.0678  -12.7586   -1.8861 Cl        1 <0>        -0.0526
     23 H1          1.0047    1.8421    0.0024 H         1 <0>         0.1231
     24 H2         -0.5450    1.8259   -0.8730 H         1 <0>         0.1250
     25 H3         -0.5280    1.8163    0.9069 H         1 <0>         0.1251
     26 H4          0.1827   -0.0663   -2.0888 H         1 <0>         0.1378
     27 H5          1.7201   -0.1456   -1.1964 H         1 <0>         0.1335
     28 H6         -0.4044   -2.3361   -1.2786 H         1 <0>         0.0959
     29 H7          1.1404   -2.3531   -2.1643 H         1 <0>         0.1212
     30 H8          2.3869   -2.2866   -0.0407 H         1 <0>         0.1091
     31 H9         -0.3718   -2.3496    1.2677 H         1 <0>         0.0922
     32 H10         1.1951   -2.3758    2.1133 H         1 <0>         0.1189
     33 H11         1.7502   -0.1581    1.1545 H         1 <0>         0.1330
     34 H12         0.2361   -0.0886    2.0867 H         1 <0>         0.1358
     35 H13         0.4979   -4.4666   -0.5076 H         1 <0>         0.4116
     36 H14         3.7649   -6.8641    1.8167 H         1 <0>         0.1679
     37 H15         2.8526   -9.3371    1.3094 H         1 <0>         0.1660
     38 H16         1.6683  -10.9205    0.5859 H         1 <0>         0.1428
     39 H17         0.2788  -12.7572   -0.2762 H         1 <0>         0.1461
     40 H18        -2.2966   -9.9378   -2.1845 H         1 <0>         0.1422
     41 H19        -0.9260   -8.0867   -1.3231 H         1 <0>         0.1368
     42 H20        -0.9449   -0.3523    0.0117 H         1 <0>         0.4251
@<TRIPOS>BOND
     1    1    2 1
     2    1   23 1
     3    1   24 1
     4    1   25 1
     5    2    7 1
     6    2    3 1
     7    2   42 1
     8    3    4 1
     9    3   26 1
    10    3   27 1
    11    4    5 1
    12    4   28 1
    13    4   29 1
    14    5    6 1
    15    5    8 1
    16    5   30 1
    17    6    7 1
    18    6   31 1
    19    6   32 1
    20    7   33 1
    21    7   34 1
    22    8    9 am
    23    8   35 1
    24    9   10 2
    25    9   11 1
    26   11   15 1
    27   11   12 2
    28   12   13 1
    29   12   36 1
    30   13   14 2
    31   13   37 1
    32   14   15 1
    33   14   16 1
    34   16   21 ar
    35   16   17 ar
    36   17   18 ar
    37   17   38 1
    38   18   19 ar
    39   18   39 1
    40   19   20 ar
    41   19   22 1
    42   20   21 ar
    43   20   40 1
    44   21   41 1
@<TRIPOS>MOLECULE
ZINC42878005
   36    38     0     0     0
SMALL
USER_CHARGES

@<TRIPOS>ATOM
      1 C1         -0.0358    1.2994    0.8293 C.ar      1 <0>        -0.0852
      2 C2          1.1455    1.9769    1.0463 C.ar      1 <0>        -0.1086
      3 C3          2.3567    1.3128    0.9452 C.ar      1 <0>        -0.0188
      4 C4          2.3899   -0.0343    0.6254 C.ar      1 <0>        -0.1032
      5 C5          1.2155   -0.7230    0.4060 C.ar      1 <0>        -0.0726
      6 C6         -0.0091   -0.0592    0.5069 C.ar      1 <0>        -0.0359
      7 C7         -1.2705   -0.7909    0.2737 C.2       1 <0>         0.0802
      8 C8         -1.3760   -2.1154   -0.0411 C.2       1 <0>        -0.1972
      9 C9         -2.7389   -2.3991   -0.1746 C.2       1 <0>        -0.0807
     10 C10        -3.4152   -1.2233    0.0669 C.2       1 <0>        -0.1091
     11 O1         -2.5050   -0.2651    0.3418 O.3       1 <0>        -0.1634
     12 C11        -4.8691   -1.0452    0.0361 C.2       1 <0>         0.6207
     13 O2         -5.5982   -2.0122   -0.0863 O.2       1 <0>        -0.4890
     14 N1         -5.3992    0.1892    0.1432 N.am      1 <0>        -0.6313
     15 C12        -4.5412    1.3842    0.1353 C.3       1 <0>         0.0729
     16 C13        -5.0969    2.3743   -0.8937 C.3       1 <0>        -0.0211
     17 N2         -6.5096    2.6445   -0.5983 N.4       1 <0>        -0.5055
     18 C14        -7.2988    1.4174   -0.7644 C.3       1 <0>        -0.0205
     19 C15        -6.8527    0.3802    0.2653 C.3       1 <0>         0.0876
     20 Cl1         3.8395    2.1728    1.2199 Cl        1 <0>        -0.0494
     21 H1         -0.9799    1.8172    0.9128 H         1 <0>         0.1341
     22 H2          1.1262    3.0276    1.2953 H         1 <0>         0.1426
     23 H3          3.3376   -0.5464    0.5473 H         1 <0>         0.1473
     24 H4          1.2427   -1.7734    0.1563 H         1 <0>         0.1435
     25 H5         -0.5604   -2.8126   -0.1642 H         1 <0>         0.1678
     26 H6         -3.1768   -3.3554   -0.4197 H         1 <0>         0.1702
     27 H7         -4.5436    1.8434    1.1238 H         1 <0>         0.1011
     28 H8         -3.5244    1.1032   -0.1388 H         1 <0>         0.1441
     29 H9         -4.5311    3.3046   -0.8453 H         1 <0>         0.1496
     30 H10        -5.0097    1.9473   -1.8928 H         1 <0>         0.1367
     31 H11        -6.5965    2.9726    0.3519 H         1 <0>         0.4298
     32 H12        -8.3556    1.6427   -0.6208 H         1 <0>         0.1505
     33 H13        -7.1451    1.0194   -1.7674 H         1 <0>         0.1369
     34 H14        -7.3633   -0.5642    0.0771 H         1 <0>         0.1398
     35 H15        -7.0925    0.7363    1.2672 H         1 <0>         0.0999
     36 H16        -6.8544    3.3526   -1.2289 H         1 <0>         0.4363
@<TRIPOS>BOND
     1    1    6 ar
     2    1    2 ar
     3    1   21 1
     4    2    3 ar
     5    2   22 1
     6    3    4 ar
     7    3   20 1
     8    4    5 ar
     9    4   23 1
    10    5    6 ar
    11    5   24 1
    12    6    7 1
    13    7   11 1
    14    7    8 2
    15    8    9 1
    16    8   25 1
    17    9   10 2
    18    9   26 1
    19   10   11 1
    20   10   12 1
    21   12   13 2
    22   12   14 am
    23   14   19 1
    24   14   15 1
    25   15   16 1
    26   15   27 1
    27   15   28 1
    28   16   17 1
    29   16   29 1
    30   16   30 1
    31   17   18 1
    32   17   31 1
    33   17   36 1
    34   18   19 1
    35   18   32 1
    36   18   33 1
    37   19   34 1
    38   19   35 1
@<TRIPOS>MOLECULE
ZINC42878005
   35    37     0     0     0
SMALL
USER_CHARGES

@<TRIPOS>ATOM
      1 C1         -0.0246    1.3973   -0.1902 C.ar      1 <0>        -0.0860
      2 C2          1.1598    2.1012   -0.2508 C.ar      1 <0>        -0.1065
      3 C3          2.3695    1.4269   -0.2658 C.ar      1 <0>        -0.0254
      4 C4          2.3981    0.0430   -0.2206 C.ar      1 <0>        -0.1055
      5 C5          1.2207   -0.6723   -0.1598 C.ar      1 <0>        -0.0793
      6 C6         -0.0024    0.0017   -0.1439 C.ar      1 <0>        -0.0222
      7 C7         -1.2670   -0.7582   -0.0785 C.2       1 <0>         0.0511
      8 C8         -1.3765   -2.1182   -0.0238 C.2       1 <0>        -0.1931
      9 C9         -2.7413   -2.4191    0.0272 C.2       1 <0>        -0.1075
     10 C10        -3.4146   -1.2173    0.0012 C.2       1 <0>        -0.0752
     11 O1         -2.5003   -0.2259   -0.0570 O.3       1 <0>        -0.1500
     12 C11        -4.8691   -1.0452    0.0361 C.2       1 <0>         0.6032
     13 O2         -5.5987   -2.0172   -0.0317 O.2       1 <0>        -0.5174
     14 N1         -5.3992    0.1892    0.1432 N.am      1 <0>        -0.6057
     15 C12        -4.5401    1.3830    0.1352 C.3       1 <0>         0.0941
     16 C13        -4.8996    2.2496    1.3468 C.3       1 <0>         0.0428
     17 N2         -6.3429    2.5229    1.3384 N.3       1 <0>        -0.6896
     18 C14        -7.1206    1.2844    1.4776 C.3       1 <0>         0.0419
     19 C15        -6.8526    0.3786    0.2652 C.3       1 <0>         0.1155
     20 Cl1         3.8560    2.3202   -0.3421 Cl        1 <0>        -0.0598
     21 H1         -0.9671    1.9244   -0.1740 H         1 <0>         0.1385
     22 H2          1.1439    3.1805   -0.2869 H         1 <0>         0.1414
     23 H3          3.3446   -0.4771   -0.2333 H         1 <0>         0.1431
     24 H4          1.2443   -1.7515   -0.1250 H         1 <0>         0.1412
     25 H5         -0.5624   -2.8279   -0.0209 H         1 <0>         0.1620
     26 H6         -3.1824   -3.4036    0.0772 H         1 <0>         0.1661
     27 H7         -3.4944    1.0820    0.1977 H         1 <0>         0.1121
     28 H8         -4.7072    1.9482   -0.7817 H         1 <0>         0.0818
     29 H9         -4.6347    1.7217    2.2630 H         1 <0>         0.0373
     30 H10        -4.3510    3.1902    1.2969 H         1 <0>         0.0910
     31 H11        -6.8248    0.7700    2.3919 H         1 <0>         0.0382
     32 H12        -8.1828    1.5250    1.5226 H         1 <0>         0.0923
     33 H13        -7.2378    0.8492   -0.6395 H         1 <0>         0.0810
     34 H14        -7.3365   -0.5867    0.4136 H         1 <0>         0.0992
     35 H15        -6.5894    3.1873    2.0567 H         1 <0>         0.3498
@<TRIPOS>BOND
     1    1    6 ar
     2    1    2 ar
     3    1   21 1
     4    2    3 ar
     5    2   22 1
     6    3    4 ar
     7    3   20 1
     8    4    5 ar
     9    4   23 1
    10    5    6 ar
    11    5   24 1
    12    6    7 1
    13    7   11 1
    14    7    8 2
    15    8    9 1
    16    8   25 1
    17    9   10 2
    18    9   26 1
    19   10   11 1
    20   10   12 1
    21   12   13 2
    22   12   14 am
    23   14   19 1
    24   14   15 1
    25   15   16 1
    26   15   27 1
    27   15   28 1
    28   16   17 1
    29   16   29 1
    30   16   30 1
    31   17   18 1
    32   17   35 1
    33   18   19 1
    34   18   31 1
    35   18   32 1
    36   19   33 1
    37   19   34 1
