@<TRIPOS>MOLECULE
ZINC04217451
   51    53     0     0     0
SMALL
USER_CHARGES
2,5-diamino-6-[5-(6-aminopurin-9-yl)-3,4-dihydroxy-tetrahydrofuran-2-yl]-hexanoic acid
@<TRIPOS>ATOM
      1 C1          3.1969    3.0661   -0.0133 C.ar      1 <0>         0.3565
      2 N1          3.9808    2.0032   -0.0265 N.ar      1 <0>        -0.5701
      3 C2          3.4744    0.7746   -0.0274 C.ar      1 <0>         0.4542
      4 C3          2.0768    0.6264   -0.0144 C.ar      1 <0>        -0.0713
      5 C4          1.2867    1.7880   -0.0006 C.ar      1 <0>         0.3076
      6 N2          1.8839    2.9755   -0.0006 N.ar      1 <0>        -0.5322
      7 N3         -0.0164    1.3589    0.0095 N.pl3     1 <0>        -0.4792
      8 C5          0.0021   -0.0041    0.0020 C.2       1 <0>         0.2593
      9 N4          1.2311   -0.4319   -0.0120 N.2       1 <0>        -0.4421
     10 C6         -1.2091    2.2096    0.0200 C.3       1 <0>         0.3285
     11 H1         -1.0362    3.1036    0.6193 H         1 <0>         0.1277
     12 C7         -1.6195    2.5921   -1.4248 C.3       1 <0>         0.0336
     13 H2         -1.4571    1.7590   -2.1087 H         1 <0>         0.0914
     14 C8         -3.1303    2.8892   -1.2649 C.3       1 <0>         0.0455
     15 H3         -3.6891    2.4917   -2.1123 H         1 <0>         0.0932
     16 C9         -3.5241    2.1565    0.0323 C.3       1 <0>         0.0758
     17 H4         -3.8654    2.8768    0.7758 H         1 <0>         0.0908
     18 O1         -2.3509    1.4782    0.5158 O.3       1 <0>        -0.3612
     19 C10        -4.6311    1.1413   -0.2592 C.3       1 <0>        -0.1460
     20 C11        -5.1014    0.5090    1.0523 C.3       1 <0>         0.0368
     21 H5         -4.2468    0.0816    1.5766 H         1 <0>         0.1596
     22 C12        -6.1185   -0.5936    0.7509 C.3       1 <0>        -0.1574
     23 C13        -6.4951   -1.3089    2.0499 C.3       1 <0>        -0.1454
     24 C14        -7.5121   -2.4115    1.7486 C.3       1 <0>        -0.0172
     25 H6         -7.1097   -3.0785    0.9861 H         1 <0>         0.1476
     26 C15        -7.7904   -3.1953    3.0053 C.2       1 <0>         0.4488
     27 O2         -8.7871   -2.9693    3.6499 O.co2     1 <0>        -0.6069
     28 O3         -3.3527    4.2949   -1.1358 O.3       1 <0>        -0.5448
     29 O4         -0.9148    3.7550   -1.8642 O.3       1 <0>        -0.5233
     30 N5          4.3038   -0.3331   -0.0412 N.pl3     1 <0>        -0.7422
     31 H7          3.6503    4.0463   -0.0132 H         1 <0>         0.2101
     32 H8         -0.8739   -0.6357    0.0067 H         1 <0>         0.2233
     33 H9         -5.4691    1.6456   -0.7405 H         1 <0>         0.1134
     34 H10        -4.2467    0.3642   -0.9198 H         1 <0>         0.1296
     35 H11        -7.0111   -0.1531    0.3068 H         1 <0>         0.0825
     36 H12        -5.6821   -1.3101    0.0550 H         1 <0>         0.1306
     37 H13        -5.6024   -1.7494    2.4941 H         1 <0>         0.1303
     38 H14        -6.9315   -0.5924    2.7459 H         1 <0>         0.0798
     39 H15        -9.4249   -2.5173    0.9949 H         1 <0>         0.4445
     40 H16        -9.1526   -1.1844    1.9513 H         1 <0>         0.4344
     41 H17        -6.5240    1.9485    1.4299 H         1 <0>         0.4333
     42 H18        -5.9897    1.1584    2.7923 H         1 <0>         0.4415
     43 H19        -3.0685    4.8102   -1.9031 H         1 <0>         0.3992
     44 H20        -1.1376    4.0338   -2.7629 H         1 <0>         0.3902
     45 H21         4.1342   -0.8867    0.7742 H         1 <0>         0.3727
     46 H22         5.2669   -0.2178   -0.0500 H         1 <0>         0.3782
     47 O5         -6.9311   -4.1444    3.4086 O.co2     1 <0>        -0.6872
     48 N6         -8.7507   -1.7948    1.2418 N.4       1 <0>        -0.6300
     49 H23        -8.5336   -1.2394    0.4059 H         1 <0>         0.4152
     50 N7         -5.7092    1.5531    1.8961 N.4       1 <0>        -0.6521
     51 H24        -5.0217    2.2982    2.0586 H         1 <0>         0.4431
@<TRIPOS>BOND
     1    1    6 ar
     2    1    2 ar
     3    1   31 1
     4    2    3 ar
     5    3    4 ar
     6    3   30 1
     7    4    9 1
     8    4    5 ar
     9    5    6 ar
    10    5    7 1
    11    7    8 1
    12    7   10 1
    13    8    9 2
    14    8   32 1
    15   10   11 1
    16   10   18 1
    17   10   12 1
    18   12   13 1
    19   12   14 1
    20   12   29 1
    21   14   15 1
    22   14   16 1
    23   14   28 1
    24   16   17 1
    25   16   18 1
    26   16   19 1
    27   19   20 1
    28   19   33 1
    29   19   34 1
    30   20   21 1
    31   20   22 1
    32   20   50 1
    33   22   23 1
    34   22   35 1
    35   22   36 1
    36   23   24 1
    37   23   37 1
    38   23   38 1
    39   24   25 1
    40   24   26 1
    41   24   48 1
    42   26   27 2
    43   26   47 1
    44   28   43 1
    45   29   44 1
    46   30   45 1
    47   30   46 1
    48   39   48 1
    49   40   48 1
    50   41   50 1
    51   42   50 1
    52   48   49 1
    53   50   51 1
