@<TRIPOS>MOLECULE
ZINC40405245
   54    55     0     0     0
SMALL
USER_CHARGES

@<TRIPOS>ATOM
      1 C1          0.1422    1.5365    0.1302 C.3       1 <0>        -0.1635
      2 C2          0.1640    0.0142   -0.0210 C.3       1 <0>        -0.1138
      3 C3          0.8134   -0.3513   -1.3309 C.ar      1 <0>         0.0735
      4 C4          0.0444   -0.4733   -2.4734 C.ar      1 <0>        -0.1533
      5 C5          0.6400   -0.8085   -3.6747 C.ar      1 <0>         0.0400
      6 C6          2.0048   -1.0213   -3.7340 C.ar      1 <0>        -0.6829
      7 C7          2.7737   -0.8984   -2.5921 C.ar      1 <0>         0.0783
      8 C8          2.1785   -0.5589   -1.3912 C.ar      1 <0>        -0.7036
      9 S1          3.1595   -0.3961    0.0633 S.o2      1 <0>         2.6925
     10 O1          4.4934   -0.7149   -0.3087 O.2       1 <0>        -0.9458
     11 O2          2.8097    0.8490    0.6520 O.2       1 <0>        -0.9328
     12 N1          2.6685   -1.5735    1.1193 N.pl3     1 <0>        -1.1199
     13 C9          2.8643   -2.9861    0.7841 C.3       1 <0>         0.1162
     14 C10         2.7300   -3.8341    2.0505 C.3       1 <0>        -0.1594
     15 C11         2.9344   -5.3094    1.7004 C.3       1 <0>        -0.0125
     16 N2          2.8054   -6.1237    2.9162 N.4       1 <0>        -0.3866
     17 C12         2.8823   -7.5474    2.5626 C.3       1 <0>        -0.0479
     18 C13         3.8927   -5.7907    3.8462 C.3       1 <0>        -0.0547
     19 S2          2.7640   -1.4497   -5.2653 S.o2      1 <0>         2.5804
     20 O3          3.9703   -2.1288   -4.9446 O.2       1 <0>        -0.9304
     21 O4          1.7507   -2.0359   -6.0709 O.2       1 <0>        -0.9288
     22 C14         3.2281    0.0551   -6.0557 C.ar      1 <0>        -0.6635
     23 C15         2.3412    0.6930   -6.9027 C.ar      1 <0>        -0.0230
     24 C16         2.7053    1.8736   -7.5228 C.ar      1 <0>        -0.1365
     25 C17         3.9561    2.4165   -7.2956 C.ar      1 <0>        -0.0571
     26 C18         4.8427    1.7791   -6.4478 C.ar      1 <0>        -0.1363
     27 C19         4.4770    0.6007   -5.8244 C.ar      1 <0>        -0.0242
     28 H1          1.1641    1.9160    0.1335 H         1 <0>         0.0928
     29 H2         -0.4060    1.9766   -0.7027 H         1 <0>         0.0596
     30 H3         -0.3468    1.8016    1.0676 H         1 <0>         0.0704
     31 H4          0.7306   -0.4245    0.8003 H         1 <0>         0.0708
     32 H5         -0.8569   -0.3674   -0.0027 H         1 <0>         0.0946
     33 H6         -1.0217   -0.3071   -2.4270 H         1 <0>         0.1478
     34 H7          0.0392   -0.9046   -4.5670 H         1 <0>         0.1548
     35 H8          3.8398   -1.0649   -2.6383 H         1 <0>         0.1626
     36 H9          2.2513   -1.3278    1.9598 H         1 <0>         0.4229
     37 H10         2.1118   -3.2950    0.0585 H         1 <0>         0.0785
     38 H11         3.8581   -3.1241    0.3581 H         1 <0>         0.0958
     39 H12         3.4824   -3.5253    2.7761 H         1 <0>         0.0999
     40 H13         1.7362   -3.6961    2.4765 H         1 <0>         0.0970
     41 H14         2.1819   -5.6183    0.9747 H         1 <0>         0.1362
     42 H15         3.9282   -5.4475    1.2744 H         1 <0>         0.1370
     43 H16         3.8419   -7.7525    2.0880 H         1 <0>         0.1238
     44 H17         2.7867   -8.1516    3.4648 H         1 <0>         0.1257
     45 H18         2.0756   -7.7945    1.8726 H         1 <0>         0.1243
     46 H19         4.8523   -5.9958    3.3716 H         1 <0>         0.1248
     47 H20         3.8356   -4.7343    4.1086 H         1 <0>         0.1245
     48 H21         3.7970   -6.3948    4.7484 H         1 <0>         0.1258
     49 H22         1.3640    0.2689   -7.0803 H         1 <0>         0.1428
     50 H23         2.0127    2.3716   -8.1851 H         1 <0>         0.1378
     51 H24         4.2409    3.3385   -7.7806 H         1 <0>         0.1362
     52 H25         5.8200    2.2031   -6.2706 H         1 <0>         0.1382
     53 H26         5.1682    0.1047   -5.1592 H         1 <0>         0.1435
     54 H27         1.9171   -5.9338    3.3555 H         1 <0>         0.4273
@<TRIPOS>BOND
     1    1    2 1
     2    1   28 1
     3    1   29 1
     4    1   30 1
     5    2    3 1
     6    2   31 1
     7    2   32 1
     8    3    8 ar
     9    3    4 ar
    10    4    5 ar
    11    4   33 1
    12    5    6 ar
    13    5   34 1
    14    6    7 ar
    15    6   19 1
    16    7    8 ar
    17    7   35 1
    18    8    9 1
    19    9   10 2
    20    9   11 2
    21    9   12 1
    22   12   13 1
    23   12   36 1
    24   13   14 1
    25   13   37 1
    26   13   38 1
    27   14   15 1
    28   14   39 1
    29   14   40 1
    30   15   16 1
    31   15   41 1
    32   15   42 1
    33   16   17 1
    34   16   18 1
    35   16   54 1
    36   17   43 1
    37   17   44 1
    38   17   45 1
    39   18   46 1
    40   18   47 1
    41   18   48 1
    42   19   20 2
    43   19   21 2
    44   19   22 1
    45   22   27 ar
    46   22   23 ar
    47   23   24 ar
    48   23   49 1
    49   24   25 ar
    50   24   50 1
    51   25   26 ar
    52   25   51 1
    53   26   27 ar
    54   26   52 1
    55   27   53 1
@<TRIPOS>MOLECULE
ZINC40955762
   49    51     0     0     0
SMALL
USER_CHARGES

@<TRIPOS>ATOM
      1 C1          1.2993    1.6854   -1.2577 C.ar      1 <0>        -0.0591
      2 C2          2.5298    2.2917   -1.0870 C.ar      1 <0>        -0.1352
      3 C3          3.6473    1.5238   -0.8180 C.ar      1 <0>        -0.0196
      4 C4          3.5342    0.1496   -0.7194 C.ar      1 <0>        -0.6610
      5 C5          2.3035   -0.4566   -0.8892 C.ar      1 <0>        -0.0259
      6 C6          1.1863    0.3112   -1.1595 C.ar      1 <0>        -0.1407
      7 S1          4.9589   -0.8293   -0.3777 S.o2      1 <0>         2.5727
      8 O1          4.6857   -2.1318   -0.8759 O.2       1 <0>        -0.9148
      9 O2          6.0836   -0.0717   -0.8023 O.2       1 <0>        -0.9151
     10 C7          5.0825   -0.9758    1.3738 C.ar      1 <0>        -0.6527
     11 C8          5.7983   -0.0397    2.0970 C.ar      1 <0>         0.0400
     12 C9          5.8953   -0.1546    3.4709 C.ar      1 <0>        -0.1021
     13 C10         5.2761   -1.2053    4.1222 C.ar      1 <0>        -0.0386
     14 C11         4.5598   -2.1406    3.3994 C.ar      1 <0>        -0.6663
     15 C12         4.4592   -2.0232    2.0255 C.ar      1 <0>         0.0725
     16 S2          3.7711   -3.4799    4.2293 S.o2      1 <0>         2.6740
     17 O3          3.1421   -4.2654    3.2261 O.2       1 <0>        -0.9290
     18 O4          4.7283   -4.0193    5.1306 O.2       1 <0>        -0.9146
     19 N1          2.5589   -2.8361    5.1558 N.pl3     1 <0>        -1.1037
     20 C13         1.4404   -2.1384    4.5167 C.3       1 <0>         0.1372
     21 C14         1.6972   -0.6288    4.5416 C.3       1 <0>        -0.1799
     22 C15         0.4903    0.0982    3.9448 C.3       1 <0>        -0.0053
     23 N2         -0.7093   -0.2086    4.7331 N.4       1 <0>        -0.5067
     24 C16        -1.0028   -1.6446    4.6550 C.3       1 <0>        -0.0058
     25 C17         0.1467   -2.4388    5.2791 C.3       1 <0>        -0.1534
     26 C18         5.3827   -1.3311    5.6201 C.3       1 <0>         0.4806
     27 F1          6.0332   -0.2058    6.1375 F         1 <0>        -0.1603
     28 F2          4.1008   -1.4239    6.1727 F         1 <0>        -0.1752
     29 F3          6.1131   -2.4805    5.9408 F         1 <0>        -0.1296
     30 H1          0.4254    2.2858   -1.4634 H         1 <0>         0.1352
     31 H2          2.6181    3.3653   -1.1641 H         1 <0>         0.1388
     32 H3          4.6088    1.9974   -0.6853 H         1 <0>         0.1456
     33 H4          2.2153   -1.5303   -0.8125 H         1 <0>         0.1452
     34 H5          0.2249   -0.1625   -1.2926 H         1 <0>         0.1367
     35 H6          6.2820    0.7810    1.5882 H         1 <0>         0.1696
     36 H7          6.4551    0.5762    4.0357 H         1 <0>         0.1658
     37 H8          3.8963   -2.7519    1.4611 H         1 <0>         0.1756
     38 H9          2.5894   -2.9210    6.1216 H         1 <0>         0.4309
     39 H10         1.3421   -2.4756    3.4849 H         1 <0>         0.1120
     40 H11         1.8467   -0.3020    5.5706 H         1 <0>         0.1060
     41 H12         2.5865   -0.4012    3.9538 H         1 <0>         0.1110
     42 H13         0.6699    1.1732    3.9607 H         1 <0>         0.1389
     43 H14         0.3418   -0.2292    2.9158 H         1 <0>         0.1352
     44 H15        -0.5530    0.0498    5.6958 H         1 <0>         0.4302
     45 H16        -1.9255   -1.8563    5.1953 H         1 <0>         0.1422
     46 H17        -1.1195   -1.9349    3.6108 H         1 <0>         0.1367
     47 H18        -0.0724   -3.5048    5.2185 H         1 <0>         0.1263
     48 H19         0.2640   -2.1494    6.3234 H         1 <0>         0.1004
     49 H20        -1.4921    0.3140    4.3696 H         1 <0>         0.4353
@<TRIPOS>BOND
     1    1    6 ar
     2    1    2 ar
     3    1   30 1
     4    2    3 ar
     5    2   31 1
     6    3    4 ar
     7    3   32 1
     8    4    5 ar
     9    4    7 1
    10    5    6 ar
    11    5   33 1
    12    6   34 1
    13    7    8 2
    14    7    9 2
    15    7   10 1
    16   10   15 ar
    17   10   11 ar
    18   11   12 ar
    19   11   35 1
    20   12   13 ar
    21   12   36 1
    22   13   14 ar
    23   13   26 1
    24   14   15 ar
    25   14   16 1
    26   15   37 1
    27   16   17 2
    28   16   18 2
    29   16   19 1
    30   19   20 1
    31   19   38 1
    32   20   25 1
    33   20   21 1
    34   20   39 1
    35   21   22 1
    36   21   40 1
    37   21   41 1
    38   22   23 1
    39   22   42 1
    40   22   43 1
    41   23   24 1
    42   23   44 1
    43   23   49 1
    44   24   25 1
    45   24   45 1
    46   24   46 1
    47   25   47 1
    48   25   48 1
    49   26   27 1
    50   26   28 1
    51   26   29 1
@<TRIPOS>MOLECULE
ZINC02477290
   37    38     0     0     0
SMALL
USER_CHARGES

@<TRIPOS>ATOM
      1 C1         -0.0184    1.5028    0.0103 C.3       1 <0>        -0.1006
      2 C2          0.0021   -0.0041    0.0020 C.2       1 <0>        -0.0667
      3 C3          0.0066   -0.7123   -1.1420 C.2       1 <0>        -0.2171
      4 S1          0.0327   -2.4002   -0.5796 S.3       1 <0>         0.2997
      5 C4          0.0371   -2.1591    1.0807 C.2       1 <0>         0.0443
      6 C5          0.0242   -0.7782    1.2226 C.2       1 <0>        -0.2157
      7 C6          0.0279   -0.1391    2.5401 C.2       1 <0>         0.5315
      8 O1         -1.0238    0.1120    3.0973 O.2       1 <0>        -0.4916
      9 O2          1.1976    0.1712    3.1358 O.3       1 <0>        -0.3462
     10 C7          1.1265    0.7930    4.4205 C.3       1 <0>         0.0288
     11 N1          0.0551   -3.1184    2.0811 N.am      1 <0>        -0.6170
     12 C8          0.0723   -4.4271    1.7595 C.2       1 <0>         0.5150
     13 O3          0.0721   -4.7654    0.5949 O.2       1 <0>        -0.4850
     14 C9          0.0919   -5.4701    2.8471 C.3       1 <0>        -0.1147
     15 C10         0.1090   -6.8641    2.2167 C.3       1 <0>        -0.0851
     16 H1          0.9334   -6.9651    1.5108 H         1 <0>         0.1681
     17 C11         0.1586   -7.9490    3.2804 C.2       1 <0>         0.5298
     18 O4          1.0883   -8.0526    4.0518 O.2       1 <0>        -0.4806
     19 N2         -0.8753   -8.7723    3.3122 N.am      1 <0>        -0.6990
     20 C12        -1.9380   -8.6600    2.4369 C.2       1 <0>         0.3905
     21 N3         -3.0059   -9.4031    2.3684 N.2       1 <0>        -0.6413
     22 S2         -1.5033   -7.2554    1.4197 S.3       1 <0>        -0.0019
     23 C13        -0.0071   -0.1993   -2.5589 C.3       1 <0>        -0.0660
     24 H2          1.0042    1.8801    0.0026 H         1 <0>         0.0765
     25 H3         -0.5455    1.8639   -0.8728 H         1 <0>         0.0775
     26 H4         -0.5286    1.8543    0.9071 H         1 <0>         0.0618
     27 H5          0.6099    0.1317    5.1161 H         1 <0>         0.0611
     28 H6          2.1347    0.9886    4.7858 H         1 <0>         0.1051
     29 H7          0.5807    1.7330    4.3394 H         1 <0>         0.0629
     30 H8          0.0553   -2.8478    3.0126 H         1 <0>         0.4209
     31 H9          0.9828   -5.3380    3.4611 H         1 <0>         0.1344
     32 H10        -0.7970   -5.3634    3.4689 H         1 <0>         0.1215
     33 H11        -0.8880   -9.4812    3.9742 H         1 <0>         0.4117
     34 H12        -3.1222  -10.1431    2.9847 H         1 <0>         0.3541
     35 H13         1.0171   -0.0613   -2.9053 H         1 <0>         0.0787
     36 H14        -0.5140   -0.9195   -3.2012 H         1 <0>         0.0745
     37 H15        -0.5345    0.7540   -2.5951 H         1 <0>         0.0801
@<TRIPOS>BOND
     1    1    2 1
     2    1   24 1
     3    1   25 1
     4    1   26 1
     5    2    6 1
     6    2    3 2
     7    3    4 1
     8    3   23 1
     9    4    5 1
    10    5    6 2
    11    5   11 1
    12    6    7 1
    13    7    8 2
    14    7    9 1
    15    9   10 1
    16   10   27 1
    17   10   28 1
    18   10   29 1
    19   11   12 am
    20   11   30 1
    21   12   13 2
    22   12   14 1
    23   14   15 1
    24   14   31 1
    25   14   32 1
    26   15   16 1
    27   15   22 1
    28   15   17 1
    29   17   18 2
    30   17   19 am
    31   19   20 1
    32   19   33 1
    33   20   21 2
    34   20   22 1
    35   21   34 1
    36   23   35 1
    37   23   36 1
    38   23   37 1
@<TRIPOS>MOLECULE
ZINC02477291
   37    38     0     0     0
SMALL
USER_CHARGES

@<TRIPOS>ATOM
      1 C1         -0.0184    1.5028    0.0103 C.3       1 <0>        -0.1006
      2 C2          0.0021   -0.0041    0.0020 C.2       1 <0>        -0.0667
      3 C3          0.0066   -0.7123   -1.1420 C.2       1 <0>        -0.2171
      4 S1          0.0327   -2.4002   -0.5796 S.3       1 <0>         0.2998
      5 C4          0.0371   -2.1591    1.0807 C.2       1 <0>         0.0443
      6 C5          0.0242   -0.7782    1.2226 C.2       1 <0>        -0.2157
      7 C6          0.0279   -0.1391    2.5401 C.2       1 <0>         0.5316
      8 O1         -1.0238    0.1120    3.0973 O.2       1 <0>        -0.4919
      9 O2          1.1976    0.1712    3.1358 O.3       1 <0>        -0.3459
     10 C7          1.1265    0.7930    4.4205 C.3       1 <0>         0.0288
     11 N1          0.0551   -3.1184    2.0811 N.am      1 <0>        -0.6170
     12 C8          0.0723   -4.4271    1.7595 C.2       1 <0>         0.5150
     13 O3          0.0721   -4.7654    0.5949 O.2       1 <0>        -0.4850
     14 C9          0.0919   -5.4701    2.8471 C.3       1 <0>        -0.1147
     15 C10         0.1090   -6.8641    2.2167 C.3       1 <0>        -0.0851
     16 H1         -0.7182   -6.9886    1.5180 H         1 <0>         0.1679
     17 C11         0.0996   -7.9499    3.2807 C.2       1 <0>         0.5296
     18 O4         -0.8204   -8.0803    4.0597 O.2       1 <0>        -0.4802
     19 N2          1.1568   -8.7434    3.3034 N.am      1 <0>        -0.6991
     20 C12         2.2082   -8.6010    2.4189 C.2       1 <0>         0.3906
     21 N3          3.2961   -9.3134    2.3409 N.2       1 <0>        -0.6415
     22 S2          1.7248   -7.2094    1.4057 S.3       1 <0>        -0.0018
     23 C13        -0.0071   -0.1993   -2.5589 C.3       1 <0>        -0.0660
     24 H2          1.0042    1.8801    0.0026 H         1 <0>         0.0767
     25 H3         -0.5455    1.8639   -0.8728 H         1 <0>         0.0774
     26 H4         -0.5286    1.8543    0.9071 H         1 <0>         0.0617
     27 H5          0.6099    0.1317    5.1161 H         1 <0>         0.0611
     28 H6          2.1347    0.9886    4.7858 H         1 <0>         0.1052
     29 H7          0.5807    1.7330    4.3394 H         1 <0>         0.0629
     30 H8          0.0553   -2.8478    3.0126 H         1 <0>         0.4210
     31 H9          0.9828   -5.3380    3.4611 H         1 <0>         0.1216
     32 H10        -0.7970   -5.3634    3.4689 H         1 <0>         0.1343
     33 H11         1.1957   -9.4512    3.9655 H         1 <0>         0.4117
     34 H12         3.4392  -10.0492    2.9565 H         1 <0>         0.3540
     35 H13         1.0171   -0.0613   -2.9053 H         1 <0>         0.0790
     36 H14        -0.5140   -0.9195   -3.2012 H         1 <0>         0.0743
     37 H15        -0.5345    0.7540   -2.5951 H         1 <0>         0.0800
@<TRIPOS>BOND
     1    1    2 1
     2    1   24 1
     3    1   25 1
     4    1   26 1
     5    2    6 1
     6    2    3 2
     7    3    4 1
     8    3   23 1
     9    4    5 1
    10    5    6 2
    11    5   11 1
    12    6    7 1
    13    7    8 2
    14    7    9 1
    15    9   10 1
    16   10   27 1
    17   10   28 1
    18   10   29 1
    19   11   12 am
    20   11   30 1
    21   12   13 2
    22   12   14 1
    23   14   15 1
    24   14   31 1
    25   14   32 1
    26   15   16 1
    27   15   22 1
    28   15   17 1
    29   17   18 2
    30   17   19 am
    31   19   20 1
    32   19   33 1
    33   20   21 2
    34   20   22 1
    35   21   34 1
    36   23   35 1
    37   23   36 1
    38   23   37 1
