@<TRIPOS>MOLECULE
ZINC03201907
   46    49     0     0     0
SMALL
USER_CHARGES

@<TRIPOS>ATOM
      1 C1         -0.0178    1.4648    0.0101 C.3       1 <0>        -0.0541
      2 N1          0.0021   -0.0041    0.0020 N.4       1 <0>        -0.3704
      3 C2         -1.3750   -0.4988    0.0701 C.3       1 <0>        -0.0155
      4 C3         -1.3740   -2.0327    0.0720 C.3       1 <0>        -0.1325
      5 C4         -0.6000   -2.4924    1.3162 C.3       1 <0>        -0.0191
      6 C5         -0.6317   -4.0111    1.4284 C.3       1 <0>        -0.1087
      7 C6          0.1733   -4.4520    2.6537 C.3       1 <0>        -0.1256
      8 C7          1.6184   -3.9692    2.5143 C.3       1 <0>        -0.1195
      9 C8          1.6413   -2.4424    2.4159 C.3       1 <0>        -0.1147
     10 C9          0.8433   -1.9991    1.1883 C.3       1 <0>        -0.0848
     11 H1          1.2952   -2.4125    0.2866 H         1 <0>         0.1023
     12 C10         0.8089   -0.4721    1.1198 C.3       1 <0>         0.0267
     13 H2          1.8300   -0.1263    0.9584 H         1 <0>         0.1343
     14 C11         0.3561    0.0989    2.4510 C.3       1 <0>        -0.0880
     15 C12        -0.8070   -0.6582    3.0329 C.ar      1 <0>        -0.1438
     16 C13        -1.2457   -1.8607    2.5233 C.ar      1 <0>        -0.0305
     17 C14        -2.3081   -2.5221    3.1185 C.ar      1 <0>        -0.1475
     18 C15        -2.9456   -1.9742    4.2198 C.ar      1 <0>         0.1453
     19 C16        -2.5143   -0.7560    4.7243 C.ar      1 <0>        -0.2001
     20 C17        -1.4521   -0.1058    4.1333 C.ar      1 <0>        -0.0688
     21 O1         -3.9867   -2.6255    4.8018 O.3       1 <0>        -0.3119
     22 C18        -4.5935   -1.9982    5.9333 C.3       1 <0>         0.0236
     23 H3          1.0041    1.8418    0.0487 H         1 <0>         0.1253
     24 H4         -0.5046    1.8265   -0.8956 H         1 <0>         0.1263
     25 H5         -0.5678    1.8159    0.8832 H         1 <0>         0.1235
     26 H6         -1.8462   -0.1353    0.9832 H         1 <0>         0.1323
     27 H7         -1.9332   -0.1377   -0.7937 H         1 <0>         0.1313
     28 H8         -2.3981   -2.4035    0.1152 H         1 <0>         0.1146
     29 H9         -0.8828   -2.4037   -0.8275 H         1 <0>         0.0950
     30 H10        -1.6637   -4.3460    1.5323 H         1 <0>         0.0783
     31 H11        -0.1965   -4.4505    0.5308 H         1 <0>         0.0756
     32 H12        -0.2684   -4.0221    3.5527 H         1 <0>         0.0693
     33 H13         0.1589   -5.5395    2.7259 H         1 <0>         0.0726
     34 H14         2.1924   -4.2855    3.3853 H         1 <0>         0.0732
     35 H15         2.0591   -4.3977    1.6142 H         1 <0>         0.0669
     36 H16         1.1954   -2.0136    3.3134 H         1 <0>         0.0798
     37 H17         2.6718   -2.0996    2.3226 H         1 <0>         0.0738
     38 H18         1.1889    0.0610    3.1532 H         1 <0>         0.1169
     39 H19         0.0642    1.1393    2.3081 H         1 <0>         0.0939
     40 H20        -2.6412   -3.4697    2.7215 H         1 <0>         0.1386
     41 H21        -3.0097   -0.3180    5.5782 H         1 <0>         0.1351
     42 H22        -1.1179    0.8418    4.5290 H         1 <0>         0.1291
     43 H23        -3.8503   -1.8717    6.7206 H         1 <0>         0.0602
     44 H24        -4.9840   -1.0231    5.6422 H         1 <0>         0.0594
     45 H25        -5.4090   -2.6214    6.3003 H         1 <0>         0.1083
     46 H26         0.4207   -0.3210   -0.8596 H         1 <0>         0.4244
@<TRIPOS>BOND
     1    1    2 1
     2    1   23 1
     3    1   24 1
     4    1   25 1
     5    2   12 1
     6    2    3 1
     7    2   46 1
     8    3    4 1
     9    3   26 1
    10    3   27 1
    11    4    5 1
    12    4   28 1
    13    4   29 1
    14    5   10 1
    15    5   16 1
    16    5    6 1
    17    6    7 1
    18    6   30 1
    19    6   31 1
    20    7    8 1
    21    7   32 1
    22    7   33 1
    23    8    9 1
    24    8   34 1
    25    8   35 1
    26    9   10 1
    27    9   36 1
    28    9   37 1
    29   10   11 1
    30   10   12 1
    31   12   13 1
    32   12   14 1
    33   14   15 1
    34   14   38 1
    35   14   39 1
    36   15   20 ar
    37   15   16 ar
    38   16   17 ar
    39   17   18 ar
    40   17   40 1
    41   18   19 ar
    42   18   21 1
    43   19   20 ar
    44   19   41 1
    45   20   42 1
    46   21   22 1
    47   22   43 1
    48   22   44 1
    49   22   45 1
@<TRIPOS>MOLECULE
ZINC28255070
   44    48     0     0     0
SMALL
USER_CHARGES
methoxy-methyl-BLAHol
@<TRIPOS>ATOM
      1 C1         -0.0178    1.4648    0.0101 C.3       1 <0>        -0.0497
      2 N1          0.0021   -0.0041    0.0020 N.4       1 <0>        -0.3969
      3 C2         -1.3443   -0.5433   -0.1209 C.3       1 <0>        -0.0200
      4 C3         -1.3836   -2.0859   -0.1808 C.3       1 <0>        -0.1008
      5 C4         -0.6042   -2.5352    1.0401 C.3       1 <0>        -0.0006
      6 C5         -1.2944   -1.9862    2.2611 C.ar      1 <0>        -0.1480
      7 C6         -1.0255   -0.7981    2.8804 C.ar      1 <0>        -0.0898
      8 C7         -1.9276   -0.4508    3.8685 C.ar      1 <0>        -0.0789
      9 C8         -2.9606   -1.3179    4.1979 C.ar      1 <0>        -0.1715
     10 C9         -3.1541   -2.5697    3.6096 C.ar      1 <0>         0.1420
     11 C10        -2.2600   -2.9366    2.6103 C.ar      1 <0>         0.0759
     12 O1         -2.0596   -4.0859    1.8684 O.3       1 <0>        -0.2683
     13 C11        -0.7001   -3.9700    1.5337 C.3       1 <0>         0.0465
     14 H1         -0.4376   -4.5207    2.4490 H         1 <0>         0.1019
     15 C12         0.3436   -4.8275    0.9257 C.3       1 <0>         0.1541
     16 H2          0.1682   -5.9052    1.0591 H         1 <0>         0.0890
     17 C13         1.6325   -4.2522    1.5452 C.2       1 <0>        -0.1732
     18 C14         1.7973   -2.9319    1.5593 C.2       1 <0>        -0.1286
     19 C15         0.8162   -2.0425    0.8913 C.3       1 <0>        -0.0712
     20 H3          1.2302   -2.1616   -0.1208 H         1 <0>         0.1118
     21 C16         0.8214   -0.5355    1.1357 C.3       1 <0>         0.0589
     22 H4          1.8641   -0.1900    1.1948 H         1 <0>         0.1633
     23 C17         0.1751   -0.0472    2.4304 C.3       1 <0>        -0.0931
     24 O2          0.3544   -4.6878   -0.4964 O.3       1 <0>        -0.6006
     25 O3         -4.1676   -3.3901    3.9958 O.3       1 <0>        -0.3017
     26 C18        -5.0285   -2.9140    5.0323 C.3       1 <0>         0.0182
     27 H5         -0.6256    1.8279   -0.8317 H         1 <0>         0.1267
     28 H6          1.0094    1.8459   -0.0880 H         1 <0>         0.1275
     29 H7         -0.4520    1.8204    0.9561 H         1 <0>         0.1233
     30 H8         -1.9449   -0.2308    0.7461 H         1 <0>         0.1263
     31 H9         -1.8080   -0.1648   -1.0438 H         1 <0>         0.1382
     32 H10        -2.4287   -2.4276   -0.1482 H         1 <0>         0.1154
     33 H11        -0.9148   -2.4287   -1.1150 H         1 <0>         0.1079
     34 H12        -1.8288    0.4933    4.3836 H         1 <0>         0.1369
     35 H13        -3.6601   -1.0040    4.9586 H         1 <0>         0.1395
     36 H14         2.4071   -4.9077    1.9698 H         1 <0>         0.1471
     37 H15         2.6668   -2.4916    2.0693 H         1 <0>         0.1347
     38 H16        -0.0935    1.0058    2.2603 H         1 <0>         0.1006
     39 H17         0.9555   -0.1062    3.2033 H         1 <0>         0.1183
     40 H18         1.0744   -5.2601   -1.0998 H         1 <0>         0.4157
     41 H19        -5.7985   -3.6701    5.2455 H         1 <0>         0.1120
     42 H20        -5.5112   -1.9803    4.7080 H         1 <0>         0.0619
     43 H21        -4.4384   -2.7252    5.9412 H         1 <0>         0.0627
     44 H22         0.4940   -0.3623   -0.9143 H         1 <0>         0.4367
@<TRIPOS>BOND
     1    1    2 1
     2    1   27 1
     3    1   28 1
     4    1   29 1
     5    2   21 1
     6    2    3 1
     7    2   44 1
     8    3    4 1
     9    3   30 1
    10    3   31 1
    11    4    5 1
    12    4   32 1
    13    4   33 1
    14    5   13 1
    15    5   19 1
    16    5    6 1
    17    6   11 ar
    18    6    7 ar
    19    7   23 1
    20    7    8 ar
    21    8    9 ar
    22    8   34 1
    23    9   10 ar
    24    9   35 1
    25   10   11 ar
    26   10   25 1
    27   11   12 1
    28   12   13 1
    29   13   14 1
    30   13   15 1
    31   15   16 1
    32   15   17 1
    33   15   24 1
    34   17   18 2
    35   17   36 1
    36   18   19 1
    37   18   37 1
    38   19   20 1
    39   19   21 1
    40   21   22 1
    41   21   23 1
    42   23   38 1
    43   23   39 1
    44   24   40 1
    45   25   26 1
    46   26   41 1
    47   26   42 1
    48   26   43 1
@<TRIPOS>MOLECULE
ZINC22920326
   52    55     0     0     0
SMALL
USER_CHARGES

@<TRIPOS>ATOM
      1 C1         -0.0187    1.5258    0.0104 C.3       1 <0>        -0.1827
      2 C2          0.0021   -0.0041    0.0020 C.3       1 <0>         0.0324
      3 H1          0.5123   -0.3556   -0.8948 H         1 <0>         0.1471
      4 C3         -1.4336   -0.5337    0.0128 C.3       1 <0>         0.0302
      5 N1         -1.4105   -2.0032    0.0241 N.3       1 <0>        -0.5388
      6 C4         -0.6807   -2.5048    1.1971 C.3       1 <0>         0.0254
      7 C5          0.7488   -1.9589    1.1765 C.3       1 <0>         0.0324
      8 H2          1.2551   -2.3004    0.2737 H         1 <0>         0.1469
      9 N2          0.7126   -0.4906    1.1920 N.4       1 <0>        -0.5065
     10 C6          1.5050   -2.4634    2.4072 C.3       1 <0>        -0.1830
     11 C7         -2.7725   -2.5515   -0.0226 C.3       1 <0>         0.0584
     12 C8         -2.7066   -4.0615   -0.2601 C.3       1 <0>        -0.1372
     13 C9         -4.1252   -4.6325   -0.3086 C.3       1 <0>         0.1179
     14 N3         -4.0621   -6.0784   -0.5361 N.pl3     1 <0>        -0.5074
     15 C10        -4.0541   -6.6836   -1.7801 C.ar      1 <0>         0.1407
     16 C11        -4.0985   -6.1695   -3.0725 C.ar      1 <0>        -0.1448
     17 C12        -4.0764   -7.0219   -4.1553 C.ar      1 <0>        -0.0811
     18 C13        -4.0101   -8.3944   -3.9712 C.ar      1 <0>        -0.1474
     19 C14        -3.9653   -8.9226   -2.6989 C.ar      1 <0>        -0.0594
     20 C15        -3.9865   -8.0726   -1.5959 C.ar      1 <0>        -0.1043
     21 C16        -3.9523   -8.3002   -0.1394 C.ar      1 <0>        -0.1029
     22 C17        -3.9960   -7.0338    0.4624 C.ar      1 <0>         0.1405
     23 C18        -3.9715   -6.9383    1.8504 C.ar      1 <0>        -0.1477
     24 C19        -3.9014   -8.0799    2.6195 C.ar      1 <0>        -0.0822
     25 C20        -3.8544   -9.3304    2.0229 C.ar      1 <0>        -0.1486
     26 C21        -3.8863   -9.4459    0.6497 C.ar      1 <0>        -0.0582
     27 H3          1.0039    1.9031    0.0027 H         1 <0>         0.0866
     28 H4         -0.5459    1.8868   -0.8726 H         1 <0>         0.1092
     29 H5         -0.5289    1.8773    0.9072 H         1 <0>         0.0810
     30 H6         -1.9483   -0.1712    0.9026 H         1 <0>         0.0620
     31 H7         -1.9566   -0.1850   -0.8777 H         1 <0>         0.1241
     32 H8         -1.1830   -2.1748    2.1064 H         1 <0>         0.0623
     33 H9         -0.6544   -3.5942    1.1706 H         1 <0>         0.1243
     34 H10         1.6553   -0.1311    1.1910 H         1 <0>         0.4302
     35 H11         1.5320   -3.5530    2.3957 H         1 <0>         0.1089
     36 H12         2.5232   -2.0745    2.3925 H         1 <0>         0.0870
     37 H13         0.9987   -2.1220    3.3100 H         1 <0>         0.0811
     38 H14        -3.2762   -2.3542    0.9237 H         1 <0>         0.0503
     39 H15        -3.3265   -2.0799   -0.8342 H         1 <0>         0.0927
     40 H16        -2.2029   -4.2588   -1.2064 H         1 <0>         0.0839
     41 H17        -2.1527   -4.5331    0.5516 H         1 <0>         0.0704
     42 H18        -4.6289   -4.4352    0.6377 H         1 <0>         0.0866
     43 H19        -4.6792   -4.1609   -1.1203 H         1 <0>         0.0898
     44 H20        -4.1507   -5.1019   -3.2271 H         1 <0>         0.1199
     45 H21        -4.1115   -6.6172   -5.1560 H         1 <0>         0.1299
     46 H22        -3.9937   -9.0520   -4.8277 H         1 <0>         0.1294
     47 H23        -3.9144   -9.9921   -2.5578 H         1 <0>         0.1270
     48 H24        -4.0070   -5.9689    2.3254 H         1 <0>         0.1171
     49 H25        -3.8827   -7.9995    3.6964 H         1 <0>         0.1287
     50 H26        -3.7989  -10.2175    2.6363 H         1 <0>         0.1291
     51 H27        -3.8488  -10.4210    0.1871 H         1 <0>         0.1273
     52 H28         0.2335   -0.1749    2.0220 H         1 <0>         0.4215
@<TRIPOS>BOND
     1    1    2 1
     2    1   27 1
     3    1   28 1
     4    1   29 1
     5    2    3 1
     6    2    9 1
     7    2    4 1
     8    4    5 1
     9    4   30 1
    10    4   31 1
    11    5    6 1
    12    5   11 1
    13    6    7 1
    14    6   32 1
    15    6   33 1
    16    7    8 1
    17    7    9 1
    18    7   10 1
    19    9   34 1
    20    9   52 1
    21   10   35 1
    22   10   36 1
    23   10   37 1
    24   11   12 1
    25   11   38 1
    26   11   39 1
    27   12   13 1
    28   12   40 1
    29   12   41 1
    30   13   14 1
    31   13   42 1
    32   13   43 1
    33   14   22 1
    34   14   15 1
    35   15   20 ar
    36   15   16 ar
    37   16   17 ar
    38   16   44 1
    39   17   18 ar
    40   17   45 1
    41   18   19 ar
    42   18   46 1
    43   19   20 ar
    44   19   47 1
    45   20   21 1
    46   21   26 ar
    47   21   22 ar
    48   22   23 ar
    49   23   24 ar
    50   23   48 1
    51   24   25 ar
    52   24   49 1
    53   25   26 ar
    54   25   50 1
    55   26   51 1
@<TRIPOS>MOLECULE
ZINC28256912
   41    45     0     0     0
SMALL
USER_CHARGES
methylBLAHdiol
@<TRIPOS>ATOM
      1 C1          5.2093    3.6295    0.5036 C.3       1 <0>        -0.0493
      2 N1          4.1065    2.7161    0.1759 N.4       1 <0>        -0.3930
      3 C2          3.2591    3.2745   -0.8706 C.3       1 <0>        -0.0195
      4 C3          2.0767    2.3612   -1.2617 C.3       1 <0>        -0.0985
      5 C4          1.3859    2.0420    0.0499 C.3       1 <0>         0.0018
      6 C5          0.9533    3.3405    0.6766 C.ar      1 <0>        -0.1409
      7 C6          1.6434    4.0781    1.6015 C.ar      1 <0>        -0.1016
      8 C7          1.0413    5.2645    1.9709 C.ar      1 <0>        -0.0745
      9 C8         -0.2158    5.5866    1.4773 C.ar      1 <0>        -0.1318
     10 C9         -0.9558    4.7568    0.6326 C.ar      1 <0>         0.1845
     11 C10        -0.3596    3.5630    0.2431 C.ar      1 <0>         0.0017
     12 O1         -0.7992    2.4658   -0.4741 O.3       1 <0>        -0.2798
     13 C11        -0.0097    1.4435    0.0780 C.3       1 <0>         0.0539
     14 H1         -0.7805    1.2746    0.8444 H         1 <0>         0.0971
     15 C12         0.0234   -0.0372    0.0226 C.3       1 <0>         0.1544
     16 H2         -0.9487   -0.4962   -0.2104 H         1 <0>         0.0883
     17 C13         0.6504   -0.3965    1.3836 C.2       1 <0>        -0.1763
     18 C14         1.7226    0.2802    1.7863 C.2       1 <0>        -0.1260
     19 C15         2.3707    1.2758    0.9063 C.3       1 <0>        -0.0754
     20 H3          2.9697    0.5178    0.3803 H         1 <0>         0.1103
     21 C16         3.4051    2.2626    1.4083 C.3       1 <0>         0.0555
     22 H4          4.0381    1.7474    2.1458 H         1 <0>         0.1567
     23 C17         2.8935    3.4833    2.1586 C.3       1 <0>        -0.0902
     24 O2          0.8474   -0.4891   -1.0539 O.3       1 <0>        -0.6006
     25 O3         -2.2022    5.1005    0.2109 O.3       1 <0>        -0.4977
     26 H5          5.7090    3.9483   -0.4230 H         1 <0>         0.1274
     27 H6          5.9329    3.1131    1.1514 H         1 <0>         0.1276
     28 H7          4.8117    4.5111    1.0278 H         1 <0>         0.1242
     29 H8          2.8364    4.2308   -0.5288 H         1 <0>         0.1269
     30 H9          3.8587    3.4420   -1.7775 H         1 <0>         0.1377
     31 H10         1.4114    2.8988   -1.9533 H         1 <0>         0.1137
     32 H11         2.4604    1.4545   -1.7523 H         1 <0>         0.1063
     33 H12         1.5475    5.9411    2.6435 H         1 <0>         0.1395
     34 H13        -0.6464    6.5349    1.7632 H         1 <0>         0.1416
     35 H14         0.2317   -1.1917    2.0179 H         1 <0>         0.1477
     36 H15         2.1406    0.1029    2.7882 H         1 <0>         0.1340
     37 H16         3.6986    4.2324    2.1340 H         1 <0>         0.1008
     38 H17         2.7180    3.1677    3.1976 H         1 <0>         0.1188
     39 H18         0.9774   -1.5668   -1.2321 H         1 <0>         0.4165
     40 H19        -2.7628    4.4275   -0.4545 H         1 <0>         0.4515
     41 H20         4.5071    1.8014   -0.2854 H         1 <0>         0.4370
@<TRIPOS>BOND
     1    1    2 1
     2    1   26 1
     3    1   27 1
     4    1   28 1
     5    2   21 1
     6    2    3 1
     7    2   41 1
     8    3    4 1
     9    3   29 1
    10    3   30 1
    11    4    5 1
    12    4   31 1
    13    4   32 1
    14    5   13 1
    15    5   19 1
    16    5    6 1
    17    6   11 ar
    18    6    7 ar
    19    7   23 1
    20    7    8 ar
    21    8    9 ar
    22    8   33 1
    23    9   10 ar
    24    9   34 1
    25   10   11 ar
    26   10   25 1
    27   11   12 1
    28   12   13 1
    29   13   14 1
    30   13   15 1
    31   15   16 1
    32   15   17 1
    33   15   24 1
    34   17   18 2
    35   17   35 1
    36   18   19 1
    37   18   36 1
    38   19   20 1
    39   19   21 1
    40   21   22 1
    41   21   23 1
    42   23   37 1
    43   23   38 1
    44   24   39 1
    45   25   40 1
@<TRIPOS>MOLECULE
ZINC03875420
   45    49     0     0     0
SMALL
USER_CHARGES

@<TRIPOS>ATOM
      1 C1          0.1871    1.4217    0.0965 C.2       1 <0>        -0.1012
      2 C2          0.0818    0.1160    0.0982 C.2       1 <0>        -0.2375
      3 C3          1.3172   -0.7397   -0.0145 C.3       1 <0>         0.0223
      4 N1          1.3676   -1.6781    1.1146 N.4       1 <0>        -0.3776
      5 C4          0.2328   -2.5982    1.0205 C.3       1 <0>        -0.0143
      6 C5          0.2418   -3.6083    2.1783 C.3       1 <0>        -0.1227
      7 C6          1.5804   -4.3491    2.1135 C.3       1 <0>        -0.0575
      8 C7          1.7110   -4.9715    0.7459 C.ar      1 <0>        -0.1844
      9 C8          2.2775   -4.4063   -0.3712 C.ar      1 <0>        -0.0560
     10 C9          2.2629   -5.1888   -1.5118 C.ar      1 <0>        -0.1259
     11 C10         1.7378   -6.4708   -1.4697 C.ar      1 <0>        -0.0998
     12 C11         1.2215   -7.0515   -0.3130 C.ar      1 <0>         0.1064
     13 C12         1.2265   -6.2698    0.8463 C.ar      1 <0>         0.1514
     14 O1          0.8737   -6.5320    2.1259 O.3       1 <0>        -0.2739
     15 C13         1.6224   -5.5974    2.9871 C.3       1 <0>         0.1098
     16 H1          1.1810   -5.4536    3.9733 H         1 <0>         0.1503
     17 C14         3.0318   -6.2000    3.0118 C.3       1 <0>         0.1140
     18 H2          3.1649   -6.7248    3.9578 H         1 <0>         0.0812
     19 C15         4.1352   -5.2176    2.8617 C.2       1 <0>        -0.1574
     20 C16         4.0183   -3.9760    2.5115 C.2       1 <0>        -0.1302
     21 C17         2.6971   -3.3443    2.2737 C.3       1 <0>        -0.0482
     22 H3          2.4635   -2.7496    3.1568 H         1 <0>         0.1001
     23 C18         2.6550   -2.3903    1.0885 C.3       1 <0>         0.0513
     24 H4          3.4459   -1.6527    1.2245 H         1 <0>         0.1410
     25 C19         2.8726   -3.0395   -0.2677 C.3       1 <0>        -0.0921
     26 O2          3.1335   -7.1527    1.9516 O.3       1 <0>        -0.5426
     27 O3          0.7340   -8.3211   -0.3119 O.3       1 <0>        -0.4834
     28 H5          1.1592    1.8850    0.0144 H         1 <0>         0.1120
     29 H6         -0.6986    2.0350    0.1728 H         1 <0>         0.1237
     30 H7         -0.8903   -0.3473    0.1804 H         1 <0>         0.1340
     31 H8          1.2882   -1.2982   -0.9501 H         1 <0>         0.1381
     32 H9          2.2024   -0.1038    0.0018 H         1 <0>         0.1336
     33 H10        -0.6947   -2.0264    1.0520 H         1 <0>         0.1350
     34 H11         0.2872   -3.1376    0.0749 H         1 <0>         0.1329
     35 H12         0.1522   -3.0844    3.1299 H         1 <0>         0.0983
     36 H13        -0.5802   -4.3146    2.0623 H         1 <0>         0.1199
     37 H14         2.6612   -4.7997   -2.4372 H         1 <0>         0.1326
     38 H15         1.7286   -7.0502   -2.3812 H         1 <0>         0.1361
     39 H16         5.1343   -5.5735    3.0651 H         1 <0>         0.1230
     40 H17         4.9115   -3.3815    2.3883 H         1 <0>         0.1297
     41 H18         3.9443   -3.1096   -0.4540 H         1 <0>         0.1213
     42 H19         2.4277   -2.4053   -1.0345 H         1 <0>         0.1020
     43 H20         3.9964   -7.5851    1.8927 H         1 <0>         0.3861
     44 H21         1.3955   -8.9963   -0.1081 H         1 <0>         0.3961
     45 H22         1.2971   -1.1585    1.9766 H         1 <0>         0.4226
@<TRIPOS>BOND
     1    1    2 2
     2    1   28 1
     3    1   29 1
     4    2    3 1
     5    2   30 1
     6    3    4 1
     7    3   31 1
     8    3   32 1
     9    4   23 1
    10    4    5 1
    11    4   45 1
    12    5    6 1
    13    5   33 1
    14    5   34 1
    15    6    7 1
    16    6   35 1
    17    6   36 1
    18    7   15 1
    19    7   21 1
    20    7    8 1
    21    8   13 ar
    22    8    9 ar
    23    9   25 1
    24    9   10 ar
    25   10   11 ar
    26   10   37 1
    27   11   12 ar
    28   11   38 1
    29   12   13 ar
    30   12   27 1
    31   13   14 1
    32   14   15 1
    33   15   16 1
    34   15   17 1
    35   17   18 1
    36   17   19 1
    37   17   26 1
    38   19   20 2
    39   19   39 1
    40   20   21 1
    41   20   40 1
    42   21   22 1
    43   21   23 1
    44   23   24 1
    45   23   25 1
    46   25   41 1
    47   25   42 1
    48   26   43 1
    49   27   44 1
@<TRIPOS>MOLECULE
ZINC00001600
   40    41     0     0     0
SMALL
USER_CHARGES
1-[4-(3-hydroxyphenyl)-1-methyl-4-piperidyl]propan-1-one
@<TRIPOS>ATOM
      1 C1         -2.6767    6.0824    2.8361 C.3       1 <0>        -0.1504
      2 C2         -2.2062    5.4601    1.5200 C.3       1 <0>        -0.1788
      3 C3         -0.7694    5.8400    1.2701 C.2       1 <0>         0.3647
      4 O1         -0.1824    6.5366    2.0629 O.2       1 <0>        -0.4337
      5 C4         -0.0652    5.3506    0.0309 C.3       1 <0>        -0.0694
      6 C5         -0.8008    5.8613   -1.2111 C.3       1 <0>        -0.1332
      7 C6         -0.7596    7.3911   -1.2294 C.3       1 <0>        -0.0080
      8 C7          1.3493    7.4070   -0.0357 C.3       1 <0>        -0.0137
      9 C8          1.3723    5.8777    0.0174 C.3       1 <0>        -0.1324
     10 C9          0.7143    9.3041   -1.3990 C.3       1 <0>        -0.0423
     11 C10        -0.0492    3.8437    0.0227 C.ar      1 <0>        -0.0752
     12 C11         1.1560    3.1657    0.0080 C.ar      1 <0>        -0.1229
     13 C12         1.1741    1.7834    0.0004 C.ar      1 <0>        -0.0914
     14 C13        -0.0126    1.0758    0.0080 C.ar      1 <0>        -0.1325
     15 C14        -1.2228    1.7536    0.0174 C.ar      1 <0>         0.1202
     16 C15        -1.2382    3.1410    0.0302 C.ar      1 <0>        -0.1495
     17 O2         -2.3914    1.0598    0.0191 O.3       1 <0>        -0.4957
     18 H1         -2.5931    7.1675    2.7753 H         1 <0>         0.0609
     19 H2         -3.7159    5.8076    3.0169 H         1 <0>         0.0711
     20 H3         -2.0564    5.7154    3.6538 H         1 <0>         0.0652
     21 H4         -2.7754    5.7968    0.7699 H         1 <0>         0.0927
     22 H5         -2.2898    4.3750    1.5808 H         1 <0>         0.1132
     23 H6         -0.3148    5.4743   -2.1067 H         1 <0>         0.1072
     24 H7         -1.8372    5.5246   -1.1844 H         1 <0>         0.1214
     25 H8         -1.2589    7.7776   -0.3409 H         1 <0>         0.1260
     26 H9         -1.2691    7.7574   -2.1206 H         1 <0>         0.1395
     27 H10         0.8401    7.7934    0.8472 H         1 <0>         0.1453
     28 H11         2.3714    7.7850   -0.0601 H         1 <0>         0.1343
     29 H12         1.8876    5.5527    0.9212 H         1 <0>         0.1213
     30 H13         1.8937    5.4905   -0.8580 H         1 <0>         0.1015
     31 H14         1.7585    9.6057   -1.4806 H         1 <0>         0.1239
     32 H15         0.1786    9.6018   -2.3004 H         1 <0>         0.1234
     33 H16         0.2633    9.7869   -0.5321 H         1 <0>         0.1226
     34 H17         2.0847    3.7171    0.0021 H         1 <0>         0.1309
     35 H18         2.1166    1.2562   -0.0110 H         1 <0>         0.1360
     36 H19         0.0021   -0.0041    0.0020 H         1 <0>         0.1372
     37 H20        -2.1792    3.6709    0.0421 H         1 <0>         0.1380
     38 H21        -2.7254    0.8543    0.9030 H         1 <0>         0.3988
     39 N1          0.6506    7.8339   -1.2666 N.4       1 <0>        -0.3950
     40 H22         1.1128    7.4058   -2.0773 H         1 <0>         0.4288
@<TRIPOS>BOND
     1    1    2 1
     2    1   18 1
     3    1   19 1
     4    1   20 1
     5    2    3 1
     6    2   21 1
     7    2   22 1
     8    3    4 2
     9    3    5 1
    10    5    9 1
    11    5    6 1
    12    5   11 1
    13    6    7 1
    14    6   23 1
    15    6   24 1
    16    7   25 1
    17    7   26 1
    18    7   39 1
    19    8    9 1
    20    8   27 1
    21    8   28 1
    22    8   39 1
    23    9   29 1
    24    9   30 1
    25   10   31 1
    26   10   32 1
    27   10   33 1
    28   10   39 1
    29   11   16 ar
    30   11   12 ar
    31   12   13 ar
    32   12   34 1
    33   13   14 ar
    34   13   35 1
    35   14   15 ar
    36   14   36 1
    37   15   16 ar
    38   15   17 1
    39   16   37 1
    40   17   38 1
    41   39   40 1
@<TRIPOS>MOLECULE
ZINC00004902
   43    45     0     0     0
SMALL
USER_CHARGES
2-[1-(cyclopropylmethyl)-4-piperidyl]-1-(4-fluorophenyl)-ethanone
@<TRIPOS>ATOM
      1 C1          0.1244    4.3770    0.4529 C.ar      1 <0>        -0.0426
      2 C2          0.2731    5.7438    0.5364 C.ar      1 <0>        -0.1669
      3 C3          1.5348    6.3139    0.4495 C.ar      1 <0>         0.1434
      4 C4          2.6549    5.5124    0.2845 C.ar      1 <0>        -0.1657
      5 C5          2.5207    4.1438    0.2057 C.ar      1 <0>        -0.0266
      6 C6          1.2508    3.5623    0.2922 C.ar      1 <0>        -0.1973
      7 C7          1.1001    2.1023    0.2084 C.2       1 <0>         0.4030
      8 O1          2.0776    1.3991    0.0641 O.2       1 <0>        -0.4504
      9 C8         -0.2690    1.4795    0.3018 C.3       1 <0>        -0.1557
     10 C9         -0.1465   -0.0413    0.1869 C.3       1 <0>        -0.0930
     11 C10         0.3634   -0.4095   -1.2091 C.3       1 <0>        -0.1515
     12 C11         0.4259   -1.9331   -1.3386 C.3       1 <0>         0.0026
     13 C12        -1.4021   -2.1989    0.2298 C.3       1 <0>        -0.0018
     14 C13        -1.5192   -0.6832    0.4061 C.3       1 <0>        -0.1439
     15 C14        -0.9178   -3.9464   -1.3740 C.3       1 <0>         0.0307
     16 C15         0.1284   -4.6238   -0.4865 C.3       1 <0>        -0.2078
     17 C16         1.2961   -5.3268   -1.1816 C.3       1 <0>        -0.1676
     18 C17         0.1947   -6.1521   -0.5132 C.3       1 <0>        -0.1506
     19 F1          1.6733    7.6556    0.5265 F         1 <0>        -0.1260
     20 H1         -0.8588    3.9347    0.5161 H         1 <0>         0.1412
     21 H2         -0.5949    6.3734    0.6652 H         1 <0>         0.1468
     22 H3          3.6344    5.9625    0.2179 H         1 <0>         0.1473
     23 H4          3.3937    3.5209    0.0779 H         1 <0>         0.1455
     24 H5         -0.8435    1.8247   -0.4403 H         1 <0>         0.0969
     25 H6         -0.7203    1.7362    1.2602 H         1 <0>         0.1123
     26 H7          0.5517   -0.4083    0.9392 H         1 <0>         0.0970
     27 H8         -0.3149   -0.0078   -1.9619 H         1 <0>         0.0849
     28 H9          1.3591    0.0093   -1.3551 H         1 <0>         0.1242
     29 H10         1.1149   -2.3328   -0.5946 H         1 <0>         0.1315
     30 H11         0.7750   -2.1987   -2.3364 H         1 <0>         0.1272
     31 H12        -0.7045   -2.5974    0.9665 H         1 <0>         0.1293
     32 H13        -2.3807   -2.6576    0.3710 H         1 <0>         0.1296
     33 H14        -1.8685   -0.4601    1.4142 H         1 <0>         0.1136
     34 H15        -2.2271   -0.2859   -0.3213 H         1 <0>         0.0902
     35 H16        -1.9041   -4.3507   -1.1462 H         1 <0>         0.1305
     36 H17        -0.6815   -4.1334   -2.4215 H         1 <0>         0.1275
     37 H18         0.3321   -4.1277    0.4625 H         1 <0>         0.1226
     38 H19         1.3189   -5.3068   -2.2712 H         1 <0>         0.1056
     39 H20         2.2684   -5.2932   -0.6900 H         1 <0>         0.1092
     40 H21         0.4424   -6.6614    0.4181 H         1 <0>         0.1112
     41 H22        -0.5072   -6.6750   -1.1627 H         1 <0>         0.1071
     42 N1         -0.9302   -2.4874   -1.1413 N.4       1 <0>        -0.3915
     43 H23        -1.5705   -2.0482   -1.8132 H         1 <0>         0.4281
@<TRIPOS>BOND
     1    1    6 ar
     2    1    2 ar
     3    1   20 1
     4    2    3 ar
     5    2   21 1
     6    3    4 ar
     7    3   19 1
     8    4    5 ar
     9    4   22 1
    10    5    6 ar
    11    5   23 1
    12    6    7 1
    13    7    8 2
    14    7    9 1
    15    9   10 1
    16    9   24 1
    17    9   25 1
    18   10   14 1
    19   10   11 1
    20   10   26 1
    21   11   12 1
    22   11   27 1
    23   11   28 1
    24   12   29 1
    25   12   30 1
    26   12   42 1
    27   13   14 1
    28   13   31 1
    29   13   32 1
    30   13   42 1
    31   14   33 1
    32   14   34 1
    33   15   16 1
    34   15   35 1
    35   15   36 1
    36   15   42 1
    37   16   18 1
    38   16   17 1
    39   16   37 1
    40   17   18 1
    41   17   38 1
    42   17   39 1
    43   18   40 1
    44   18   41 1
    45   42   43 1
@<TRIPOS>MOLECULE
ZINC13730114
   48    50     0     0     0
SMALL
USER_CHARGES
1-benzyl-4-(benzyloxymethyl)piperidine
@<TRIPOS>ATOM
      1 C1         -0.6203   -7.0964   -5.3793 C.ar      1 <0>        -0.0842
      2 C2          0.3456   -6.9570   -4.4003 C.ar      1 <0>        -0.1135
      3 C3         -0.0228   -6.6434   -3.1054 C.ar      1 <0>        -0.0966
      4 C4         -1.3573   -6.4695   -2.7894 C.ar      1 <0>        -0.1630
      5 C5         -2.3237   -6.6145   -3.7671 C.ar      1 <0>        -0.0947
      6 C6         -1.9548   -6.9225   -5.0633 C.ar      1 <0>        -0.1133
      7 C7         -1.7590   -6.1281   -1.3776 C.3       1 <0>         0.0488
      8 C8         -2.3953   -4.2917    0.0659 C.3       1 <0>         0.0012
      9 C9         -2.5368   -2.7696    0.1372 C.3       1 <0>        -0.1426
     10 C10        -1.1538   -2.1264    0.0017 C.3       1 <0>        -0.0979
     11 C11        -0.5190   -2.5731   -1.3182 C.3       1 <0>        -0.1381
     12 C12        -0.4360   -4.1010   -1.3473 C.3       1 <0>        -0.0064
     13 C13        -1.2953   -0.6030    0.0112 C.3       1 <0>         0.0630
     14 O1          0.0021   -0.0041    0.0020 O.3       1 <0>        -0.3811
     15 C14        -0.0173    1.4248    0.0099 C.3       1 <0>         0.1073
     16 C15         1.3965    1.9464   -0.0008 C.ar      1 <0>        -0.1002
     17 C16         2.0544    2.1846    1.1914 C.ar      1 <0>        -0.0984
     18 C17         3.3531    2.6580    1.1815 C.ar      1 <0>        -0.1211
     19 C18         3.9901    2.9037   -0.0204 C.ar      1 <0>        -0.1082
     20 C19         3.3302    2.6709   -1.2126 C.ar      1 <0>        -0.1222
     21 C20         2.0335    2.1921   -1.2028 C.ar      1 <0>        -0.0997
     22 H1         -0.3324   -7.3407   -6.3911 H         1 <0>         0.1359
     23 H2          1.3882   -7.0929   -4.6472 H         1 <0>         0.1361
     24 H3          0.7319   -6.5346   -2.3406 H         1 <0>         0.1309
     25 H4         -3.3666   -6.4830   -3.5193 H         1 <0>         0.1309
     26 H5         -2.7094   -7.0310   -5.8282 H         1 <0>         0.1360
     27 H6         -1.0400   -6.5590   -0.6810 H         1 <0>         0.1362
     28 H7         -2.7501   -6.5333   -1.1738 H         1 <0>         0.1347
     29 H8         -1.7640   -4.6366    0.8848 H         1 <0>         0.1318
     30 H9         -3.3798   -4.7523    0.1477 H         1 <0>         0.1307
     31 H10        -2.9762   -2.4894    1.0946 H         1 <0>         0.1149
     32 H11        -3.1792   -2.4255   -0.6733 H         1 <0>         0.0900
     33 H12        -0.5236   -2.4389    0.8342 H         1 <0>         0.0981
     34 H13        -1.1297   -2.2259   -2.1516 H         1 <0>         0.0853
     35 H14         0.4832   -2.1526   -1.4006 H         1 <0>         0.1185
     36 H15         0.1861   -4.4467   -0.5218 H         1 <0>         0.1300
     37 H16         0.0025   -4.4229   -2.2919 H         1 <0>         0.1290
     38 H17        -1.8320   -0.2936    0.9080 H         1 <0>         0.0598
     39 H18        -1.8490   -0.2840   -0.8718 H         1 <0>         0.0551
     40 H19        -0.5445    1.7859   -0.8732 H         1 <0>         0.0607
     41 H20        -0.5275    1.7763    0.9067 H         1 <0>         0.0617
     42 H21         1.5551    1.9968    2.1305 H         1 <0>         0.1225
     43 H22         3.8688    2.8396    2.1130 H         1 <0>         0.1266
     44 H23         5.0034    3.2771   -0.0281 H         1 <0>         0.1263
     45 H24         3.8279    2.8629   -2.1517 H         1 <0>         0.1260
     46 H25         1.5180    2.0102   -2.1342 H         1 <0>         0.1212
     47 N1         -1.8010   -4.6578   -1.2375 N.4       1 <0>        -0.3931
     48 H26        -2.3812   -4.2677   -1.9894 H         1 <0>         0.4253
@<TRIPOS>BOND
     1    1    6 ar
     2    1    2 ar
     3    1   22 1
     4    2    3 ar
     5    2   23 1
     6    3    4 ar
     7    3   24 1
     8    4    5 ar
     9    4    7 1
    10    5    6 ar
    11    5   25 1
    12    6   26 1
    13    7   27 1
    14    7   28 1
    15    7   47 1
    16    8    9 1
    17    8   29 1
    18    8   30 1
    19    8   47 1
    20    9   10 1
    21    9   31 1
    22    9   32 1
    23   10   11 1
    24   10   13 1
    25   10   33 1
    26   11   12 1
    27   11   34 1
    28   11   35 1
    29   12   36 1
    30   12   37 1
    31   12   47 1
    32   13   14 1
    33   13   38 1
    34   13   39 1
    35   14   15 1
    36   15   16 1
    37   15   40 1
    38   15   41 1
    39   16   21 ar
    40   16   17 ar
    41   17   18 ar
    42   17   42 1
    43   18   19 ar
    44   18   43 1
    45   19   20 ar
    46   19   44 1
    47   20   21 ar
    48   20   45 1
    49   21   46 1
    50   47   48 1
@<TRIPOS>MOLECULE
ZINC13730124
   54    56     0     0     0
SMALL
USER_CHARGES
methyl 4-[[4-[(4-fluorophenyl)methoxymethyl]-1-piperidyl]methyl]benzoate
@<TRIPOS>ATOM
      1 C1         -7.8265   -6.0645   -8.5432 C.3       1 <0>         0.0353
      2 O1         -6.4871   -6.3766   -8.0776 O.3       1 <0>        -0.3532
      3 C2         -5.5385   -5.4399   -8.2713 C.2       1 <0>         0.4978
      4 O2         -5.8226   -4.3911   -8.8142 O.2       1 <0>        -0.4878
      5 C3         -4.1529   -5.6883   -7.8234 C.ar      1 <0>        -0.0863
      6 C4         -3.1672   -4.7195   -8.0226 C.ar      1 <0>        -0.0519
      7 C5         -1.8754   -4.9578   -7.6015 C.ar      1 <0>        -0.1051
      8 C6         -1.5554   -6.1534   -6.9830 C.ar      1 <0>        -0.1305
      9 C7         -2.5261   -7.1199   -6.7872 C.ar      1 <0>        -0.1048
     10 C8         -3.8230   -6.8926   -7.1986 C.ar      1 <0>        -0.0578
     11 C9         -0.1419   -6.4068   -6.5261 C.3       1 <0>         0.0448
     12 C10         1.3030   -6.3707   -4.5841 C.3       1 <0>         0.0014
     13 C11         1.3733   -5.9843   -3.1049 C.3       1 <0>        -0.1428
     14 C12         1.2295   -4.4657   -2.9718 C.3       1 <0>        -0.0982
     15 C13        -0.0933   -4.0286   -3.6071 C.3       1 <0>        -0.1385
     16 C14        -0.1212   -4.4717   -5.0717 C.3       1 <0>        -0.0084
     17 C15         1.2380   -4.0792   -1.4914 C.3       1 <0>         0.0630
     18 O3          1.2210   -2.6554   -1.3708 O.3       1 <0>        -0.3815
     19 C16         1.2273   -2.1863   -0.0209 C.3       1 <0>         0.1085
     20 C17         1.2082   -0.6795   -0.0127 C.ar      1 <0>        -0.1117
     21 C18         0.0021   -0.0041    0.0020 C.ar      1 <0>        -0.0686
     22 C19        -0.0167    1.3778    0.0096 C.ar      1 <0>        -0.1567
     23 C20         1.1732    2.0858    0.0021 C.ar      1 <0>         0.1124
     24 C21         2.3806    1.4083   -0.0131 C.ar      1 <0>        -0.1558
     25 C22         2.3969    0.0264   -0.0202 C.ar      1 <0>        -0.0673
     26 F1          1.1561    3.4366    0.0090 F         1 <0>        -0.1339
     27 H1         -7.8053   -5.8871   -9.6184 H         1 <0>         0.0695
     28 H2         -8.4908   -6.9009   -8.3260 H         1 <0>         0.1104
     29 H3         -8.1890   -5.1711   -8.0346 H         1 <0>         0.0691
     30 H4         -3.4157   -3.7857   -8.5049 H         1 <0>         0.1515
     31 H5         -1.1121   -4.2092   -7.7546 H         1 <0>         0.1430
     32 H6         -2.2687   -8.0526   -6.3075 H         1 <0>         0.1422
     33 H7         -4.5807   -7.6459   -7.0412 H         1 <0>         0.1523
     34 H8          0.5513   -5.8739   -7.1769 H         1 <0>         0.1408
     35 H9          0.0679   -7.4755   -6.5693 H         1 <0>         0.1396
     36 H10         2.1188   -5.8903   -5.1241 H         1 <0>         0.1328
     37 H11         1.3908   -7.4528   -4.6813 H         1 <0>         0.1318
     38 H12         2.3328   -6.2965   -2.6925 H         1 <0>         0.1155
     39 H13         0.5660   -6.4753   -2.5617 H         1 <0>         0.0905
     40 H14         2.0589   -3.9751   -3.4811 H         1 <0>         0.0987
     41 H15        -0.9238   -4.4889   -3.0718 H         1 <0>         0.0860
     42 H16        -0.1818   -2.9435   -3.5535 H         1 <0>         0.1193
     43 H17         0.7013   -4.0001   -5.6095 H         1 <0>         0.1321
     44 H18        -1.0678   -4.1745   -5.5231 H         1 <0>         0.1291
     45 H19         2.1374   -4.4732   -1.0182 H         1 <0>         0.0606
     46 H20         0.3577   -4.4958   -1.0020 H         1 <0>         0.0559
     47 H21         2.1265   -2.5411    0.4828 H         1 <0>         0.0643
     48 H22         0.3467   -2.5637    0.4990 H         1 <0>         0.0633
     49 H23        -0.9259   -0.5565    0.0079 H         1 <0>         0.1328
     50 H24        -0.9591    1.9052    0.0169 H         1 <0>         0.1398
     51 H25         3.3093    1.9595   -0.0194 H         1 <0>         0.1404
     52 H26         3.3385   -0.5023   -0.0313 H         1 <0>         0.1340
     53 N1         -0.0031   -5.9443   -5.1297 N.4       1 <0>        -0.3936
     54 H27        -0.7521   -6.3611   -4.5645 H         1 <0>         0.4264
@<TRIPOS>BOND
     1    1    2 1
     2    1   27 1
     3    1   28 1
     4    1   29 1
     5    2    3 1
     6    3    4 2
     7    3    5 1
     8    5   10 ar
     9    5    6 ar
    10    6    7 ar
    11    6   30 1
    12    7    8 ar
    13    7   31 1
    14    8    9 ar
    15    8   11 1
    16    9   10 ar
    17    9   32 1
    18   10   33 1
    19   11   34 1
    20   11   35 1
    21   11   53 1
    22   12   13 1
    23   12   36 1
    24   12   37 1
    25   12   53 1
    26   13   14 1
    27   13   38 1
    28   13   39 1
    29   14   15 1
    30   14   17 1
    31   14   40 1
    32   15   16 1
    33   15   41 1
    34   15   42 1
    35   16   43 1
    36   16   44 1
    37   16   53 1
    38   17   18 1
    39   17   45 1
    40   17   46 1
    41   18   19 1
    42   19   20 1
    43   19   47 1
    44   19   48 1
    45   20   25 ar
    46   20   21 ar
    47   21   22 ar
    48   21   49 1
    49   22   23 ar
    50   22   50 1
    51   23   24 ar
    52   23   26 1
    53   24   25 ar
    54   24   51 1
    55   25   52 1
    56   53   54 1
@<TRIPOS>MOLECULE
ZINC03812984
   43    46     0     0     0
SMALL
USER_CHARGES
methylBLAHol
@<TRIPOS>ATOM
      1 C1         -2.7983    1.5746    2.5117 C.3       1 <0>        -0.0492
      2 C2         -2.8836    1.5590    0.0946 C.3       1 <0>        -0.0137
      3 C3         -2.1794    1.0201   -1.2058 C.3       1 <0>        -0.1260
      4 C4         -0.7576    1.5994   -1.2263 C.3       1 <0>        -0.0184
      5 C5         -0.0471    1.1494   -2.4971 C.3       1 <0>        -0.1096
      6 C6          1.3879    1.6819   -2.5009 C.3       1 <0>        -0.1248
      7 C7          2.1311    1.1511   -1.2732 C.3       1 <0>        -0.1197
      8 C8          1.4200    1.6218   -0.0028 C.3       1 <0>        -0.1140
      9 C9         -0.0127    1.0858    0.0080 C.3       1 <0>        -0.0868
     10 H1          0.0021   -0.0041    0.0020 H         1 <0>         0.1005
     11 C10        -0.7376    1.5857    1.2587 C.3       1 <0>         0.0368
     12 H2         -0.2470    1.1454    2.1268 H         1 <0>         0.1322
     13 C11        -0.6296    3.0942    1.3559 C.3       1 <0>        -0.0906
     14 C12        -0.8275    3.7825    0.0324 C.ar      1 <0>        -0.1118
     15 C13        -0.8645    3.1019   -1.1649 C.ar      1 <0>        -0.0525
     16 C14        -1.0059    3.7971   -2.3554 C.ar      1 <0>        -0.1389
     17 C15        -1.1227    5.1776   -2.3507 C.ar      1 <0>         0.1246
     18 C16        -1.1001    5.8624   -1.1445 C.ar      1 <0>        -0.1373
     19 C17        -0.9542    5.1667    0.0366 C.ar      1 <0>        -0.0934
     20 O1         -1.2582    5.8565   -3.5201 O.3       1 <0>        -0.4965
     21 H3         -2.7772    2.6625    2.5756 H         1 <0>         0.1254
     22 H4         -3.8328    1.2313    2.5006 H         1 <0>         0.1236
     23 H5         -2.2838    1.1498    3.3736 H         1 <0>         0.1231
     24 H6         -3.8977    1.1640    0.1553 H         1 <0>         0.1274
     25 H7         -2.9199    2.6475    0.0505 H         1 <0>         0.1324
     26 H8         -2.7194    1.3346   -2.0989 H         1 <0>         0.1139
     27 H9         -2.1344   -0.0682   -1.1643 H         1 <0>         0.0929
     28 H10        -0.5796    1.5352   -3.3664 H         1 <0>         0.0775
     29 H11        -0.0300    0.0602   -2.5361 H         1 <0>         0.0764
     30 H12         1.3713    2.7714   -2.4727 H         1 <0>         0.0675
     31 H13         1.8966    1.3495   -3.4057 H         1 <0>         0.0729
     32 H14         3.1542    1.5269   -1.2774 H         1 <0>         0.0739
     33 H15         2.1443    0.0615   -1.2996 H         1 <0>         0.0675
     34 H16         1.4005    2.7114    0.0201 H         1 <0>         0.0786
     35 H17         1.9539    1.2495    0.8716 H         1 <0>         0.0744
     36 H18         0.3629    3.3369    1.7355 H         1 <0>         0.1193
     37 H19        -1.3763    3.4612    2.0602 H         1 <0>         0.0962
     38 H20        -1.0247    3.2597   -3.2921 H         1 <0>         0.1368
     39 H21        -1.1963    6.9380   -1.1308 H         1 <0>         0.1364
     40 H22        -0.9386    5.7022    0.9743 H         1 <0>         0.1313
     41 H23        -0.4191    6.1273   -3.9172 H         1 <0>         0.4003
     42 N1         -2.1333    1.0997    1.2905 N.4       1 <0>        -0.3877
     43 H24        -2.1230    0.0730    1.2965 H         1 <0>         0.4294
@<TRIPOS>BOND
     1    1   21 1
     2    1   22 1
     3    1   23 1
     4    1   42 1
     5    2    3 1
     6    2   24 1
     7    2   25 1
     8    2   42 1
     9    3    4 1
    10    3   26 1
    11    3   27 1
    12    4    9 1
    13    4   15 1
    14    4    5 1
    15    5    6 1
    16    5   28 1
    17    5   29 1
    18    6    7 1
    19    6   30 1
    20    6   31 1
    21    7    8 1
    22    7   32 1
    23    7   33 1
    24    8    9 1
    25    8   34 1
    26    8   35 1
    27    9   10 1
    28    9   11 1
    29   11   12 1
    30   11   13 1
    31   11   42 1
    32   13   14 1
    33   13   36 1
    34   13   37 1
    35   14   19 ar
    36   14   15 ar
    37   15   16 ar
    38   16   17 ar
    39   16   38 1
    40   17   18 ar
    41   17   20 1
    42   18   19 ar
    43   18   39 1
    44   19   40 1
    45   20   41 1
    46   42   43 1
@<TRIPOS>MOLECULE
ZINC00001681
   40    41     0     0     0
SMALL
USER_CHARGES
ethyl 1-methyl-4-phenyl-piperidine-4-carboxylate
@<TRIPOS>ATOM
      1 C1          3.5677    2.0652   -0.0209 C.3       1 <0>        -0.1571
      2 C2          2.3672    1.1168   -0.0145 C.3       1 <0>         0.0617
      3 O1          1.1389    1.8910    0.0013 O.3       1 <0>        -0.3457
      4 C3         -0.0143    1.2041    0.0087 C.2       1 <0>         0.4691
      5 O2          0.0021   -0.0041    0.0020 O.2       1 <0>        -0.4997
      6 C4         -1.3295    1.9397    0.0189 C.3       1 <0>        -0.0092
      7 C5         -1.4192    2.8101    1.2755 C.3       1 <0>        -0.1353
      8 C6         -1.3795    1.9111    2.5150 C.3       1 <0>        -0.0071
      9 C7         -2.4095    0.0867    1.2971 C.3       1 <0>        -0.0155
     10 C8         -2.4806    0.9300    0.0221 C.3       1 <0>        -0.1304
     11 C9         -2.5751    0.1785    3.7106 C.3       1 <0>        -0.0419
     12 C10        -1.4281    2.8121   -1.2060 C.ar      1 <0>        -0.1077
     13 C11        -2.4513    2.6149   -2.1144 C.ar      1 <0>        -0.1098
     14 C12        -2.5445    3.4182   -3.2355 C.ar      1 <0>        -0.1151
     15 C13        -1.6086    4.4119   -3.4536 C.ar      1 <0>        -0.1002
     16 C14        -0.5824    4.6057   -2.5478 C.ar      1 <0>        -0.1135
     17 C15        -0.4922    3.8058   -1.4241 C.ar      1 <0>        -0.0965
     18 H1          3.5259    2.6984   -0.9071 H         1 <0>         0.0712
     19 H2          3.5429    2.6889    0.8727 H         1 <0>         0.0689
     20 H3          4.4898    1.4841   -0.0328 H         1 <0>         0.0877
     21 H4          2.4091    0.4836    0.8717 H         1 <0>         0.0733
     22 H5          2.3921    0.4932   -0.9082 H         1 <0>         0.0766
     23 H6         -0.5779    3.5027    1.2993 H         1 <0>         0.1270
     24 H7         -2.3533    3.3716    1.2633 H         1 <0>         0.1104
     25 H8         -1.4581    2.5258    3.4117 H         1 <0>         0.1406
     26 H9         -0.4392    1.3601    2.5336 H         1 <0>         0.1245
     27 H10        -3.2361   -0.6236    1.3093 H         1 <0>         0.1363
     28 H11        -1.4643   -0.4555    1.3217 H         1 <0>         0.1477
     29 H12        -3.4314    1.4620   -0.0098 H         1 <0>         0.1089
     30 H13        -2.3971    0.2803   -0.8491 H         1 <0>         0.1247
     31 H14        -1.6814   -0.4384    3.8039 H         1 <0>         0.1222
     32 H15        -2.6420    0.8527    4.5645 H         1 <0>         0.1236
     33 H16        -3.4571   -0.4613    3.6829 H         1 <0>         0.1244
     34 H17        -3.1799    1.8356   -1.9463 H         1 <0>         0.1276
     35 H18        -3.3460    3.2666   -3.9433 H         1 <0>         0.1307
     36 H19        -1.6789    5.0366   -4.3317 H         1 <0>         0.1305
     37 H20         0.1490    5.3818   -2.7184 H         1 <0>         0.1310
     38 H21         0.3097    3.9569   -0.7166 H         1 <0>         0.1329
     39 N1         -2.5265    0.9792    2.4698 N.4       1 <0>        -0.3958
     40 H22        -3.3940    1.5225    2.3895 H         1 <0>         0.4289
@<TRIPOS>BOND
     1    1    2 1
     2    1   18 1
     3    1   19 1
     4    1   20 1
     5    2    3 1
     6    2   21 1
     7    2   22 1
     8    3    4 1
     9    4    5 2
    10    4    6 1
    11    6   10 1
    12    6    7 1
    13    6   12 1
    14    7    8 1
    15    7   23 1
    16    7   24 1
    17    8   25 1
    18    8   26 1
    19    8   39 1
    20    9   10 1
    21    9   27 1
    22    9   28 1
    23    9   39 1
    24   10   29 1
    25   10   30 1
    26   11   31 1
    27   11   32 1
    28   11   33 1
    29   11   39 1
    30   12   17 ar
    31   12   13 ar
    32   13   14 ar
    33   13   34 1
    34   14   15 ar
    35   14   35 1
    36   15   16 ar
    37   15   36 1
    38   16   17 ar
    39   16   37 1
    40   17   38 1
    41   39   40 1
@<TRIPOS>MOLECULE
ZINC00013635
   48    50     0     0     0
SMALL
USER_CHARGES
1-(4-fluorophenyl)-4-[4-(5-fluoropyrimidin-2-yl)piperazin-1-yl]-butan-1-ol
@<TRIPOS>ATOM
      1 C1          1.0412    1.5837    3.0363 C.ar      1 <0>        -0.0821
      2 C2          1.6394    1.0387    4.1565 C.ar      1 <0>        -0.1487
      3 C3          1.1287   -0.1186    4.7195 C.ar      1 <0>         0.1092
      4 C4          0.0154   -0.7251    4.1629 C.ar      1 <0>        -0.1494
      5 C5         -0.5848   -0.1748    3.0463 C.ar      1 <0>        -0.0791
      6 C6         -0.0738    0.9805    2.4848 C.ar      1 <0>        -0.1421
      7 C7         -0.7288    1.5792    1.2668 C.3       1 <0>         0.1541
      8 H1         -1.7755    1.2768    1.2315 H         1 <0>         0.1127
      9 C8         -0.0127    1.0858    0.0080 C.3       1 <0>        -0.1461
     10 C9         -0.7527    1.5927   -1.2315 C.3       1 <0>        -0.1479
     11 C10        -0.0366    1.0992   -2.4903 C.3       1 <0>        -0.0043
     12 C11        -2.0820    0.9798   -3.7813 C.3       1 <0>         0.0008
     13 C12        -2.8179    1.5708   -4.9862 C.3       1 <0>         0.0351
     14 N1         -2.0359    1.3212   -6.2051 N.pl3     1 <0>        -0.4598
     15 C13        -0.7009    1.9272   -6.1043 C.3       1 <0>         0.0392
     16 C14         0.0349    1.3363   -4.8994 C.3       1 <0>         0.0015
     17 C15        -2.7060    1.7802   -7.3275 C.ar      1 <0>         0.4661
     18 N2         -2.1100    2.6561   -8.1225 N.ar      1 <0>        -0.5236
     19 C16        -2.7192    3.1114   -9.2050 C.ar      1 <0>         0.1560
     20 C17        -4.0015    2.6679   -9.4965 C.ar      1 <0>        -0.0098
     21 C18        -4.5973    1.7540   -8.6388 C.ar      1 <0>         0.1581
     22 N3         -3.9289    1.3363   -7.5762 N.ar      1 <0>        -0.4963
     23 F1         -4.6552    3.1161  -10.5905 F         1 <0>        -0.1081
     24 O1         -0.6468    3.0043    1.3339 O.3       1 <0>        -0.5522
     25 F2          1.7165   -0.6559    5.8109 F         1 <0>        -0.1327
     26 H2          1.4424    2.4836    2.5939 H         1 <0>         0.1302
     27 H3          2.5075    1.5128    4.5901 H         1 <0>         0.1407
     28 H4         -0.3836   -1.6280    4.6010 H         1 <0>         0.1411
     29 H5         -1.4532   -0.6477    2.6119 H         1 <0>         0.1345
     30 H6          0.0021   -0.0041    0.0020 H         1 <0>         0.0879
     31 H7          1.0099    1.4631    0.0003 H         1 <0>         0.0808
     32 H8         -1.7753    1.2154   -1.2238 H         1 <0>         0.0887
     33 H9         -0.7675    2.6825   -1.2255 H         1 <0>         0.0946
     34 H10         0.9860    1.4765   -2.4981 H         1 <0>         0.1312
     35 H11        -0.0218    0.0093   -2.4963 H         1 <0>         0.1334
     36 H12        -1.9834   -0.0982   -3.9084 H         1 <0>         0.1445
     37 H13        -2.6460    1.1891   -2.8723 H         1 <0>         0.1430
     38 H14        -2.9406    2.6448   -4.8464 H         1 <0>         0.0716
     39 H15        -3.7974    1.1020   -5.0802 H         1 <0>         0.1406
     40 H16        -0.7996    3.0053   -5.9772 H         1 <0>         0.0805
     41 H17        -0.1369    1.7180   -7.0132 H         1 <0>         0.1355
     42 H18         1.0143    1.8054   -4.8055 H         1 <0>         0.1423
     43 H19         0.1580    0.2623   -5.0390 H         1 <0>         0.1418
     44 H20        -2.2262    3.8222   -9.8517 H         1 <0>         0.1904
     45 H21        -5.5941    1.3881   -8.8363 H         1 <0>         0.1926
     46 H22         0.2576    3.3450    1.3680 H         1 <0>         0.3776
     47 N4         -0.7508    1.6135   -3.6783 N.4       1 <0>        -0.4002
     48 H23        -0.8709    2.6286   -3.5819 H         1 <0>         0.4263
@<TRIPOS>BOND
     1    1    6 ar
     2    1    2 ar
     3    1   26 1
     4    2    3 ar
     5    2   27 1
     6    3    4 ar
     7    3   25 1
     8    4    5 ar
     9    4   28 1
    10    5    6 ar
    11    5   29 1
    12    6    7 1
    13    7    8 1
    14    7    9 1
    15    7   24 1
    16    9   10 1
    17    9   30 1
    18    9   31 1
    19   10   11 1
    20   10   32 1
    21   10   33 1
    22   11   34 1
    23   11   35 1
    24   11   47 1
    25   12   13 1
    26   12   36 1
    27   12   37 1
    28   12   47 1
    29   13   14 1
    30   13   38 1
    31   13   39 1
    32   14   15 1
    33   14   17 1
    34   15   16 1
    35   15   40 1
    36   15   41 1
    37   16   42 1
    38   16   43 1
    39   16   47 1
    40   17   22 ar
    41   17   18 ar
    42   18   19 ar
    43   19   20 ar
    44   19   44 1
    45   20   21 ar
    46   20   23 1
    47   21   22 ar
    48   21   45 1
    49   24   46 1
    50   47   48 1
@<TRIPOS>MOLECULE
ZINC03995923
   48    50     0     0     0
SMALL
USER_CHARGES

@<TRIPOS>ATOM
      1 C1         -0.0167    1.3782    0.0096 C.ar      1 <0>        -0.0781
      2 C2          1.1703    2.0860    0.0021 C.ar      1 <0>        -0.1497
      3 C3          2.3786    1.4101   -0.0131 C.ar      1 <0>         0.1097
      4 C4          2.3962    0.0256   -0.0207 C.ar      1 <0>        -0.1490
      5 C5          1.2079   -0.6800   -0.0132 C.ar      1 <0>        -0.0821
      6 C6          0.0021   -0.0041    0.0020 C.ar      1 <0>        -0.1424
      7 C7         -1.2930   -0.7747    0.0103 C.3       1 <0>         0.1543
      8 H1         -2.0956   -0.1325    0.3729 H         1 <0>         0.1124
      9 C8         -1.6168   -1.2431   -1.4098 C.3       1 <0>        -0.1464
     10 C9         -2.9905   -1.9166   -1.4239 C.3       1 <0>        -0.1466
     11 C10        -3.3143   -2.3850   -2.8440 C.3       1 <0>        -0.0104
     12 N1         -4.6332   -3.0316   -2.8576 N.4       1 <0>        -0.3844
     13 C11        -5.6646   -2.0428   -2.5191 C.3       1 <0>        -0.0257
     14 C12        -7.0258   -2.7393   -2.4206 C.3       1 <0>         0.1070
     15 N2         -7.2699   -3.4658   -3.6763 N.pl3     1 <0>        -0.6032
     16 C13        -6.2137   -4.3590   -4.1770 C.3       1 <0>         0.1066
     17 C14        -4.8909   -3.5860   -4.1926 C.3       1 <0>        -0.0203
     18 C15        -8.4609   -3.3134   -4.3675 C.ar      1 <0>         0.5493
     19 N3         -9.3862   -2.4962   -3.8876 N.ar      1 <0>        -0.5400
     20 C16       -10.5347   -2.3272   -4.5222 C.ar      1 <0>         0.1757
     21 C17       -10.7629   -3.0188   -5.7035 C.ar      1 <0>        -0.0428
     22 C18        -9.7713   -3.8665   -6.1770 C.ar      1 <0>         0.1757
     23 N4         -8.6439   -3.9844   -5.4947 N.ar      1 <0>        -0.5402
     24 F1        -11.9244   -2.8705   -6.3773 F         1 <0>        -0.1137
     25 O1         -1.1663   -1.9098    0.8690 O.3       1 <0>        -0.5517
     26 F2          3.5396    2.1009   -0.0209 F         1 <0>        -0.1326
     27 H2         -0.9592    1.9052    0.0260 H         1 <0>         0.1346
     28 H3          1.1554    3.1659    0.0077 H         1 <0>         0.1412
     29 H4          3.3381   -0.5027   -0.0329 H         1 <0>         0.1407
     30 H5          1.2213   -1.7599   -0.0195 H         1 <0>         0.1299
     31 H6         -1.6258   -0.3852   -2.0822 H         1 <0>         0.0870
     32 H7         -0.8598   -1.9549   -1.7391 H         1 <0>         0.0808
     33 H8         -2.9815   -2.7744   -0.7516 H         1 <0>         0.0962
     34 H9         -3.7475   -1.2048   -1.0947 H         1 <0>         0.0889
     35 H10        -3.3233   -1.5271   -3.5164 H         1 <0>         0.1293
     36 H11        -2.5573   -3.0968   -3.1733 H         1 <0>         0.1327
     37 H12        -5.4236   -1.5790   -1.5626 H         1 <0>         0.1466
     38 H13        -5.7031   -1.2778   -3.2946 H         1 <0>         0.1328
     39 H14        -7.0185   -3.4413   -1.5868 H         1 <0>         0.0945
     40 H15        -7.8080   -1.9952   -2.2699 H         1 <0>         0.1410
     41 H16        -6.1244   -5.2246   -3.5205 H         1 <0>         0.0944
     42 H17        -6.4590   -4.6858   -5.1875 H         1 <0>         0.1412
     43 H18        -4.9528   -2.7743   -4.9175 H         1 <0>         0.1325
     44 H19        -4.0797   -4.2594   -4.4692 H         1 <0>         0.1453
     45 H20       -11.2854   -1.6597   -4.1256 H         1 <0>         0.1886
     46 H21        -9.9165   -4.4199   -7.0930 H         1 <0>         0.1886
     47 H22        -0.4692   -2.5262    0.6060 H         1 <0>         0.3777
     48 H23        -4.6484   -3.7762   -2.1768 H         1 <0>         0.4241
@<TRIPOS>BOND
     1    1    6 ar
     2    1    2 ar
     3    1   27 1
     4    2    3 ar
     5    2   28 1
     6    3    4 ar
     7    3   26 1
     8    4    5 ar
     9    4   29 1
    10    5    6 ar
    11    5   30 1
    12    6    7 1
    13    7    8 1
    14    7    9 1
    15    7   25 1
    16    9   10 1
    17    9   31 1
    18    9   32 1
    19   10   11 1
    20   10   33 1
    21   10   34 1
    22   11   12 1
    23   11   35 1
    24   11   36 1
    25   12   17 1
    26   12   13 1
    27   12   48 1
    28   13   14 1
    29   13   37 1
    30   13   38 1
    31   14   15 1
    32   14   39 1
    33   14   40 1
    34   15   16 1
    35   15   18 1
    36   16   17 1
    37   16   41 1
    38   16   42 1
    39   17   43 1
    40   17   44 1
    41   18   23 ar
    42   18   19 ar
    43   19   20 ar
    44   20   21 ar
    45   20   45 1
    46   21   22 ar
    47   21   24 1
    48   22   23 ar
    49   22   46 1
    50   25   47 1
@<TRIPOS>MOLECULE
ZINC03995923
   47    49     0     0     0
SMALL
USER_CHARGES

@<TRIPOS>ATOM
      1 C1         -0.0167    1.3782    0.0096 C.ar      1 <0>        -0.0807
      2 C2          1.1703    2.0860    0.0021 C.ar      1 <0>        -0.1505
      3 C3          2.3786    1.4101   -0.0131 C.ar      1 <0>         0.0991
      4 C4          2.3962    0.0256   -0.0207 C.ar      1 <0>        -0.1496
      5 C5          1.2079   -0.6800   -0.0132 C.ar      1 <0>        -0.0833
      6 C6          0.0021   -0.0041    0.0020 C.ar      1 <0>        -0.1286
      7 C7         -1.2930   -0.7747    0.0103 C.3       1 <0>         0.1510
      8 H1         -2.0956   -0.1325    0.3729 H         1 <0>         0.1092
      9 C8         -1.6168   -1.2431   -1.4098 C.3       1 <0>        -0.1459
     10 C9         -2.9905   -1.9166   -1.4239 C.3       1 <0>        -0.1128
     11 C10        -3.3143   -2.3850   -2.8440 C.3       1 <0>         0.0557
     12 N1         -4.6332   -3.0316   -2.8576 N.3       1 <0>        -0.5375
     13 C11        -5.6963   -2.0657   -2.5496 C.3       1 <0>         0.0377
     14 C12        -7.0277   -2.8084   -2.3950 C.3       1 <0>         0.1302
     15 N2         -7.2538   -3.6182   -3.6018 N.pl3     1 <0>        -0.5802
     16 C13        -6.1757   -4.5115   -4.0524 C.3       1 <0>         0.1305
     17 C14        -4.8779   -3.7017   -4.1417 C.3       1 <0>         0.0409
     18 C15        -8.4505   -3.5418   -4.2955 C.ar      1 <0>         0.5595
     19 N3         -9.3969   -2.7223   -3.8627 N.ar      1 <0>        -0.5478
     20 C16       -10.5515   -2.6247   -4.5010 C.ar      1 <0>         0.1770
     21 C17       -10.7639   -3.3942   -5.6363 C.ar      1 <0>        -0.0771
     22 C18        -9.7505   -4.2419   -6.0611 C.ar      1 <0>         0.1769
     23 N4         -8.6183   -4.2861   -5.3782 N.ar      1 <0>        -0.5481
     24 F1        -11.9312   -3.3201   -6.3125 F         1 <0>        -0.1263
     25 O1         -1.1663   -1.9098    0.8690 O.3       1 <0>        -0.5504
     26 F2          3.5396    2.1009   -0.0209 F         1 <0>        -0.1381
     27 H2         -0.9592    1.9052    0.0260 H         1 <0>         0.1345
     28 H3          1.1554    3.1659    0.0077 H         1 <0>         0.1378
     29 H4          3.3381   -0.5027   -0.0329 H         1 <0>         0.1376
     30 H5          1.2213   -1.7599   -0.0195 H         1 <0>         0.1309
     31 H6         -1.6258   -0.3852   -2.0822 H         1 <0>         0.0733
     32 H7         -0.8598   -1.9549   -1.7391 H         1 <0>         0.0697
     33 H8         -2.9815   -2.7744   -0.7516 H         1 <0>         0.0813
     34 H9         -3.7475   -1.2048   -1.0947 H         1 <0>         0.0639
     35 H10        -3.3233   -1.5271   -3.5164 H         1 <0>         0.0330
     36 H11        -2.5573   -3.0968   -3.1733 H         1 <0>         0.0762
     37 H12        -5.4589   -1.5475   -1.6204 H         1 <0>         0.0936
     38 H13        -5.7758   -1.3414   -3.3603 H         1 <0>         0.0376
     39 H14        -6.9852   -3.4581   -1.5208 H         1 <0>         0.0769
     40 H15        -7.8377   -2.0881   -2.2804 H         1 <0>         0.1022
     41 H16        -6.0514   -5.3249   -3.3375 H         1 <0>         0.0769
     42 H17        -6.4224   -4.9172   -5.0336 H         1 <0>         0.1024
     43 H18        -4.9687   -2.9547   -4.9303 H         1 <0>         0.0380
     44 H19        -4.0469   -4.3701   -4.3673 H         1 <0>         0.0904
     45 H20       -11.3194   -1.9549   -4.1429 H         1 <0>         0.1795
     46 H21        -9.8830   -4.8548   -6.9404 H         1 <0>         0.1794
     47 H22        -0.4692   -2.5262    0.6060 H         1 <0>         0.3740
@<TRIPOS>BOND
     1    1    6 ar
     2    1    2 ar
     3    1   27 1
     4    2    3 ar
     5    2   28 1
     6    3    4 ar
     7    3   26 1
     8    4    5 ar
     9    4   29 1
    10    5    6 ar
    11    5   30 1
    12    6    7 1
    13    7    8 1
    14    7    9 1
    15    7   25 1
    16    9   10 1
    17    9   31 1
    18    9   32 1
    19   10   11 1
    20   10   33 1
    21   10   34 1
    22   11   12 1
    23   11   35 1
    24   11   36 1
    25   12   17 1
    26   12   13 1
    27   13   14 1
    28   13   37 1
    29   13   38 1
    30   14   15 1
    31   14   39 1
    32   14   40 1
    33   15   16 1
    34   15   18 1
    35   16   17 1
    36   16   41 1
    37   16   42 1
    38   17   43 1
    39   17   44 1
    40   18   23 ar
    41   18   19 ar
    42   19   20 ar
    43   20   21 ar
    44   20   45 1
    45   21   22 ar
    46   21   24 1
    47   22   23 ar
    48   22   46 1
    49   25   47 1
@<TRIPOS>MOLECULE
ZINC03812983
   41    45     0     0     0
SMALL
USER_CHARGES
methylBLAHdiol
@<TRIPOS>ATOM
      1 C1          2.5532   -4.0281   -1.2929 C.3       1 <0>        -0.0484
      2 C2          3.5947   -1.8745   -0.9415 C.3       1 <0>        -0.0043
      3 C3          3.6019   -0.5992   -0.0995 C.3       1 <0>        -0.1260
      4 C4          2.2189    0.0434   -0.2379 C.3       1 <0>        -0.0574
      5 C5          1.9436    0.2694   -1.7033 C.ar      1 <0>        -0.1864
      6 C6          1.3321   -0.5987   -2.5755 C.ar      1 <0>        -0.0564
      7 C7          1.2190   -0.1564   -3.8812 C.ar      1 <0>        -0.1265
      8 C8          1.6669    1.1083   -4.2290 C.ar      1 <0>        -0.1009
      9 C9          2.2257    2.0020   -3.3175 C.ar      1 <0>         0.1075
     10 C10         2.3451    1.5675   -1.9939 C.ar      1 <0>         0.1517
     11 O1          2.7949    2.1721   -0.8702 O.3       1 <0>        -0.2745
     12 C11         2.1727    1.4792    0.2740 C.3       1 <0>         0.1100
     13 H1          2.6983    1.6223    1.2181 H         1 <0>         0.1502
     14 C12         0.7367    2.0155    0.2661 C.3       1 <0>         0.1097
     15 H2          0.6482    2.7733    1.0446 H         1 <0>         0.0803
     16 C13        -0.3150    0.9908    0.4879 C.2       1 <0>        -0.1525
     17 C14        -0.1527   -0.2942    0.4717 C.2       1 <0>        -0.1355
     18 C15         1.1799   -0.9197    0.2862 C.3       1 <0>        -0.0479
     19 H3          1.5192   -1.2471    1.2689 H         1 <0>         0.1004
     20 C16         1.1821   -2.1468   -0.6151 C.3       1 <0>         0.0590
     21 H4          0.4619   -2.8606   -0.2153 H         1 <0>         0.1363
     22 C17         0.8134   -1.9003   -2.0558 C.3       1 <0>        -0.0882
     23 O2          0.4964    2.6425   -0.9953 O.3       1 <0>        -0.5359
     24 O3          2.6371    3.2410   -3.6984 O.3       1 <0>        -0.4796
     25 H5          2.4612   -3.8104   -2.3570 H         1 <0>         0.1267
     26 H6          3.4994   -4.5361   -1.1065 H         1 <0>         0.1256
     27 H7          1.7289   -4.6694   -0.9807 H         1 <0>         0.1244
     28 H8          4.5493   -2.3884   -0.8287 H         1 <0>         0.1314
     29 H9          3.4563   -1.6019   -1.9877 H         1 <0>         0.1340
     30 H10         4.3670    0.0825   -0.4709 H         1 <0>         0.1194
     31 H11         3.7955   -0.8428    0.9451 H         1 <0>         0.0984
     32 H12         0.7809   -0.7981   -4.6314 H         1 <0>         0.1324
     33 H13         1.5779    1.4173   -5.2600 H         1 <0>         0.1363
     34 H14        -1.3148    1.3526    0.6772 H         1 <0>         0.1225
     35 H15        -1.0158   -0.9312    0.5970 H         1 <0>         0.1292
     36 H16        -0.2725   -1.9066   -2.1492 H         1 <0>         0.1227
     37 H17         1.2210   -2.7075   -2.6645 H         1 <0>         0.1017
     38 H18        -0.3623    3.0826   -1.0586 H         1 <0>         0.3865
     39 H19         3.5594    3.2780   -3.9865 H         1 <0>         0.3923
     40 N1          2.5173   -2.7921   -0.4927 N.4       1 <0>        -0.3970
     41 H20         2.6774   -3.0298    0.4933 H         1 <0>         0.4294
@<TRIPOS>BOND
     1    1   25 1
     2    1   26 1
     3    1   27 1
     4    1   40 1
     5    2    3 1
     6    2   28 1
     7    2   29 1
     8    2   40 1
     9    3    4 1
    10    3   30 1
    11    3   31 1
    12    4   12 1
    13    4   18 1
    14    4    5 1
    15    5   10 ar
    16    5    6 ar
    17    6   22 1
    18    6    7 ar
    19    7    8 ar
    20    7   32 1
    21    8    9 ar
    22    8   33 1
    23    9   10 ar
    24    9   24 1
    25   10   11 1
    26   11   12 1
    27   12   13 1
    28   12   14 1
    29   14   15 1
    30   14   16 1
    31   14   23 1
    32   16   17 2
    33   16   34 1
    34   17   18 1
    35   17   35 1
    36   18   19 1
    37   18   20 1
    38   20   21 1
    39   20   22 1
    40   20   40 1
    41   22   36 1
    42   22   37 1
    43   23   38 1
    44   24   39 1
    45   40   41 1
@<TRIPOS>MOLECULE
ZINC14952116
   76    77     0     0     0
SMALL
USER_CHARGES

@<TRIPOS>ATOM
      1 C1         -0.0187    1.5258    0.0104 C.3       1 <0>        -0.1447
      2 C2          0.0021   -0.0041    0.0020 C.3       1 <0>        -0.0967
      3 C3          0.7421   -0.5109    1.2415 C.3       1 <0>        -0.1473
      4 C4         -1.4333   -0.5336    0.0129 C.3       1 <0>        -0.1054
      5 C5         -1.4157   -2.0577   -0.1212 C.3       1 <0>         0.0745
      6 H1         -0.7891   -2.4841    0.6622 H         1 <0>         0.0870
      7 C6         -2.8192   -2.5900    0.0125 C.2       1 <0>         0.4905
      8 O1         -3.3892   -3.0569   -0.9588 O.co2     1 <0>        -0.6874
      9 O2         -3.3846   -2.5537    1.0921 O.co2     1 <0>        -0.6962
     10 N1         -0.8765   -2.4263   -1.4325 N.am      1 <0>        -0.6830
     11 C7         -0.2982   -3.6308   -1.6090 C.2       1 <0>         0.5110
     12 O3         -0.2242   -4.4096   -0.6822 O.2       1 <0>        -0.5434
     13 C8          0.2565   -4.0101   -2.9579 C.3       1 <0>         0.1410
     14 H2          1.0331   -3.3007   -3.2439 H         1 <0>         0.1113
     15 C9         -0.8664   -3.9833   -3.9969 C.3       1 <0>        -0.0906
     16 C10        -0.2907   -4.2419   -5.3654 C.ar      1 <0>        -0.0564
     17 C11         0.1466   -3.1854   -6.1422 C.ar      1 <0>        -0.1049
     18 C12         0.6746   -3.4227   -7.3975 C.ar      1 <0>        -0.1132
     19 C13         0.7657   -4.7164   -7.8758 C.ar      1 <0>        -0.1244
     20 C14         0.3292   -5.7730   -7.0986 C.ar      1 <0>        -0.1144
     21 C15        -0.1948   -5.5361   -5.8416 C.ar      1 <0>        -0.1104
     22 N2          0.8270   -5.3577   -2.8901 N.am      1 <0>        -0.7019
     23 C16         1.7936   -5.7246   -3.7546 C.2       1 <0>         0.5103
     24 O4          2.1912   -4.9391   -4.5888 O.2       1 <0>        -0.5220
     25 C17         2.3805   -7.1108   -3.6848 C.3       1 <0>         0.1013
     26 N3          3.4040   -7.2606   -4.7222 N.am      1 <0>        -0.7065
     27 C18         4.0686   -8.4262   -4.8498 C.2       1 <0>         0.5125
     28 O5          3.8194   -9.3510   -4.1058 O.2       1 <0>        -0.5389
     29 C19         5.1215   -8.5803   -5.9170 C.3       1 <0>         0.1024
     30 N4          5.6920   -9.9279   -5.8491 N.am      1 <0>        -0.7178
     31 C20         6.6587  -10.2948   -6.7136 C.2       1 <0>         0.5243
     32 O6          7.0562   -9.5093   -7.5478 O.2       1 <0>        -0.5267
     33 C21         7.2456  -11.6811   -6.6438 C.3       1 <0>         0.0854
     34 H3          6.4524  -12.4018   -6.4452 H         1 <0>         0.1063
     35 C22         8.2817  -11.7402   -5.5196 C.3       1 <0>        -0.1125
     36 C23         8.7791  -13.1547   -5.3688 C.ar      1 <0>        -0.0942
     37 C24         8.1319  -14.0263   -4.5124 C.ar      1 <0>        -0.0953
     38 C25         8.5862  -15.3233   -4.3721 C.ar      1 <0>        -0.1400
     39 C26         9.6924  -15.7513   -5.0916 C.ar      1 <0>         0.1037
     40 C27        10.3397  -14.8750   -5.9506 C.ar      1 <0>        -0.1404
     41 C28         9.8784  -13.5805   -6.0913 C.ar      1 <0>        -0.1033
     42 O7         10.1415  -17.0266   -4.9550 O.3       1 <0>        -0.5002
     43 N5          7.8918  -12.0042   -7.9228 N.3       1 <0>        -0.8255
     44 H4          1.0039    1.9031    0.0027 H         1 <0>         0.0490
     45 H5         -0.5459    1.8868   -0.8726 H         1 <0>         0.0520
     46 H6         -0.5289    1.8773    0.9072 H         1 <0>         0.0538
     47 H7          0.5123   -0.3556   -0.8948 H         1 <0>         0.0651
     48 H8          0.7568   -1.6008    1.2356 H         1 <0>         0.0579
     49 H9          1.7647   -0.1336    1.2338 H         1 <0>         0.0467
     50 H10         0.2319   -0.1594    2.1383 H         1 <0>         0.0546
     51 H11        -1.9156   -0.2570    0.9504 H         1 <0>         0.0807
     52 H12        -1.9862   -0.1019   -0.8214 H         1 <0>         0.0611
     53 H13        -0.9356   -1.8035   -2.1738 H         1 <0>         0.3916
     54 H14        -1.5995   -4.7542   -3.7595 H         1 <0>         0.0864
     55 H15        -1.3495   -3.0063   -3.9847 H         1 <0>         0.0914
     56 H16         0.0754   -2.1747   -5.7685 H         1 <0>         0.1162
     57 H17         1.0157   -2.5972   -8.0047 H         1 <0>         0.1146
     58 H18         1.1776   -4.9017   -8.8569 H         1 <0>         0.1130
     59 H19         0.4001   -6.7838   -7.4725 H         1 <0>         0.1117
     60 H20        -0.5324   -6.3619   -5.2329 H         1 <0>         0.1103
     61 H21         0.5090   -5.9859   -2.2229 H         1 <0>         0.4131
     62 H22         2.8314   -7.2656   -2.7045 H         1 <0>         0.1015
     63 H23         1.5926   -7.8473   -3.8427 H         1 <0>         0.1009
     64 H24         3.6034   -6.5210   -5.3172 H         1 <0>         0.4161
     65 H25         4.6706   -8.4255   -6.8972 H         1 <0>         0.1029
     66 H26         5.9094   -7.8438   -5.7591 H         1 <0>         0.1017
     67 H27         5.3741  -10.5561   -5.1819 H         1 <0>         0.4123
     68 H28         9.1183  -11.0848   -5.7617 H         1 <0>         0.0822
     69 H29         7.8235  -11.4147   -4.5857 H         1 <0>         0.0865
     70 H30         7.2708  -13.6926   -3.9525 H         1 <0>         0.1304
     71 H31         8.0808  -16.0035   -3.7025 H         1 <0>         0.1306
     72 H32        11.2012  -15.2058   -6.5118 H         1 <0>         0.1298
     73 H33        10.3793  -12.8992   -6.7631 H         1 <0>         0.1258
     74 H34         9.7431  -17.6525   -5.5751 H         1 <0>         0.3917
     75 H35         8.6314  -11.3498   -8.1298 H         1 <0>         0.3515
     76 H36         8.2370  -12.9523   -7.9242 H         1 <0>         0.3495
@<TRIPOS>BOND
     1    1    2 1
     2    1   44 1
     3    1   45 1
     4    1   46 1
     5    2    3 1
     6    2    4 1
     7    2   47 1
     8    3   48 1
     9    3   49 1
    10    3   50 1
    11    4    5 1
    12    4   51 1
    13    4   52 1
    14    5    6 1
    15    5    7 1
    16    5   10 1
    17    7    8 2
    18    7    9 1
    19   10   11 am
    20   10   53 1
    21   11   12 2
    22   11   13 1
    23   13   14 1
    24   13   15 1
    25   13   22 1
    26   15   16 1
    27   15   54 1
    28   15   55 1
    29   16   21 ar
    30   16   17 ar
    31   17   18 ar
    32   17   56 1
    33   18   19 ar
    34   18   57 1
    35   19   20 ar
    36   19   58 1
    37   20   21 ar
    38   20   59 1
    39   21   60 1
    40   22   23 am
    41   22   61 1
    42   23   24 2
    43   23   25 1
    44   25   26 1
    45   25   62 1
    46   25   63 1
    47   26   27 am
    48   26   64 1
    49   27   28 2
    50   27   29 1
    51   29   30 1
    52   29   65 1
    53   29   66 1
    54   30   31 am
    55   30   67 1
    56   31   32 2
    57   31   33 1
    58   33   34 1
    59   33   35 1
    60   33   43 1
    61   35   36 1
    62   35   68 1
    63   35   69 1
    64   36   41 ar
    65   36   37 ar
    66   37   38 ar
    67   37   70 1
    68   38   39 ar
    69   38   71 1
    70   39   40 ar
    71   39   42 1
    72   40   41 ar
    73   40   72 1
    74   41   73 1
    75   42   74 1
    76   43   75 1
    77   43   76 1
