@<TRIPOS>MOLECULE
ZINC00000596
   49    51     0     0     0
SMALL
USER_CHARGES
dimethyl-(3-methylbut-2-enyl)BLAHol
@<TRIPOS>ATOM
      1 C1          1.1810    0.6734   -0.4602 C.3       1 <0>        -0.1552
      2 C2         -0.3103    0.3734   -0.2964 C.3       1 <0>        -0.0889
      3 H1         -0.4566   -0.6974   -0.1546 H         1 <0>         0.1007
      4 C3         -0.8596    1.1333    0.9106 C.3       1 <0>         0.0339
      5 H2         -0.3716    0.7400    1.8024 H         1 <0>         0.1315
      6 C4         -0.4886    2.6026    0.8088 C.3       1 <0>        -0.0890
      7 C5         -0.7124    3.1461   -0.5773 C.ar      1 <0>        -0.1105
      8 C6         -0.6417    4.5245   -0.7476 C.ar      1 <0>        -0.0947
      9 C7         -0.8037    5.0868   -1.9953 C.ar      1 <0>        -0.1368
     10 C8         -1.0399    4.2730   -3.0941 C.ar      1 <0>         0.1240
     11 C9         -1.1181    2.9007   -2.9238 C.ar      1 <0>        -0.1397
     12 C10        -0.9596    2.3404   -1.6653 C.ar      1 <0>        -0.0583
     13 C11        -1.0712    0.8387   -1.5424 C.3       1 <0>        -0.0213
     14 C12        -2.5604    0.5047   -1.3358 C.3       1 <0>        -0.1334
     15 C13        -3.0578    1.3124   -0.1317 C.3       1 <0>        -0.0053
     16 C14        -2.8018    1.6243    2.2533 C.3       1 <0>         0.0259
     17 C15        -4.2991    1.4695    2.3258 C.2       1 <0>        -0.2563
     18 C16        -5.0630    2.5289    2.4263 C.2       1 <0>        -0.0381
     19 C17        -4.4429    3.8911    2.6019 C.3       1 <0>        -0.1488
     20 C18        -6.5620    2.3854    2.3663 C.3       1 <0>        -0.1379
     21 C19        -0.5306    0.1432   -2.7933 C.3       1 <0>        -0.1469
     22 O1         -1.1938    4.8189   -4.3291 O.3       1 <0>        -0.4948
     23 H3          1.7168    0.3508    0.4325 H         1 <0>         0.0686
     24 H4          1.5661    0.1382   -1.3282 H         1 <0>         0.0801
     25 H5          1.3227    1.7449   -0.6017 H         1 <0>         0.0720
     26 H6         -1.0945    3.1709    1.5146 H         1 <0>         0.0928
     27 H7          0.5628    2.7216    1.0708 H         1 <0>         0.1221
     28 H8         -0.4582    5.1602    0.1059 H         1 <0>         0.1313
     29 H9         -0.7465    6.1583   -2.1177 H         1 <0>         0.1363
     30 H10        -1.3033    2.2635   -3.7759 H         1 <0>         0.1374
     31 H11        -2.6758   -0.5611   -1.1388 H         1 <0>         0.0935
     32 H12        -3.1280    0.7795   -2.2249 H         1 <0>         0.1121
     33 H13        -4.1155    1.1061    0.0322 H         1 <0>         0.1284
     34 H14        -2.9211    2.3761   -0.3263 H         1 <0>         0.1309
     35 H15        -2.3482    1.1918    3.1451 H         1 <0>         0.1302
     36 H16        -2.5484    2.6828    2.1938 H         1 <0>         0.1348
     37 H17        -4.7423    0.4851    2.2948 H         1 <0>         0.1345
     38 H18        -4.1823    4.3003    1.6258 H         1 <0>         0.0808
     39 H19        -5.1543    4.5533    3.0953 H         1 <0>         0.0842
     40 H20        -3.5435    3.8050    3.2116 H         1 <0>         0.0726
     41 H21        -6.8215    1.3347    2.2372 H         1 <0>         0.0712
     42 H22        -6.9998    2.7566    3.2929 H         1 <0>         0.0829
     43 H23        -6.9487    2.9612    1.5255 H         1 <0>         0.0838
     44 H24        -0.6488   -0.9354   -2.6891 H         1 <0>         0.0700
     45 H25        -1.0835    0.4866   -3.6676 H         1 <0>         0.0708
     46 H26         0.5259    0.3828   -2.9143 H         1 <0>         0.0738
     47 H27        -2.1084    5.0436   -4.5486 H         1 <0>         0.3984
     48 N1         -2.3079    0.8926    1.0783 N.4       1 <0>        -0.3801
     49 H28        -2.4589   -0.1122    1.2258 H         1 <0>         0.4267
@<TRIPOS>BOND
     1    1    2 1
     2    1   23 1
     3    1   24 1
     4    1   25 1
     5    2    3 1
     6    2   13 1
     7    2    4 1
     8    4    5 1
     9    4    6 1
    10    4   48 1
    11    6    7 1
    12    6   26 1
    13    6   27 1
    14    7   12 ar
    15    7    8 ar
    16    8    9 ar
    17    8   28 1
    18    9   10 ar
    19    9   29 1
    20   10   11 ar
    21   10   22 1
    22   11   12 ar
    23   11   30 1
    24   12   13 1
    25   13   14 1
    26   13   21 1
    27   14   15 1
    28   14   31 1
    29   14   32 1
    30   15   33 1
    31   15   34 1
    32   15   48 1
    33   16   17 1
    34   16   35 1
    35   16   36 1
    36   16   48 1
    37   17   18 2
    38   17   37 1
    39   18   19 1
    40   18   20 1
    41   19   38 1
    42   19   39 1
    43   19   40 1
    44   20   41 1
    45   20   42 1
    46   20   43 1
    47   21   44 1
    48   21   45 1
    49   21   46 1
    50   22   47 1
    51   48   49 1
@<TRIPOS>MOLECULE
ZINC00020242
   49    51     0     0     0
SMALL
USER_CHARGES
dimethyl-(3-methylbut-2-enyl)BLAHol
@<TRIPOS>ATOM
      1 C1          2.8748   -2.7998    3.4003 C.3       1 <0>        -0.1737
      2 C2          2.5408   -3.5945    2.1363 C.3       1 <0>        -0.0925
      3 H1          3.3163   -4.3382    1.9531 H         1 <0>         0.1211
      4 C3          2.4432   -2.6461    0.9416 C.3       1 <0>         0.0366
      5 H2          3.3814   -2.0951    0.8759 H         1 <0>         0.1324
      6 C4          2.2913   -3.4593   -0.3321 C.3       1 <0>        -0.0887
      7 C5          1.3040   -4.5835   -0.1696 C.ar      1 <0>        -0.1114
      8 C6          0.8805   -5.2403   -1.3201 C.ar      1 <0>        -0.0941
      9 C7         -0.0116   -6.2878   -1.2424 C.ar      1 <0>        -0.1365
     10 C8         -0.4923   -6.6949   -0.0060 C.ar      1 <0>         0.1235
     11 C9         -0.0749   -6.0379    1.1396 C.ar      1 <0>        -0.1393
     12 C10         0.8163   -4.9790    1.0549 C.ar      1 <0>        -0.0634
     13 C11         1.2029   -4.2779    2.3364 C.3       1 <0>        -0.0189
     14 C12         0.1456   -3.1917    2.6027 C.3       1 <0>        -0.1361
     15 C13         0.0605   -2.3041    1.3361 C.3       1 <0>        -0.0094
     16 C14         1.3172   -0.7397   -0.0145 C.3       1 <0>         0.0286
     17 C15         0.1425    0.1888    0.1560 C.2       1 <0>        -0.2623
     18 C16         0.3257    1.4858    0.1437 C.2       1 <0>        -0.0336
     19 C17         1.7110    2.0495   -0.0411 C.3       1 <0>        -0.1494
     20 C18        -0.8499    2.4144    0.3080 C.3       1 <0>        -0.1391
     21 C19         1.2570   -5.2724    3.4979 C.3       1 <0>        -0.1466
     22 O1         -1.3672   -7.7313    0.0802 O.3       1 <0>        -0.4949
     23 H3          2.0911   -2.0653    3.5854 H         1 <0>         0.0560
     24 H4          2.9434   -3.4798    4.2494 H         1 <0>         0.0886
     25 H5          3.8280   -2.2883    3.2666 H         1 <0>         0.0738
     26 H6          1.9520   -2.8027   -1.1333 H         1 <0>         0.0954
     27 H7          3.2608   -3.8771   -0.6035 H         1 <0>         0.1212
     28 H8          1.2539   -4.9261   -2.2835 H         1 <0>         0.1318
     29 H9         -0.3361   -6.7904   -2.1416 H         1 <0>         0.1365
     30 H10        -0.4454   -6.3523    2.1042 H         1 <0>         0.1376
     31 H11        -0.8225   -3.6565    2.7893 H         1 <0>         0.1108
     32 H12         0.4406   -2.5925    3.4641 H         1 <0>         0.0984
     33 H13        -0.6913   -1.5303    1.4912 H         1 <0>         0.1285
     34 H14        -0.2082   -2.9023    0.4654 H         1 <0>         0.1342
     35 H15         1.2081   -1.2965   -0.9452 H         1 <0>         0.1358
     36 H16         2.2386   -0.1582   -0.0449 H         1 <0>         0.1290
     37 H17        -0.8503   -0.2152    0.2884 H         1 <0>         0.1344
     38 H18         2.1137    1.7176   -0.9981 H         1 <0>         0.0817
     39 H19         1.6655    3.1384   -0.0241 H         1 <0>         0.0817
     40 H20         2.3559    1.7002    0.7652 H         1 <0>         0.0757
     41 H21        -0.9983    2.6289    1.3663 H         1 <0>         0.0852
     42 H22        -0.6563    3.3439   -0.2275 H         1 <0>         0.0794
     43 H23        -1.7453    1.9420   -0.0961 H         1 <0>         0.0751
     44 H24         1.9950   -6.0446    3.2810 H         1 <0>         0.0711
     45 H25         1.5370   -4.7486    4.4119 H         1 <0>         0.0722
     46 H26         0.2774   -5.7323    3.6283 H         1 <0>         0.0715
     47 H27        -2.2959   -7.4673    0.0279 H         1 <0>         0.3984
     48 N1          1.3757   -1.6443    1.1423 N.4       1 <0>        -0.3817
     49 H28         1.5942   -1.0952    1.9820 H         1 <0>         0.4253
@<TRIPOS>BOND
     1    1    2 1
     2    1   23 1
     3    1   24 1
     4    1   25 1
     5    2    3 1
     6    2   13 1
     7    2    4 1
     8    4    5 1
     9    4    6 1
    10    4   48 1
    11    6    7 1
    12    6   26 1
    13    6   27 1
    14    7   12 ar
    15    7    8 ar
    16    8    9 ar
    17    8   28 1
    18    9   10 ar
    19    9   29 1
    20   10   11 ar
    21   10   22 1
    22   11   12 ar
    23   11   30 1
    24   12   13 1
    25   13   14 1
    26   13   21 1
    27   14   15 1
    28   14   31 1
    29   14   32 1
    30   15   33 1
    31   15   34 1
    32   15   48 1
    33   16   17 1
    34   16   35 1
    35   16   36 1
    36   16   48 1
    37   17   18 2
    38   17   37 1
    39   18   19 1
    40   18   20 1
    41   19   38 1
    42   19   39 1
    43   19   40 1
    44   20   41 1
    45   20   42 1
    46   20   43 1
    47   21   44 1
    48   21   45 1
    49   21   46 1
    50   22   47 1
    51   48   49 1
@<TRIPOS>MOLECULE
ZINC00155174
   26    27     0     0     0
SMALL
USER_CHARGES
4-(4-chlorophenyl)-1,2,3,6-tetrahydropyridine
@<TRIPOS>ATOM
      1 C1          0.3208    0.3273   -3.0835 C.ar      1 <0>        -0.0879
      2 C2          0.9657    0.3017   -4.3027 C.ar      1 <0>        -0.1071
      3 C3          1.2661    1.4854   -4.9551 C.ar      1 <0>        -0.0215
      4 C4          0.9157    2.7009   -4.3919 C.ar      1 <0>        -0.1068
      5 C5          0.2646    2.7387   -3.1764 C.ar      1 <0>        -0.0868
      6 C6         -0.0404    1.5490   -2.5140 C.ar      1 <0>        -0.0821
      7 C7         -0.7379    1.5829   -1.2114 C.2       1 <0>        -0.0480
      8 C8         -1.9673    2.0470   -1.1662 C.2       1 <0>        -0.1883
      9 C9         -2.7643    2.1330    0.1036 C.3       1 <0>         0.0400
     10 C10        -0.7273    1.5785    1.2689 C.3       1 <0>        -0.0003
     11 C11        -0.0127    1.0858    0.0080 C.3       1 <0>        -0.1159
     12 Cl1         2.0849    1.4456   -6.4854 Cl        1 <0>        -0.0499
     13 H1          0.0916   -0.5964   -2.5731 H         1 <0>         0.1335
     14 H2          1.2411   -0.6434   -4.7470 H         1 <0>         0.1416
     15 H3          1.1523    3.6210   -4.9055 H         1 <0>         0.1420
     16 H4         -0.0089    3.6873   -2.7384 H         1 <0>         0.1351
     17 H5         -2.4252    2.3822   -2.0852 H         1 <0>         0.1512
     18 H6         -2.7820    3.1666    0.4494 H         1 <0>         0.1407
     19 H7         -3.7848    1.8013   -0.0875 H         1 <0>         0.1435
     20 H8         -0.3261    1.0638    2.1419 H         1 <0>         0.1404
     21 H9         -0.5823    2.6536    1.3755 H         1 <0>         0.1341
     22 H10         0.0021   -0.0041    0.0020 H         1 <0>         0.1080
     23 H11         1.0101    1.4624    0.0003 H         1 <0>         0.1256
     24 N1         -2.1656    1.2803    1.1425 N.4       1 <0>        -0.5172
     25 H12        -2.2874    0.2938    0.8852 H         1 <0>         0.4357
     26 H13        -2.6307    1.4598    2.0401 H         1 <0>         0.4405
@<TRIPOS>BOND
     1    1    6 ar
     2    1    2 ar
     3    1   13 1
     4    2    3 ar
     5    2   14 1
     6    3    4 ar
     7    3   12 1
     8    4    5 ar
     9    4   15 1
    10    5    6 ar
    11    5   16 1
    12    6    7 1
    13    7   11 1
    14    7    8 2
    15    8    9 1
    16    8   17 1
    17    9   18 1
    18    9   19 1
    19    9   24 1
    20   10   11 1
    21   10   20 1
    22   10   21 1
    23   10   24 1
    24   11   22 1
    25   11   23 1
    26   24   25 1
    27   24   26 1
@<TRIPOS>MOLECULE
ZINC04428529
   53    56     0     0     0
SMALL
USER_CHARGES

@<TRIPOS>ATOM
      1 C1          0.4282    0.7651    1.2384 C.3       1 <0>        -0.2080
      2 C2          0.0050   -0.0027    0.0127 C.2       1 <0>         0.3647
      3 O1          0.7040   -0.0010   -0.9721 O.2       1 <0>        -0.4542
      4 C3         -1.2905   -0.7727    0.0158 C.3       1 <0>        -0.1325
      5 H1         -2.0415   -0.2446    0.6034 H         1 <0>         0.0972
      6 C4         -1.7935   -0.9827   -1.4341 C.3       1 <0>        -0.1186
      7 C5         -1.9305   -2.5169   -1.6323 C.3       1 <0>        -0.1151
      8 C6         -2.1068   -3.0336   -0.2000 C.3       1 <0>        -0.0796
      9 H2         -3.1156   -2.8264    0.1569 H         1 <0>         0.0777
     10 C7         -1.0708   -2.1742    0.5759 C.3       1 <0>        -0.0487
     11 C8         -1.3489   -2.3630    2.0549 C.3       1 <0>        -0.1047
     12 C9         -1.0643   -3.8367    2.3850 C.3       1 <0>        -0.1222
     13 C10        -1.9046   -4.7802    1.5293 C.3       1 <0>        -0.0680
     14 H3         -2.9551   -4.6575    1.7928 H         1 <0>         0.0704
     15 C11        -1.7585   -4.4942    0.0214 C.3       1 <0>        -0.0776
     16 H4         -0.7305   -4.6831   -0.2877 H         1 <0>         0.0863
     17 C12        -2.7266   -5.3822   -0.7660 C.3       1 <0>        -0.1118
     18 C13        -2.3186   -6.8466   -0.5915 C.3       1 <0>        -0.0977
     19 C14        -2.2642   -7.1658    0.8913 C.2       1 <0>        -0.0206
     20 C15        -2.8820   -8.2703    1.3099 C.2       1 <0>        -0.2434
     21 H5         -3.4070   -8.8958    0.6032 H         1 <0>         0.1337
     22 C16        -2.8495   -8.6362    2.7300 C.2       1 <0>         0.3882
     23 O2         -3.6756   -9.3796    3.2168 O.2       1 <0>        -0.4580
     24 C17        -1.7290   -8.0371    3.5574 C.3       1 <0>        -0.1668
     25 H6         -1.9153   -8.2141    4.6167 H         1 <0>         0.0925
     26 H7         -0.7768   -8.4825    3.2693 H         1 <0>         0.0997
     27 C18        -1.7074   -6.5351    3.2776 C.3       1 <0>        -0.1069
     28 C19        -1.4839   -6.2270    1.8163 C.3       1 <0>        -0.0241
     29 C20         0.0121   -6.3503    1.5204 C.3       1 <0>        -0.1492
     30 C21         0.3461   -2.6481    0.2465 C.3       1 <0>        -0.1572
     31 H8          1.3837    1.2542    1.0489 H         1 <0>         0.0809
     32 H9         -0.3247    1.5173    1.4738 H         1 <0>         0.0918
     33 H10         0.5316    0.0791    2.0791 H         1 <0>         0.0918
     34 H11        -2.7617   -0.5002   -1.5678 H         1 <0>         0.0675
     35 H12        -1.0717   -0.5769   -2.1430 H         1 <0>         0.0790
     36 H13        -2.8065   -2.7509   -2.2372 H         1 <0>         0.0676
     37 H14        -1.0279   -2.9297   -2.0829 H         1 <0>         0.0698
     38 H15        -0.6944   -1.7180    2.6411 H         1 <0>         0.0661
     39 H16        -2.3917   -2.1291    2.2695 H         1 <0>         0.0682
     40 H17        -0.0085   -4.0427    2.2091 H         1 <0>         0.0749
     41 H18        -1.2894   -4.0152    3.4365 H         1 <0>         0.0667
     42 H19        -3.7398   -5.2390   -0.3905 H         1 <0>         0.0659
     43 H20        -2.6874   -5.1165   -1.8224 H         1 <0>         0.0725
     44 H21        -3.0518   -7.4905   -1.0771 H         1 <0>         0.0771
     45 H22        -1.3365   -7.0077   -1.0361 H         1 <0>         0.0840
     46 H23        -2.6504   -6.0986    3.6068 H         1 <0>         0.0701
     47 H24        -0.8915   -6.0806    3.8396 H         1 <0>         0.0811
     48 H25         0.5667   -5.6628    2.1591 H         1 <0>         0.0702
     49 H26         0.3383   -7.3717    1.7166 H         1 <0>         0.0587
     50 H27         0.1972   -6.1043    0.4748 H         1 <0>         0.0638
     51 H28         1.0689   -2.0310    0.7800 H         1 <0>         0.0510
     52 H29         0.4614   -3.6883    0.5512 H         1 <0>         0.0714
     53 H30         0.5175   -2.5628   -0.8266 H         1 <0>         0.0644
@<TRIPOS>BOND
     1    1    2 1
     2    1   31 1
     3    1   32 1
     4    1   33 1
     5    2    3 2
     6    2    4 1
     7    4    5 1
     8    4   10 1
     9    4    6 1
    10    6    7 1
    11    6   34 1
    12    6   35 1
    13    7    8 1
    14    7   36 1
    15    7   37 1
    16    8    9 1
    17    8   15 1
    18    8   10 1
    19   10   11 1
    20   10   30 1
    21   11   12 1
    22   11   38 1
    23   11   39 1
    24   12   13 1
    25   12   40 1
    26   12   41 1
    27   13   14 1
    28   13   28 1
    29   13   15 1
    30   15   16 1
    31   15   17 1
    32   17   18 1
    33   17   42 1
    34   17   43 1
    35   18   19 1
    36   18   44 1
    37   18   45 1
    38   19   28 1
    39   19   20 2
    40   20   21 1
    41   20   22 1
    42   22   23 2
    43   22   24 1
    44   24   25 1
    45   24   26 1
    46   24   27 1
    47   27   28 1
    48   27   46 1
    49   27   47 1
    50   28   29 1
    51   29   48 1
    52   29   49 1
    53   29   50 1
    54   30   51 1
    55   30   52 1
    56   30   53 1
@<TRIPOS>MOLECULE
ZINC02516030
   52    54     0     0     0
SMALL
USER_CHARGES

@<TRIPOS>ATOM
      1 C1         -0.0167    1.3782    0.0096 C.ar      1 <0>        -0.0790
      2 C2          1.1703    2.0860    0.0021 C.ar      1 <0>        -0.1495
      3 C3          2.3786    1.4101   -0.0131 C.ar      1 <0>         0.1092
      4 C4          2.3962    0.0256   -0.0207 C.ar      1 <0>        -0.1488
      5 C5          1.2079   -0.6800   -0.0132 C.ar      1 <0>        -0.0820
      6 C6          0.0021   -0.0041    0.0020 C.ar      1 <0>        -0.1420
      7 C7         -1.2930   -0.7747    0.0103 C.3       1 <0>         0.1541
      8 H1         -2.0856   -0.1577   -0.4132 H         1 <0>         0.1128
      9 C8         -1.6532   -1.1512    1.4488 C.3       1 <0>        -0.1462
     10 C9         -3.0274   -1.8235    1.4711 C.3       1 <0>        -0.1467
     11 C10        -3.3877   -2.2001    2.9096 C.3       1 <0>        -0.0097
     12 N1         -4.7071   -2.8456    2.9311 N.4       1 <0>        -0.3828
     13 C11        -5.7288   -1.8814    2.5057 C.3       1 <0>        -0.0083
     14 C12        -7.0937   -2.5708    2.4483 C.3       1 <0>        -0.1330
     15 C13        -7.4457   -3.1104    3.8375 C.3       1 <0>         0.1747
     16 C14        -6.3361   -4.0578    4.3026 C.3       1 <0>        -0.1705
     17 C15        -4.9993   -3.3133    4.2913 C.3       1 <0>        -0.0020
     18 C16        -8.7522   -3.8585    3.7714 C.ar      1 <0>        -0.1263
     19 C17        -9.1187   -4.5073    2.6069 C.ar      1 <0>        -0.1006
     20 C18       -10.3168   -5.1936    2.5456 C.ar      1 <0>        -0.1039
     21 C19       -11.1494   -5.2313    3.6499 C.ar      1 <0>        -0.0247
     22 C20       -10.7821   -4.5818    4.8150 C.ar      1 <0>        -0.1015
     23 C21        -9.5811   -3.9006    4.8769 C.ar      1 <0>        -0.0934
     24 Cl1       -12.6547   -6.0927    3.5735 Cl        1 <0>        -0.0499
     25 O1         -7.5621   -2.0229    4.7572 O.3       1 <0>        -0.5476
     26 O2         -1.1454   -1.9625   -0.7703 O.3       1 <0>        -0.5520
     27 F1          3.5396    2.1009   -0.0209 F         1 <0>        -0.1327
     28 H2         -0.9592    1.9052    0.0260 H         1 <0>         0.1345
     29 H3          1.1554    3.1659    0.0077 H         1 <0>         0.1411
     30 H4          3.3381   -0.5027   -0.0329 H         1 <0>         0.1406
     31 H5          1.2213   -1.7599   -0.0195 H         1 <0>         0.1302
     32 H6         -0.9054   -1.8398    1.8423 H         1 <0>         0.0805
     33 H7         -1.6786   -0.2520    2.0642 H         1 <0>         0.0873
     34 H8         -3.7752   -1.1350    1.0776 H         1 <0>         0.0891
     35 H9         -3.0020   -2.7228    0.8556 H         1 <0>         0.0949
     36 H10        -2.6399   -2.8886    3.3031 H         1 <0>         0.1307
     37 H11        -3.4131   -1.3008    3.5251 H         1 <0>         0.1302
     38 H12        -5.7684   -1.0568    3.2175 H         1 <0>         0.1380
     39 H13        -5.4752   -1.4958    1.5182 H         1 <0>         0.1349
     40 H14        -7.8512   -1.8528    2.1340 H         1 <0>         0.1236
     41 H15        -7.0553   -3.3954    1.7365 H         1 <0>         0.1044
     42 H16        -6.5521   -4.4027    5.3138 H         1 <0>         0.1172
     43 H17        -6.2819   -4.9133    3.6294 H         1 <0>         0.1008
     44 H18        -4.2070   -3.9849    4.6221 H         1 <0>         0.1323
     45 H19        -5.0544   -2.4582    4.9651 H         1 <0>         0.1348
     46 H20        -8.4688   -4.4775    1.7449 H         1 <0>         0.1334
     47 H21       -10.6032   -5.7001    1.6358 H         1 <0>         0.1408
     48 H22       -11.4318   -4.6106    5.6773 H         1 <0>         0.1414
     49 H23        -9.2920   -3.3975    5.7879 H         1 <0>         0.1323
     50 H24        -7.7841   -2.2924    5.6589 H         1 <0>         0.3908
     51 H25        -0.4557   -2.5601   -0.4506 H         1 <0>         0.3775
     52 H26        -4.7059   -3.6321    2.2990 H         1 <0>         0.4210
@<TRIPOS>BOND
     1    1    6 ar
     2    1    2 ar
     3    1   28 1
     4    2    3 ar
     5    2   29 1
     6    3    4 ar
     7    3   27 1
     8    4    5 ar
     9    4   30 1
    10    5    6 ar
    11    5   31 1
    12    6    7 1
    13    7    8 1
    14    7    9 1
    15    7   26 1
    16    9   10 1
    17    9   32 1
    18    9   33 1
    19   10   11 1
    20   10   34 1
    21   10   35 1
    22   11   12 1
    23   11   36 1
    24   11   37 1
    25   12   17 1
    26   12   13 1
    27   12   52 1
    28   13   14 1
    29   13   38 1
    30   13   39 1
    31   14   15 1
    32   14   40 1
    33   14   41 1
    34   15   16 1
    35   15   18 1
    36   15   25 1
    37   16   17 1
    38   16   42 1
    39   16   43 1
    40   17   44 1
    41   17   45 1
    42   18   23 ar
    43   18   19 ar
    44   19   20 ar
    45   19   46 1
    46   20   21 ar
    47   20   47 1
    48   21   22 ar
    49   21   24 1
    50   22   23 ar
    51   22   48 1
    52   23   49 1
    53   25   50 1
    54   26   51 1
@<TRIPOS>MOLECULE
ZINC04257980
   52    54     0     0     0
SMALL
USER_CHARGES

@<TRIPOS>ATOM
      1 C1         -0.0167    1.3782    0.0096 C.ar      1 <0>        -0.0781
      2 C2          1.1703    2.0860    0.0021 C.ar      1 <0>        -0.1497
      3 C3          2.3786    1.4101   -0.0131 C.ar      1 <0>         0.1095
      4 C4          2.3962    0.0256   -0.0207 C.ar      1 <0>        -0.1491
      5 C5          1.2079   -0.6800   -0.0132 C.ar      1 <0>        -0.0822
      6 C6          0.0021   -0.0041    0.0020 C.ar      1 <0>        -0.1420
      7 C7         -1.2930   -0.7747    0.0103 C.3       1 <0>         0.1541
      8 H1         -2.0956   -0.1325    0.3729 H         1 <0>         0.1125
      9 C8         -1.6168   -1.2431   -1.4098 C.3       1 <0>        -0.1464
     10 C9         -2.9905   -1.9166   -1.4239 C.3       1 <0>        -0.1470
     11 C10        -3.3143   -2.3850   -2.8440 C.3       1 <0>        -0.0097
     12 N1         -4.6332   -3.0316   -2.8576 N.4       1 <0>        -0.3828
     13 C11        -4.5881   -4.2491   -2.0389 C.3       1 <0>        -0.0084
     14 C12        -5.9797   -4.8829   -1.9834 C.3       1 <0>        -0.1328
     15 C13        -6.4303   -5.2372   -3.4035 C.3       1 <0>         0.1746
     16 C14        -6.4022   -3.9732   -4.2677 C.3       1 <0>        -0.1705
     17 C15        -4.9949   -3.3731   -4.2385 C.3       1 <0>        -0.0021
     18 C16        -7.8317   -5.7900   -3.3644 C.ar      1 <0>        -0.1262
     19 C17        -8.7143   -5.3669   -2.3882 C.ar      1 <0>        -0.1006
     20 C18        -9.9997   -5.8735   -2.3518 C.ar      1 <0>        -0.1039
     21 C19       -10.4031   -6.8042   -3.2927 C.ar      1 <0>        -0.0247
     22 C20        -9.5193   -7.2272   -4.2695 C.ar      1 <0>        -0.1015
     23 C21        -8.2359   -6.7157   -4.3082 C.ar      1 <0>        -0.0934
     24 Cl1       -12.0173   -7.4413   -3.2473 Cl        1 <0>        -0.0499
     25 O1         -5.5451   -6.2135   -3.9560 O.3       1 <0>        -0.5475
     26 O2         -1.1663   -1.9098    0.8690 O.3       1 <0>        -0.5520
     27 F1          3.5396    2.1009   -0.0209 F         1 <0>        -0.1327
     28 H2         -0.9592    1.9052    0.0260 H         1 <0>         0.1347
     29 H3          1.1554    3.1659    0.0077 H         1 <0>         0.1411
     30 H4          3.3381   -0.5027   -0.0329 H         1 <0>         0.1406
     31 H5          1.2213   -1.7599   -0.0195 H         1 <0>         0.1298
     32 H6         -1.6258   -0.3852   -2.0822 H         1 <0>         0.0873
     33 H7         -0.8598   -1.9549   -1.7391 H         1 <0>         0.0804
     34 H8         -2.9815   -2.7744   -0.7516 H         1 <0>         0.0957
     35 H9         -3.7475   -1.2048   -1.0947 H         1 <0>         0.0886
     36 H10        -3.3233   -1.5271   -3.5164 H         1 <0>         0.1308
     37 H11        -2.5573   -3.0968   -3.1733 H         1 <0>         0.1301
     38 H12        -3.8846   -4.9561   -2.4785 H         1 <0>         0.1378
     39 H13        -4.2642   -3.9957   -1.0294 H         1 <0>         0.1360
     40 H14        -5.9437   -5.7876   -1.3766 H         1 <0>         0.1236
     41 H15        -6.6840   -4.1767   -1.5437 H         1 <0>         0.1041
     42 H16        -6.6682   -4.2278   -5.2936 H         1 <0>         0.1172
     43 H17        -7.1153   -3.2482   -3.8753 H         1 <0>         0.1007
     44 H18        -4.9714   -2.4731   -4.8530 H         1 <0>         0.1323
     45 H19        -4.2827   -4.0988   -4.6313 H         1 <0>         0.1348
     46 H20        -8.3992   -4.6406   -1.6536 H         1 <0>         0.1333
     47 H21       -10.6891   -5.5431   -1.5889 H         1 <0>         0.1408
     48 H22        -9.8335   -7.9539   -5.0040 H         1 <0>         0.1414
     49 H23        -7.5474   -7.0422   -5.0736 H         1 <0>         0.1323
     50 H24        -5.7714   -6.4850   -4.8561 H         1 <0>         0.3907
     51 H25        -0.4692   -2.5262    0.6060 H         1 <0>         0.3775
     52 H26        -5.3210   -2.3985   -2.4776 H         1 <0>         0.4206
@<TRIPOS>BOND
     1    1    6 ar
     2    1    2 ar
     3    1   28 1
     4    2    3 ar
     5    2   29 1
     6    3    4 ar
     7    3   27 1
     8    4    5 ar
     9    4   30 1
    10    5    6 ar
    11    5   31 1
    12    6    7 1
    13    7    8 1
    14    7    9 1
    15    7   26 1
    16    9   10 1
    17    9   32 1
    18    9   33 1
    19   10   11 1
    20   10   34 1
    21   10   35 1
    22   11   12 1
    23   11   36 1
    24   11   37 1
    25   12   17 1
    26   12   13 1
    27   12   52 1
    28   13   14 1
    29   13   38 1
    30   13   39 1
    31   14   15 1
    32   14   40 1
    33   14   41 1
    34   15   16 1
    35   15   18 1
    36   15   25 1
    37   16   17 1
    38   16   42 1
    39   16   43 1
    40   17   44 1
    41   17   45 1
    42   18   23 ar
    43   18   19 ar
    44   19   20 ar
    45   19   46 1
    46   20   21 ar
    47   20   47 1
    48   21   22 ar
    49   21   24 1
    50   22   23 ar
    51   22   48 1
    52   23   49 1
    53   25   50 1
    54   26   51 1
@<TRIPOS>MOLECULE
ZINC08553066
   46    48     0     0     0
SMALL
USER_CHARGES

@<TRIPOS>ATOM
      1 C1         -0.0488    1.3755    0.0583 C.ar      1 <0>        -0.1128
      2 C2          1.1342    2.0906    0.0549 C.ar      1 <0>        -0.1153
      3 C3          2.3448    1.4238    0.0306 C.ar      1 <0>        -0.1159
      4 C4          2.3725    0.0419    0.0102 C.ar      1 <0>        -0.1014
      5 C5          1.1895   -0.6733    0.0145 C.ar      1 <0>        -0.1154
      6 C6         -0.0211   -0.0065    0.0373 C.ar      1 <0>        -0.1152
      7 C7          3.6923   -0.6850   -0.0172 C.3       1 <0>        -0.0724
      8 C8          4.1574   -0.9520    1.4157 C.3       1 <0>        -0.1438
      9 C9          5.4974   -1.6900    1.3878 C.3       1 <0>        -0.0108
     10 N1          5.9439   -1.9463    2.7636 N.4       1 <0>        -0.3820
     11 C10         6.2067   -0.6682    3.4371 C.3       1 <0>        -0.0273
     12 C11         6.5616   -0.9290    4.9048 C.3       1 <0>         0.1001
     13 N2          7.6817   -1.8815    4.9515 N.pl3     1 <0>        -0.6453
     14 C12         7.5698   -3.1221    4.1689 C.3       1 <0>         0.1001
     15 C13         7.1673   -2.7579    2.7361 C.3       1 <0>        -0.0217
     16 C14         8.8190   -1.6158    5.7177 C.ar      1 <0>         0.1953
     17 C15         8.9552   -0.3916    6.3600 C.ar      1 <0>        -0.1873
     18 C16        10.0807   -0.1323    7.1171 C.ar      1 <0>        -0.0709
     19 C17        11.0717   -1.0895    7.2358 C.ar      1 <0>        -0.1562
     20 C18        10.9393   -2.3091    6.5976 C.ar      1 <0>        -0.0708
     21 C19         9.8137   -2.5772    5.8437 C.ar      1 <0>        -0.1865
     22 H1         -0.9946    1.8963    0.0817 H         1 <0>         0.1268
     23 H2          1.1126    3.1702    0.0709 H         1 <0>         0.1263
     24 H3          3.2691    1.9825    0.0273 H         1 <0>         0.1211
     25 H4          1.2111   -1.7529   -0.0018 H         1 <0>         0.1214
     26 H5         -0.9454   -0.5652    0.0403 H         1 <0>         0.1264
     27 H6          3.5745   -1.6323   -0.5434 H         1 <0>         0.0832
     28 H7          4.4334   -0.0733   -0.5318 H         1 <0>         0.0827
     29 H8          4.2752   -0.0047    1.9419 H         1 <0>         0.0883
     30 H9          3.4164   -1.5637    1.9302 H         1 <0>         0.0889
     31 H10         5.3796   -2.6373    0.8617 H         1 <0>         0.1332
     32 H11         6.2384   -1.0783    0.8733 H         1 <0>         0.1303
     33 H12         7.0385   -0.1630    2.9463 H         1 <0>         0.1330
     34 H13         5.3176   -0.0400    3.3843 H         1 <0>         0.1418
     35 H14         6.8556    0.0058    5.3821 H         1 <0>         0.1266
     36 H15         5.6995   -1.3517    5.4206 H         1 <0>         0.0873
     37 H16         8.5303   -3.6373    4.1598 H         1 <0>         0.1266
     38 H17         6.8095   -3.7664    4.6104 H         1 <0>         0.0872
     39 H18         6.9860   -3.6695    2.1666 H         1 <0>         0.1410
     40 H19         7.9701   -2.1895    2.2664 H         1 <0>         0.1326
     41 H20         8.1819    0.3566    6.2671 H         1 <0>         0.1223
     42 H21        10.1872    0.8192    7.6167 H         1 <0>         0.1283
     43 H22        11.9512   -0.8839    7.8279 H         1 <0>         0.1268
     44 H23        11.7151   -3.0545    6.6924 H         1 <0>         0.1284
     45 H24         9.7088   -3.5316    5.3492 H         1 <0>         0.1226
     46 H25         5.2224   -2.4446    3.2628 H         1 <0>         0.4225
@<TRIPOS>BOND
     1    1    6 ar
     2    1    2 ar
     3    1   22 1
     4    2    3 ar
     5    2   23 1
     6    3    4 ar
     7    3   24 1
     8    4    5 ar
     9    4    7 1
    10    5    6 ar
    11    5   25 1
    12    6   26 1
    13    7    8 1
    14    7   27 1
    15    7   28 1
    16    8    9 1
    17    8   29 1
    18    8   30 1
    19    9   10 1
    20    9   31 1
    21    9   32 1
    22   10   15 1
    23   10   11 1
    24   10   46 1
    25   11   12 1
    26   11   33 1
    27   11   34 1
    28   12   13 1
    29   12   35 1
    30   12   36 1
    31   13   14 1
    32   13   16 1
    33   14   15 1
    34   14   37 1
    35   14   38 1
    36   15   39 1
    37   15   40 1
    38   16   21 ar
    39   16   17 ar
    40   17   18 ar
    41   17   41 1
    42   18   19 ar
    43   18   42 1
    44   19   20 ar
    45   19   43 1
    46   20   21 ar
    47   20   44 1
    48   21   45 1
@<TRIPOS>MOLECULE
ZINC08553066
   45    47     0     0     0
SMALL
USER_CHARGES

@<TRIPOS>ATOM
      1 C1         -0.0489    1.3743    0.0562 C.ar      1 <0>        -0.1251
      2 C2          1.1338    2.0900    0.0537 C.ar      1 <0>        -0.1181
      3 C3          2.3448    1.4239    0.0299 C.ar      1 <0>        -0.1188
      4 C4          2.3731    0.0419    0.0091 C.ar      1 <0>        -0.0812
      5 C5          1.1905   -0.6738    0.0125 C.ar      1 <0>        -0.1171
      6 C6         -0.0205   -0.0076    0.0349 C.ar      1 <0>        -0.1178
      7 C7          3.6933   -0.6843   -0.0179 C.3       1 <0>        -0.0803
      8 C8          4.1578   -0.9514    1.4152 C.3       1 <0>        -0.1091
      9 C9          5.4982   -1.6887    1.3878 C.3       1 <0>         0.0552
     10 N1          5.9441   -1.9452    2.7638 N.3       1 <0>        -0.5366
     11 C10         6.2427   -0.6885    3.4633 C.3       1 <0>         0.0368
     12 C11         6.5274   -0.9846    4.9396 C.3       1 <0>         0.1253
     13 N2          7.5838   -2.0051    5.0161 N.pl3     1 <0>        -0.6316
     14 C12         7.4189   -3.2376    4.2307 C.3       1 <0>         0.1263
     15 C13         7.0991   -2.8527    2.7823 C.3       1 <0>         0.0401
     16 C14         8.7139   -1.8087    5.8132 C.ar      1 <0>         0.2201
     17 C15         8.9079   -0.5940    6.4586 C.ar      1 <0>        -0.2021
     18 C16        10.0262   -0.4033    7.2463 C.ar      1 <0>        -0.0708
     19 C17        10.9523   -1.4198    7.3925 C.ar      1 <0>        -0.1818
     20 C18        10.7622   -2.6302    6.7514 C.ar      1 <0>        -0.0708
     21 C19         9.6433   -2.8295    5.9668 C.ar      1 <0>        -0.2016
     22 H1         -0.9950    1.8947    0.0794 H         1 <0>         0.1210
     23 H2          1.1116    3.1697    0.0700 H         1 <0>         0.1213
     24 H3          3.2687    1.9830    0.0272 H         1 <0>         0.1196
     25 H4          1.2127   -1.7534   -0.0041 H         1 <0>         0.1211
     26 H5         -0.9445   -0.5668    0.0372 H         1 <0>         0.1217
     27 H6          3.5763   -1.6315   -0.5444 H         1 <0>         0.0735
     28 H7          4.4344   -0.0720   -0.5319 H         1 <0>         0.0708
     29 H8          4.2749   -0.0042    1.9417 H         1 <0>         0.0640
     30 H9          3.4168   -1.5637    1.9291 H         1 <0>         0.0738
     31 H10         5.3811   -2.6359    0.8613 H         1 <0>         0.0769
     32 H11         6.2392   -1.0765    0.8739 H         1 <0>         0.0343
     33 H12         7.1166   -0.2193    3.0114 H         1 <0>         0.0377
     34 H13         5.3877   -0.0169    3.3854 H         1 <0>         0.0885
     35 H14         6.8607   -0.0744    5.4380 H         1 <0>         0.0862
     36 H15         5.6225   -1.3577    5.4193 H         1 <0>         0.0698
     37 H16         8.3418   -3.8169    4.2604 H         1 <0>         0.0861
     38 H17         6.5998   -3.8273    4.6422 H         1 <0>         0.0698
     39 H18         6.8653   -3.7507    2.2105 H         1 <0>         0.0859
     40 H19         7.9611   -2.3534    2.3398 H         1 <0>         0.0380
     41 H20         8.1854    0.2005    6.3442 H         1 <0>         0.1207
     42 H21        10.1777    0.5408    7.7483 H         1 <0>         0.1199
     43 H22        11.8263   -1.2678    8.0085 H         1 <0>         0.1174
     44 H23        11.4875   -3.4219    6.8678 H         1 <0>         0.1200
     45 H24         9.4931   -3.7767    5.4700 H         1 <0>         0.1208
@<TRIPOS>BOND
     1    1    6 ar
     2    1    2 ar
     3    1   22 1
     4    2    3 ar
     5    2   23 1
     6    3    4 ar
     7    3   24 1
     8    4    5 ar
     9    4    7 1
    10    5    6 ar
    11    5   25 1
    12    6   26 1
    13    7    8 1
    14    7   27 1
    15    7   28 1
    16    8    9 1
    17    8   29 1
    18    8   30 1
    19    9   10 1
    20    9   31 1
    21    9   32 1
    22   10   15 1
    23   10   11 1
    24   11   12 1
    25   11   33 1
    26   11   34 1
    27   12   13 1
    28   12   35 1
    29   12   36 1
    30   13   14 1
    31   13   16 1
    32   14   15 1
    33   14   37 1
    34   14   38 1
    35   15   39 1
    36   15   40 1
    37   16   21 ar
    38   16   17 ar
    39   17   18 ar
    40   17   41 1
    41   18   19 ar
    42   18   42 1
    43   19   20 ar
    44   19   43 1
    45   20   21 ar
    46   20   44 1
    47   21   45 1
@<TRIPOS>MOLECULE
ZINC20477318
   50    52     0     0     0
SMALL
USER_CHARGES
1-benzyl-N-cinnamyl-piperidin-4-amine
@<TRIPOS>ATOM
      1 C1          5.3425    4.9379    0.5431 C.ar      1 <0>        -0.0850
      2 C2          4.9391    4.5967   -0.7343 C.ar      1 <0>        -0.1130
      3 C3          3.6562    4.1307   -0.9527 C.ar      1 <0>        -0.0944
      4 C4          2.7764    4.0063    0.1063 C.ar      1 <0>        -0.1582
      5 C5          3.1779    4.3528    1.3828 C.ar      1 <0>        -0.0976
      6 C6          4.4627    4.8135    1.6021 C.ar      1 <0>        -0.1144
      7 C7          1.3776    3.4986   -0.1318 C.3       1 <0>         0.0464
      8 N1          1.3585    2.0357    0.0000 N.4       1 <0>        -0.3960
      9 C8         -0.0187    1.5261    0.0104 C.3       1 <0>         0.0005
     10 C9          0.0021   -0.0041    0.0020 C.3       1 <0>        -0.1473
     11 C10         0.7612   -0.5061    1.2334 C.3       1 <0>         0.0646
     12 C11         2.1767    0.0777    1.2237 C.3       1 <0>        -0.1340
     13 C12         2.0929    1.6055    1.1967 C.3       1 <0>        -0.0080
     14 N2          0.8349   -1.9729    1.2003 N.3       1 <0>        -0.6651
     15 C13         0.9947   -2.5226    2.5532 C.3       1 <0>         0.0809
     16 C14         1.0664   -4.0261    2.4793 C.2       1 <0>        -0.1598
     17 C15         2.0976   -4.6674    3.0109 C.2       1 <0>        -0.0929
     18 C16         2.1679   -6.1421    2.9384 C.ar      1 <0>        -0.0671
     19 C17         1.1477   -6.8624    2.3161 C.ar      1 <0>        -0.1124
     20 C18         1.2222   -8.2384    2.2467 C.ar      1 <0>        -0.1187
     21 C19         2.2995   -8.9047    2.8030 C.ar      1 <0>        -0.1140
     22 C20         3.3117   -8.1968    3.4260 C.ar      1 <0>        -0.1182
     23 C21         3.2520   -6.8201    3.4970 C.ar      1 <0>        -0.1068
     24 H1          6.3451    5.3013    0.7138 H         1 <0>         0.1356
     25 H2          5.6265    4.6939   -1.5617 H         1 <0>         0.1360
     26 H3          3.3410    3.8641   -1.9507 H         1 <0>         0.1314
     27 H4          2.4892    4.2598    2.2095 H         1 <0>         0.1289
     28 H5          4.7779    5.0797    2.6001 H         1 <0>         0.1355
     29 H6          0.6955    3.9424    0.6084 H         1 <0>         0.1318
     30 H7          1.0529    3.7798   -1.1445 H         1 <0>         0.1380
     31 H8         -0.5339    1.8804    0.9154 H         1 <0>         0.1254
     32 H9         -0.5511    1.8900   -0.8808 H         1 <0>         0.1345
     33 H10        -1.0296   -0.3849    0.0246 H         1 <0>         0.1118
     34 H11         0.5040   -0.3590   -0.9102 H         1 <0>         0.1000
     35 H12         0.2319   -0.2299    2.1572 H         1 <0>         0.0606
     36 H13         2.7130   -0.2460    2.1279 H         1 <0>         0.1070
     37 H14         2.7138   -0.2776    0.3319 H         1 <0>         0.0966
     38 H15         3.1085    2.0276    1.1751 H         1 <0>         0.1358
     39 H16         1.5678    1.9594    2.0962 H         1 <0>         0.1223
     40 H17        -0.0899   -2.3767    0.7625 H         1 <0>         0.3519
     41 H18         1.9211   -2.1329    3.0002 H         1 <0>         0.0780
     42 H19         0.1356   -2.2265    3.1731 H         1 <0>         0.0467
     43 H20         0.2630   -4.5914    1.9842 H         1 <0>         0.1194
     44 H21         2.9010   -4.1021    3.5060 H         1 <0>         0.1196
     45 H22         0.3037   -6.3438    1.8861 H         1 <0>         0.1225
     46 H23         0.4354   -8.7969    1.7615 H         1 <0>         0.1251
     47 H24         2.3507   -9.9822    2.7503 H         1 <0>         0.1252
     48 H25         4.1502   -8.7228    3.8579 H         1 <0>         0.1260
     49 H26         4.0428   -6.2686    3.9837 H         1 <0>         0.1238
     50 H27         1.8672    1.6090   -0.8770 H         1 <0>         0.4410
@<TRIPOS>BOND
     1    1    6 ar
     2    1    2 ar
     3    1   24 1
     4    2    3 ar
     5    2   25 1
     6    3    4 ar
     7    3   26 1
     8    4    5 ar
     9    4    7 1
    10    5    6 ar
    11    5   27 1
    12    6   28 1
    13    7    8 1
    14    7   29 1
    15    7   30 1
    16    8   13 1
    17    8    9 1
    18    8   50 1
    19    9   10 1
    20    9   31 1
    21    9   32 1
    22   10   11 1
    23   10   33 1
    24   10   34 1
    25   11   12 1
    26   11   14 1
    27   11   35 1
    28   12   13 1
    29   12   36 1
    30   12   37 1
    31   13   38 1
    32   13   39 1
    33   14   15 1
    34   14   40 1
    35   15   16 1
    36   15   41 1
    37   15   42 1
    38   16   17 2
    39   16   43 1
    40   17   18 1
    41   17   44 1
    42   18   23 ar
    43   18   19 ar
    44   19   20 ar
    45   19   45 1
    46   20   21 ar
    47   20   46 1
    48   21   22 ar
    49   21   47 1
    50   22   23 ar
    51   22   48 1
    52   23   49 1
@<TRIPOS>MOLECULE
ZINC04980521
   46    48     0     0     0
SMALL
USER_CHARGES
1-phenethyl-4-[3-(trifluoromethyl)phenyl]-piperazine
@<TRIPOS>ATOM
      1 C1         -0.6420   14.0747   -2.0208 C.ar      1 <0>        -0.1036
      2 C2          0.2232   13.3995   -2.8613 C.ar      1 <0>        -0.1140
      3 C3          0.2423   12.0173   -2.8682 C.ar      1 <0>        -0.1102
      4 C4         -0.6042   11.3103   -2.0349 C.ar      1 <0>        -0.1099
      5 C5         -1.4735   11.9854   -1.1985 C.ar      1 <0>        -0.1096
      6 C6         -1.4888   13.3676   -1.1878 C.ar      1 <0>        -0.1138
      7 C7         -0.5838    9.8034   -2.0427 C.3       1 <0>        -0.1020
      8 C8          0.4315    9.3018   -1.0139 C.3       1 <0>         0.0004
      9 C9          1.2328    7.3110    0.1085 C.3       1 <0>         0.0036
     10 C10         1.2956    5.7844    0.0199 C.3       1 <0>         0.0192
     11 N1         -0.0690    5.2391    0.0304 N.pl3     1 <0>        -0.4858
     12 C11        -0.8504    5.7611   -1.0995 C.3       1 <0>         0.0238
     13 C12        -0.9132    7.2877   -1.0109 C.3       1 <0>        -0.0058
     14 C13        -0.0501    3.8425    0.0232 C.ar      1 <0>         0.0885
     15 C14         1.1615    3.1627    0.0080 C.ar      1 <0>        -0.1326
     16 C15         1.1766    1.7820    0.0004 C.ar      1 <0>        -0.0881
     17 C16        -0.0126    1.0758    0.0080 C.ar      1 <0>        -0.0802
     18 C17        -1.2201    1.7492    0.0174 C.ar      1 <0>        -0.1518
     19 C18        -1.2424    3.1302    0.0307 C.ar      1 <0>        -0.0811
     20 C19        -2.5133    0.9755    0.0188 C.3       1 <0>         0.5070
     21 F1         -2.2364   -0.3958    0.0096 F         1 <0>        -0.1708
     22 F2         -3.2469    1.2954    1.1663 F         1 <0>        -0.1721
     23 F3         -3.2573    1.3086   -1.1182 F         1 <0>        -0.1744
     24 H1         -0.6566   15.1546   -2.0152 H         1 <0>         0.1300
     25 H2          0.8846   13.9519   -3.5124 H         1 <0>         0.1295
     26 H3          0.9182   11.4898   -3.5249 H         1 <0>         0.1237
     27 H4         -2.1379   11.4330   -0.5506 H         1 <0>         0.1239
     28 H5         -2.1650   13.8951   -0.5314 H         1 <0>         0.1297
     29 H6         -0.3018    9.4490   -3.0341 H         1 <0>         0.0943
     30 H7         -1.5743    9.4253   -1.7898 H         1 <0>         0.0971
     31 H8          0.1495    9.6562   -0.0224 H         1 <0>         0.1341
     32 H9          1.4221    9.6799   -1.2667 H         1 <0>         0.1319
     33 H10         0.7567    7.6017    1.0449 H         1 <0>         0.1417
     34 H11         2.2428    7.7193    0.0720 H         1 <0>         0.1399
     35 H12         1.8501    5.3931    0.8728 H         1 <0>         0.1315
     36 H13         1.7961    5.4940   -0.9039 H         1 <0>         0.0738
     37 H14        -0.3742    5.4704   -2.0360 H         1 <0>         0.0726
     38 H15        -1.8603    5.3528   -1.0627 H         1 <0>         0.1288
     39 H16        -1.4137    7.5781   -0.0872 H         1 <0>         0.1428
     40 H17        -1.4678    7.6793   -1.8636 H         1 <0>         0.1428
     41 H18         2.0904    3.7136    0.0017 H         1 <0>         0.1375
     42 H19         2.1181    1.2530   -0.0118 H         1 <0>         0.1442
     43 H20         0.0021   -0.0041    0.0020 H         1 <0>         0.1467
     44 H21        -2.1859    3.6556    0.0425 H         1 <0>         0.1395
     45 N2          0.4636    7.8240   -1.0449 N.4       1 <0>        -0.3985
     46 H22         0.9195    7.5183   -1.9127 H         1 <0>         0.4259
@<TRIPOS>BOND
     1    1    6 ar
     2    1    2 ar
     3    1   24 1
     4    2    3 ar
     5    2   25 1
     6    3    4 ar
     7    3   26 1
     8    4    5 ar
     9    4    7 1
    10    5    6 ar
    11    5   27 1
    12    6   28 1
    13    7    8 1
    14    7   29 1
    15    7   30 1
    16    8   31 1
    17    8   32 1
    18    8   45 1
    19    9   10 1
    20    9   33 1
    21    9   34 1
    22    9   45 1
    23   10   11 1
    24   10   35 1
    25   10   36 1
    26   11   12 1
    27   11   14 1
    28   12   13 1
    29   12   37 1
    30   12   38 1
    31   13   39 1
    32   13   40 1
    33   13   45 1
    34   14   19 ar
    35   14   15 ar
    36   15   16 ar
    37   15   41 1
    38   16   17 ar
    39   16   42 1
    40   17   18 ar
    41   17   43 1
    42   18   19 ar
    43   18   20 1
    44   19   44 1
    45   20   21 1
    46   20   22 1
    47   20   23 1
    48   45   46 1
@<TRIPOS>MOLECULE
ZINC00216834
   43    45     0     0     0
SMALL
USER_CHARGES
1-(3-chlorophenyl)-4-phenethyl-piperazine
@<TRIPOS>ATOM
      1 C1         -0.7921    6.2294    1.2927 C.ar      1 <0>        -0.1037
      2 C2         -1.8251    5.5274    0.7002 C.ar      1 <0>        -0.1139
      3 C3         -1.8061    4.1452    0.6923 C.ar      1 <0>        -0.1101
      4 C4         -0.7544    3.4650    1.2772 C.ar      1 <0>        -0.1094
      5 C5          0.2757    4.1670    1.8747 C.ar      1 <0>        -0.1097
      6 C6          0.2594    5.5492    1.8780 C.ar      1 <0>        -0.1138
      7 C7         -0.7340    1.9582    1.2689 C.3       1 <0>        -0.1002
      8 C8         -0.0178    1.4648    0.0101 C.3       1 <0>         0.0000
      9 C9          0.8300   -0.5256    1.0985 C.3       1 <0>        -0.0017
     10 C10         0.7607   -2.0545    1.1038 C.3       1 <0>         0.0248
     11 N1          1.2247   -2.5678   -0.1927 N.pl3     1 <0>        -0.4857
     12 C11         0.3968   -2.0463   -1.2892 C.3       1 <0>         0.0200
     13 C12         0.4661   -0.5173   -1.2945 C.3       1 <0>         0.0031
     14 C13         1.2436   -3.9644   -0.2004 C.ar      1 <0>         0.1006
     15 C14         0.5291   -4.6649   -1.1643 C.ar      1 <0>        -0.1609
     16 C15         0.5539   -6.0456   -1.1729 C.ar      1 <0>        -0.0761
     17 C16         1.2799   -6.7319   -0.2167 C.ar      1 <0>        -0.1186
     18 C17         1.9886   -6.0379    0.7482 C.ar      1 <0>        -0.0100
     19 C18         1.9720   -4.6556    0.7588 C.ar      1 <0>        -0.1236
     20 Cl1         2.8986   -6.9036    1.9465 Cl        1 <0>        -0.0491
     21 H1         -0.8067    7.3093    1.2986 H         1 <0>         0.1300
     22 H2         -2.6468    6.0589    0.2432 H         1 <0>         0.1296
     23 H3         -2.6132    3.5968    0.2294 H         1 <0>         0.1238
     24 H4          1.0952    3.6355    2.3355 H         1 <0>         0.1239
     25 H5          1.0663    6.0977    2.3412 H         1 <0>         0.1297
     26 H6         -1.7566    1.5809    1.2766 H         1 <0>         0.0941
     27 H7         -0.2068    1.5971    2.1520 H         1 <0>         0.0943
     28 H8          1.0047    1.8421    0.0024 H         1 <0>         0.1344
     29 H9         -0.5450    1.8259   -0.8730 H         1 <0>         0.1322
     30 H10         1.8632   -0.2089    0.9564 H         1 <0>         0.1422
     31 H11         0.4590   -0.1415    2.0487 H         1 <0>         0.1392
     32 H12        -0.2684   -2.3713    1.2731 H         1 <0>         0.0715
     33 H13         1.3970   -2.4446    1.8981 H         1 <0>         0.1288
     34 H14        -0.6364   -2.3630   -1.1471 H         1 <0>         0.0731
     35 H15         0.7678   -2.4304   -2.2394 H         1 <0>         0.1311
     36 H16        -0.1702   -0.1272   -2.0888 H         1 <0>         0.1391
     37 H17         1.4951   -0.2002   -1.4640 H         1 <0>         0.1414
     38 H18        -0.0418   -4.1300   -1.9088 H         1 <0>         0.1335
     39 H19         0.0015   -6.5902   -1.9244 H         1 <0>         0.1405
     40 H20         1.2935   -7.8118   -0.2229 H         1 <0>         0.1411
     41 H21         2.5252   -4.1140    1.5119 H         1 <0>         0.1386
     42 N2         -0.0239   -0.0137    0.0058 N.4       1 <0>        -0.3988
     43 H22        -0.9852   -0.3438    0.1508 H         1 <0>         0.4251
@<TRIPOS>BOND
     1    1    6 ar
     2    1    2 ar
     3    1   21 1
     4    2    3 ar
     5    2   22 1
     6    3    4 ar
     7    3   23 1
     8    4    5 ar
     9    4    7 1
    10    5    6 ar
    11    5   24 1
    12    6   25 1
    13    7    8 1
    14    7   26 1
    15    7   27 1
    16    8   28 1
    17    8   29 1
    18    8   42 1
    19    9   10 1
    20    9   30 1
    21    9   31 1
    22    9   42 1
    23   10   11 1
    24   10   32 1
    25   10   33 1
    26   11   12 1
    27   11   14 1
    28   12   13 1
    29   12   34 1
    30   12   35 1
    31   13   36 1
    32   13   37 1
    33   13   42 1
    34   14   19 ar
    35   14   15 ar
    36   15   16 ar
    37   15   38 1
    38   16   17 ar
    39   16   39 1
    40   17   18 ar
    41   17   40 1
    42   18   19 ar
    43   18   20 1
    44   19   41 1
    45   42   43 1
@<TRIPOS>MOLECULE
ZINC03616630
   52    54     0     0     0
SMALL
USER_CHARGES

@<TRIPOS>ATOM
      1 C1         -0.0187    1.5258    0.0104 C.3       1 <0>        -0.1979
      2 C2          0.0021   -0.0041    0.0020 C.3       1 <0>        -0.0083
      3 H1         -1.0205   -0.3814    0.0098 H         1 <0>         0.1467
      4 C3          0.7421   -0.5109    1.2415 C.3       1 <0>         0.1398
      5 H2          0.8346   -1.5958    1.1912 H         1 <0>         0.1306
      6 C4         -0.0298   -0.1295    2.4784 C.ar      1 <0>        -0.1506
      7 C5          0.0648    1.1546    2.9823 C.ar      1 <0>        -0.0917
      8 C6         -0.6414    1.5067    4.1162 C.ar      1 <0>        -0.1399
      9 C7         -1.4464    0.5707    4.7491 C.ar      1 <0>         0.1318
     10 C8         -1.5399   -0.7170    4.2412 C.ar      1 <0>        -0.1399
     11 C9         -0.8358   -1.0625    3.1041 C.ar      1 <0>        -0.0825
     12 O1         -2.1418    0.9144    5.8650 O.3       1 <0>        -0.4954
     13 O2          2.0438    0.0763    1.2925 O.3       1 <0>        -0.5446
     14 N1          0.6897   -0.4778   -1.2066 N.4       1 <0>        -0.3762
     15 C10        -0.0162    0.0165   -2.3948 C.3       1 <0>        -0.0111
     16 C11         0.7414   -0.4060   -3.6554 C.3       1 <0>        -0.1418
     17 C12         0.8228   -1.9344   -3.7071 C.3       1 <0>        -0.0939
     18 C13         1.4942   -2.4436   -2.4284 C.3       1 <0>        -0.1436
     19 C14         0.7088   -1.9455   -1.2133 C.3       1 <0>        -0.0127
     20 C15         1.6472   -2.3620   -4.9230 C.3       1 <0>        -0.0744
     21 C16         1.6242   -3.8640   -5.0426 C.ar      1 <0>        -0.0948
     22 C17         2.5880   -4.6230   -4.4053 C.ar      1 <0>        -0.1212
     23 C18         2.5668   -6.0008   -4.5150 C.ar      1 <0>        -0.1159
     24 C19         1.5817   -6.6197   -5.2615 C.ar      1 <0>        -0.1163
     25 C20         0.6174   -5.8609   -5.8979 C.ar      1 <0>        -0.1139
     26 C21         0.6360   -4.4833   -5.7848 C.ar      1 <0>        -0.1163
     27 H3          1.0039    1.9031    0.0027 H         1 <0>         0.0834
     28 H4         -0.5459    1.8868   -0.8726 H         1 <0>         0.0917
     29 H5         -0.5289    1.8773    0.9072 H         1 <0>         0.1135
     30 H6          0.6915    1.8829    2.4892 H         1 <0>         0.1279
     31 H7         -0.5667    2.5096    4.5098 H         1 <0>         0.1384
     32 H8         -2.1659   -1.4474    4.7322 H         1 <0>         0.1387
     33 H9         -0.9117   -2.0635    2.7058 H         1 <0>         0.1316
     34 H10        -3.0262    1.2619    5.6858 H         1 <0>         0.4006
     35 H11         2.0381    1.0422    1.3386 H         1 <0>         0.3862
     36 H12        -1.0226   -0.4013   -2.4191 H         1 <0>         0.1283
     37 H13        -0.0762    1.1042   -2.3550 H         1 <0>         0.1325
     38 H14         0.2147   -0.0396   -4.5366 H         1 <0>         0.1136
     39 H15         1.7479    0.0115   -3.6323 H         1 <0>         0.0897
     40 H16        -0.1818   -2.3506   -3.7819 H         1 <0>         0.0907
     41 H17         1.5058   -3.5335   -2.4326 H         1 <0>         0.1159
     42 H18         2.5165   -2.0683   -2.3798 H         1 <0>         0.0897
     43 H19         1.1841   -2.3064   -0.3012 H         1 <0>         0.1315
     44 H20        -0.3131   -2.3215   -1.2627 H         1 <0>         0.1284
     45 H21         1.2224   -1.9192   -5.8239 H         1 <0>         0.0830
     46 H22         2.6760   -2.0229   -4.8019 H         1 <0>         0.0787
     47 H23         3.3577   -4.1394   -3.8221 H         1 <0>         0.1199
     48 H24         3.3202   -6.5937   -4.0177 H         1 <0>         0.1246
     49 H25         1.5656   -7.6962   -5.3477 H         1 <0>         0.1252
     50 H26        -0.1521   -6.3444   -6.4814 H         1 <0>         0.1251
     51 H27        -0.1196   -3.8906   -6.2790 H         1 <0>         0.1213
     52 H28         1.6368   -0.1301   -1.2116 H         1 <0>         0.4242
@<TRIPOS>BOND
     1    1    2 1
     2    1   27 1
     3    1   28 1
     4    1   29 1
     5    2    3 1
     6    2    4 1
     7    2   14 1
     8    4    5 1
     9    4    6 1
    10    4   13 1
    11    6   11 ar
    12    6    7 ar
    13    7    8 ar
    14    7   30 1
    15    8    9 ar
    16    8   31 1
    17    9   10 ar
    18    9   12 1
    19   10   11 ar
    20   10   32 1
    21   11   33 1
    22   12   34 1
    23   13   35 1
    24   14   19 1
    25   14   15 1
    26   14   52 1
    27   15   16 1
    28   15   36 1
    29   15   37 1
    30   16   17 1
    31   16   38 1
    32   16   39 1
    33   17   18 1
    34   17   20 1
    35   17   40 1
    36   18   19 1
    37   18   41 1
    38   18   42 1
    39   19   43 1
    40   19   44 1
    41   20   21 1
    42   20   45 1
    43   20   46 1
    44   21   26 ar
    45   21   22 ar
    46   22   23 ar
    47   22   47 1
    48   23   24 ar
    49   23   48 1
    50   24   25 ar
    51   24   49 1
    52   25   26 ar
    53   25   50 1
    54   26   51 1
@<TRIPOS>MOLECULE
ZINC02534401
   36    38     0     0     0
SMALL
USER_CHARGES
dimethylBLAHol
@<TRIPOS>ATOM
      1 C1         -1.5660    3.5822    2.4837 C.3       1 <0>        -0.1713
      2 C2         -1.0584    3.0545    1.1403 C.3       1 <0>        -0.0877
      3 H1         -0.1899    3.6317    0.8229 H         1 <0>         0.1214
      4 C3         -0.6989    1.5633    1.2760 C.3       1 <0>         0.0328
      5 H2          0.0129    1.4691    2.0961 H         1 <0>         0.1356
      6 C4         -0.0127    1.0858    0.0080 C.3       1 <0>        -0.0882
      7 C5         -0.7165    1.5724   -1.2301 C.ar      1 <0>        -0.1149
      8 C6         -0.3426    1.0107   -2.4463 C.ar      1 <0>        -0.0932
      9 C7         -0.9388    1.4171   -3.6203 C.ar      1 <0>        -0.1362
     10 C8         -1.9207    2.3972   -3.5926 C.ar      1 <0>         0.1248
     11 C9         -2.2962    2.9544   -2.3815 C.ar      1 <0>        -0.1397
     12 C10        -1.6977    2.5370   -1.2023 C.ar      1 <0>        -0.0649
     13 C11        -2.1668    3.1674    0.0882 C.3       1 <0>        -0.0211
     14 C12        -3.3825    2.3603    0.5776 C.3       1 <0>        -0.1371
     15 C13        -2.9615    0.8891    0.6611 C.3       1 <0>        -0.0093
     16 C14        -2.5479    4.6321   -0.1362 C.3       1 <0>        -0.1477
     17 O1         -2.5104    2.8074   -4.7463 O.3       1 <0>        -0.4966
     18 H3         -2.4275    2.9954    2.8025 H         1 <0>         0.0558
     19 H4         -0.7746    3.5000    3.2288 H         1 <0>         0.0754
     20 H5         -1.8574    4.6271    2.3770 H         1 <0>         0.0871
     21 H6          0.0021   -0.0041    0.0020 H         1 <0>         0.0959
     22 H7          1.0132    1.4539    0.0002 H         1 <0>         0.1214
     23 H8          0.4227    0.2490   -2.4708 H         1 <0>         0.1326
     24 H9         -0.6424    0.9742   -4.5596 H         1 <0>         0.1372
     25 H10        -3.0591    3.7184   -2.3554 H         1 <0>         0.1376
     26 H11        -3.6903    2.7155    1.5610 H         1 <0>         0.0986
     27 H12        -4.2056    2.4671   -0.1290 H         1 <0>         0.1133
     28 H13        -2.6339    0.5457   -0.3202 H         1 <0>         0.1334
     29 H14        -3.8079    0.2877    0.9925 H         1 <0>         0.1314
     30 H15        -3.3516    4.6900   -0.8703 H         1 <0>         0.0715
     31 H16        -2.8832    5.0685    0.8047 H         1 <0>         0.0722
     32 H17        -1.6806    5.1811   -0.5028 H         1 <0>         0.0706
     33 H18        -2.0621    3.5492   -5.1749 H         1 <0>         0.4011
     34 N1         -1.8611    0.7376    1.6400 N.4       1 <0>        -0.5089
     35 H19        -2.1971    1.0245    2.5669 H         1 <0>         0.4318
     36 H20        -1.5742   -0.2478    1.6698 H         1 <0>         0.4349
@<TRIPOS>BOND
     1    1    2 1
     2    1   18 1
     3    1   19 1
     4    1   20 1
     5    2    3 1
     6    2   13 1
     7    2    4 1
     8    4    5 1
     9    4    6 1
    10    4   34 1
    11    6    7 1
    12    6   21 1
    13    6   22 1
    14    7   12 ar
    15    7    8 ar
    16    8    9 ar
    17    8   23 1
    18    9   10 ar
    19    9   24 1
    20   10   11 ar
    21   10   17 1
    22   11   12 ar
    23   11   25 1
    24   12   13 1
    25   13   14 1
    26   13   16 1
    27   14   15 1
    28   14   26 1
    29   14   27 1
    30   15   28 1
    31   15   29 1
    32   15   34 1
    33   16   30 1
    34   16   31 1
    35   16   32 1
    36   17   33 1
    37   34   35 1
    38   34   36 1
@<TRIPOS>MOLECULE
ZINC00066019
   27    28     0     0     0
SMALL
USER_CHARGES
1-(4-chlorophenyl)piperazine
@<TRIPOS>ATOM
      1 C1         -0.0167    1.3769    0.0096 C.ar      1 <0>        -0.1162
      2 C2          0.0021   -0.0041    0.0020 C.ar      1 <0>        -0.0828
      3 C3          1.2090   -0.6809   -0.0127 C.ar      1 <0>        -0.0444
      4 C4          2.4001    0.0234   -0.0203 C.ar      1 <0>        -0.0820
      5 C5          2.3873    1.4044   -0.0132 C.ar      1 <0>        -0.1507
      6 C6          1.1774    2.0864    0.0020 C.ar      1 <0>         0.0888
      7 N1          1.1615    3.4837    0.0092 N.pl3     1 <0>        -0.4869
      8 C7          0.4030    3.9958    1.1590 C.3       1 <0>         0.0233
      9 C8          0.3419    5.5234    1.0870 C.3       1 <0>         0.0009
     10 C9          2.4662    5.5536   -0.0729 C.3       1 <0>         0.0013
     11 C10         2.5273    4.0260   -0.0008 C.3       1 <0>         0.0173
     12 Cl1         1.2288   -2.4168   -0.0210 Cl        1 <0>        -0.0516
     13 H1         -0.9589    1.9046    0.0170 H         1 <0>         0.1377
     14 H2         -0.9261   -0.5562    0.0079 H         1 <0>         0.1434
     15 H3          3.3406   -0.5074   -0.0314 H         1 <0>         0.1413
     16 H4          3.3173    1.9536   -0.0195 H         1 <0>         0.1361
     17 H5         -0.6084    3.5900    1.1374 H         1 <0>         0.1290
     18 H6          0.8962    3.6947    2.0833 H         1 <0>         0.0713
     19 H7         -0.1954    5.9072    1.9543 H         1 <0>         0.1423
     20 H8         -0.1754    5.8241    0.1760 H         1 <0>         0.1412
     21 H9          3.4776    5.9594   -0.0512 H         1 <0>         0.1424
     22 H10         1.9733    5.8546   -0.9973 H         1 <0>         0.1411
     23 H11         3.0446    3.7253    0.9102 H         1 <0>         0.0733
     24 H12         3.0646    3.6422   -0.8681 H         1 <0>         0.1305
     25 N2          1.7113    6.0719    1.0838 N.4       1 <0>        -0.5192
     26 H13         2.1884    5.7975    1.9505 H         1 <0>         0.4317
     27 H14         1.6660    7.0962    1.0275 H         1 <0>         0.4410
@<TRIPOS>BOND
     1    1    6 ar
     2    1    2 ar
     3    1   13 1
     4    2    3 ar
     5    2   14 1
     6    3    4 ar
     7    3   12 1
     8    4    5 ar
     9    4   15 1
    10    5    6 ar
    11    5   16 1
    12    6    7 1
    13    7   11 1
    14    7    8 1
    15    8    9 1
    16    8   17 1
    17    8   18 1
    18    9   19 1
    19    9   20 1
    20    9   25 1
    21   10   11 1
    22   10   21 1
    23   10   22 1
    24   10   25 1
    25   11   23 1
    26   11   24 1
    27   25   26 1
    28   25   27 1
@<TRIPOS>MOLECULE
ZINC01734479
   36    37     0     0     0
SMALL
USER_CHARGES
1-phenyl-4-propyl-piperazine
@<TRIPOS>ATOM
      1 C1          0.0255    1.1828    4.9209 C.3       1 <0>        -0.1567
      2 C2         -0.6400    1.7343    3.6584 C.3       1 <0>        -0.1535
      3 C3         -0.0625    1.0307    2.4286 C.3       1 <0>        -0.0047
      4 C4         -0.0127    1.0858    0.0080 C.3       1 <0>         0.0033
      5 C5         -0.7538    1.5933   -1.2312 C.3       1 <0>         0.0201
      6 N1         -0.8062    3.0616   -1.2005 N.pl3     1 <0>        -0.4869
      7 C6         -1.4953    3.5359    0.0077 C.3       1 <0>         0.0260
      8 C7         -0.7542    3.0285    1.2469 C.3       1 <0>        -0.0043
      9 C8         -1.4132    3.5650   -2.3533 C.ar      1 <0>         0.0845
     10 C9         -1.8653    2.6960   -3.3382 C.ar      1 <0>        -0.1636
     11 C10        -2.4693    3.1970   -4.4746 C.ar      1 <0>        -0.0916
     12 C11        -2.6150    4.5625   -4.6374 C.ar      1 <0>        -0.1257
     13 C12        -2.1614    5.4306   -3.6613 C.ar      1 <0>        -0.0919
     14 C13        -1.5611    4.9361   -2.5200 C.ar      1 <0>        -0.1294
     15 H1         -0.1635    0.1117    4.9930 H         1 <0>         0.0670
     16 H2          1.0999    1.3597    4.8722 H         1 <0>         0.0673
     17 H3         -0.3859    1.6840    5.7970 H         1 <0>         0.0775
     18 H4         -0.4510    2.8053    3.5864 H         1 <0>         0.0883
     19 H5         -1.7144    1.5573    3.7071 H         1 <0>         0.0852
     20 H6         -0.2515   -0.0404    2.5007 H         1 <0>         0.1297
     21 H7          1.0120    1.2076    2.3799 H         1 <0>         0.1318
     22 H8          0.0021   -0.0041    0.0020 H         1 <0>         0.1378
     23 H9          1.0098    1.4634    0.0003 H         1 <0>         0.1401
     24 H10        -0.2280    1.2668   -2.1285 H         1 <0>         0.1294
     25 H11        -1.7678    1.1933   -1.2378 H         1 <0>         0.0708
     26 H12        -1.5101    4.6258    0.0137 H         1 <0>         0.1276
     27 H13        -2.5178    3.1583    0.0150 H         1 <0>         0.0686
     28 H14         0.2597    3.4285    1.2535 H         1 <0>         0.1406
     29 H15        -1.2798    3.3552    2.1442 H         1 <0>         0.1407
     30 H16        -1.7478    1.6297   -3.2137 H         1 <0>         0.1262
     31 H17        -2.8247    2.5217   -5.2389 H         1 <0>         0.1297
     32 H18        -3.0843    4.9518   -5.5288 H         1 <0>         0.1298
     33 H19        -2.2770    6.4965   -3.7914 H         1 <0>         0.1320
     34 H20        -1.2067    5.6147   -1.7582 H         1 <0>         0.1273
     35 N2         -0.7278    1.5508    1.2149 N.4       1 <0>        -0.3983
     36 H21        -1.6925    1.2003    1.1871 H         1 <0>         0.4253
@<TRIPOS>BOND
     1    1    2 1
     2    1   15 1
     3    1   16 1
     4    1   17 1
     5    2    3 1
     6    2   18 1
     7    2   19 1
     8    3   20 1
     9    3   21 1
    10    3   35 1
    11    4    5 1
    12    4   22 1
    13    4   23 1
    14    4   35 1
    15    5    6 1
    16    5   24 1
    17    5   25 1
    18    6    7 1
    19    6    9 1
    20    7    8 1
    21    7   26 1
    22    7   27 1
    23    8   28 1
    24    8   29 1
    25    8   35 1
    26    9   14 ar
    27    9   10 ar
    28   10   11 ar
    29   10   30 1
    30   11   12 ar
    31   11   31 1
    32   12   13 ar
    33   12   32 1
    34   13   14 ar
    35   13   33 1
    36   14   34 1
    37   35   36 1
@<TRIPOS>MOLECULE
ZINC20477323
   48    50     0     0     0
SMALL
USER_CHARGES
1-benzyl-N-(3-phenylprop-2-ynyl)piperidin-4-amine
@<TRIPOS>ATOM
      1 C1         -2.5673   -9.6573    5.3445 C.ar      1 <0>        -0.0847
      2 C2         -2.6865   -9.6291    3.9676 C.ar      1 <0>        -0.1138
      3 C3         -1.6068   -9.2588    3.1878 C.ar      1 <0>        -0.0982
      4 C4         -0.4078   -8.9172    3.7850 C.ar      1 <0>        -0.1599
      5 C5         -0.2869   -8.9509    5.1616 C.ar      1 <0>        -0.0944
      6 C6         -1.3683   -9.3157    5.9417 C.ar      1 <0>        -0.1128
      7 C7          0.7694   -8.5140    2.9349 C.3       1 <0>         0.0467
      8 N1          0.7441   -7.0608    2.7211 N.4       1 <0>        -0.3967
      9 C8          1.9930   -6.5981    2.1025 C.3       1 <0>        -0.0032
     10 C9          1.9914   -5.0695    2.0285 C.3       1 <0>        -0.1332
     11 C10         0.7883   -4.6046    1.2033 C.3       1 <0>         0.0667
     12 C11        -0.4963   -5.1403    1.8417 C.3       1 <0>        -0.1775
     13 C12        -0.4225   -6.6668    1.9211 C.3       1 <0>        -0.0040
     14 N2          0.7484   -3.1364    1.1776 N.3       1 <0>        -0.6619
     15 C13         0.0380   -2.6498   -0.0125 C.3       1 <0>         0.1691
     16 C14         0.0180   -1.1779   -0.0044 C.1       1 <0>        -0.1835
     17 C15         0.0021   -0.0041    0.0020 C.1       1 <0>        -0.0980
     18 C16        -0.0173    1.4278    0.0099 C.ar      1 <0>        -0.0025
     19 C17        -1.2334    2.1120    0.0193 C.ar      1 <0>        -0.0910
     20 C18        -1.2452    3.4916    0.0322 C.ar      1 <0>        -0.1186
     21 C19        -0.0549    4.1966    0.0246 C.ar      1 <0>        -0.1029
     22 C20         1.1541    3.5243    0.0095 C.ar      1 <0>        -0.1191
     23 C21         1.1797    2.1448    0.0023 C.ar      1 <0>        -0.0932
     24 H1         -3.4111   -9.9459    5.9538 H         1 <0>         0.1357
     25 H2         -3.6233   -9.8960    3.5011 H         1 <0>         0.1355
     26 H3         -1.6999   -9.2368    2.1121 H         1 <0>         0.1296
     27 H4          0.6511   -8.6883    5.6280 H         1 <0>         0.1317
     28 H5         -1.2753   -9.3374    7.0174 H         1 <0>         0.1362
     29 H6          1.7030   -8.7934    3.4452 H         1 <0>         0.1381
     30 H7          0.7140   -9.0285    1.9642 H         1 <0>         0.1326
     31 H8          2.8482   -6.9346    2.7070 H         1 <0>         0.1344
     32 H9          2.0754   -7.0138    1.0874 H         1 <0>         0.1272
     33 H10         1.9242   -4.6533    3.0445 H         1 <0>         0.0910
     34 H11         2.9207   -4.7245    1.5516 H         1 <0>         0.1197
     35 H12         0.8763   -4.9437    0.1606 H         1 <0>         0.0971
     36 H13        -0.6041   -4.7235    2.8540 H         1 <0>         0.0931
     37 H14        -1.3610   -4.8446    1.2294 H         1 <0>         0.1099
     38 H15        -0.3287   -7.0821    0.9068 H         1 <0>         0.1264
     39 H16        -1.3380   -7.0536    2.3925 H         1 <0>         0.1317
     40 H17         0.2282   -2.7680    2.0741 H         1 <0>         0.3522
     41 H18         0.5530   -3.0045   -0.9175 H         1 <0>         0.1004
     42 H19        -0.9940   -3.0306   -0.0048 H         1 <0>         0.0606
     43 H20        -2.1634    1.5628    0.0207 H         1 <0>         0.1268
     44 H21        -2.1857    4.0223    0.0440 H         1 <0>         0.1311
     45 H22        -0.0696    5.2765    0.0302 H         1 <0>         0.1296
     46 H23         2.0799    4.0804    0.0036 H         1 <0>         0.1307
     47 H24         2.1241    1.6211   -0.0095 H         1 <0>         0.1254
     48 H25         0.6563   -6.5743    3.7038 H         1 <0>         0.4397
@<TRIPOS>BOND
     1    1    6 ar
     2    1    2 ar
     3    1   24 1
     4    2    3 ar
     5    2   25 1
     6    3    4 ar
     7    3   26 1
     8    4    5 ar
     9    4    7 1
    10    5    6 ar
    11    5   27 1
    12    6   28 1
    13    7    8 1
    14    7   29 1
    15    7   30 1
    16    8   13 1
    17    8    9 1
    18    8   48 1
    19    9   10 1
    20    9   31 1
    21    9   32 1
    22   10   11 1
    23   10   33 1
    24   10   34 1
    25   11   12 1
    26   11   14 1
    27   11   35 1
    28   12   13 1
    29   12   36 1
    30   12   37 1
    31   13   38 1
    32   13   39 1
    33   14   15 1
    34   14   40 1
    35   15   16 1
    36   15   41 1
    37   15   42 1
    38   16   17 3
    39   17   18 1
    40   18   23 ar
    41   18   19 ar
    42   19   20 ar
    43   19   43 1
    44   20   21 ar
    45   20   44 1
    46   21   22 ar
    47   21   45 1
    48   22   23 ar
    49   22   46 1
    50   23   47 1
@<TRIPOS>MOLECULE
ZINC10450796
   49    51     0     0     0
SMALL
USER_CHARGES
N-(1-benzyl-4-piperidyl)-3-phenyl-prop-2-enamide
@<TRIPOS>ATOM
      1 C1         -4.6524   -4.8307    5.0881 C.ar      1 <0>        -0.0837
      2 C2         -5.2476   -3.7292    4.5021 C.ar      1 <0>        -0.1134
      3 C3         -5.0134   -3.4439    3.1700 C.ar      1 <0>        -0.0967
      4 C4         -4.1844   -4.2603    2.4236 C.ar      1 <0>        -0.1638
      5 C5         -3.5937   -5.3651    3.0081 C.ar      1 <0>        -0.0944
      6 C6         -3.8234   -5.6471    4.3417 C.ar      1 <0>        -0.1135
      7 C7         -3.9295   -3.9496    0.9712 C.3       1 <0>         0.0490
      8 C8         -2.3354   -2.9364   -0.5430 C.3       1 <0>         0.0035
      9 C9         -1.0327   -2.1360   -0.6095 C.3       1 <0>        -0.1568
     10 C10        -1.2565   -0.7538    0.0100 C.3       1 <0>         0.1369
     11 C11        -1.7427   -0.9221    1.4522 C.3       1 <0>        -0.1599
     12 C12        -3.0248   -1.7577    1.4589 C.3       1 <0>        -0.0026
     13 N1          0.0021   -0.0041    0.0020 N.am      1 <0>        -0.7288
     14 C13        -0.0162    1.3436    0.0094 C.2       1 <0>         0.5579
     15 O1         -1.0783    1.9376    0.0177 O.2       1 <0>        -0.5377
     16 C14         1.2418    2.0929    0.0014 C.2       1 <0>        -0.2407
     17 C15         1.2235    3.4408    0.0089 C.2       1 <0>         0.0116
     18 C16         2.4882    4.1941    0.0008 C.ar      1 <0>        -0.0939
     19 C17         3.7106    3.5151   -0.0087 C.ar      1 <0>        -0.0968
     20 C18         4.8910    4.2278   -0.0220 C.ar      1 <0>        -0.1237
     21 C19         4.8680    5.6116   -0.0139 C.ar      1 <0>        -0.0983
     22 C20         3.6623    6.2909    0.0008 C.ar      1 <0>        -0.1218
     23 C21         2.4734    5.5924    0.0085 C.ar      1 <0>        -0.0884
     24 H1         -4.8347   -5.0531    6.1291 H         1 <0>         0.1359
     25 H2         -5.8953   -3.0913    5.0852 H         1 <0>         0.1363
     26 H3         -5.4784   -2.5833    2.7122 H         1 <0>         0.1314
     27 H4         -2.9495   -6.0054    2.4238 H         1 <0>         0.1310
     28 H5         -3.3581   -6.5075    4.7996 H         1 <0>         0.1361
     29 H6         -4.8012   -3.4505    0.5480 H         1 <0>         0.1375
     30 H7         -3.7424   -4.8763    0.4288 H         1 <0>         0.1360
     31 H8         -3.1097   -2.4177   -1.1082 H         1 <0>         0.1349
     32 H9         -2.1756   -3.9264   -0.9704 H         1 <0>         0.1350
     33 H10        -0.7275   -2.0235   -1.6498 H         1 <0>         0.1200
     34 H11        -0.2543   -2.6612   -0.0560 H         1 <0>         0.0941
     35 H12        -2.0064   -0.2129   -0.5674 H         1 <0>         0.1054
     36 H13        -0.9755   -1.4282    2.0381 H         1 <0>         0.0893
     37 H14        -1.9447    0.0577    1.8848 H         1 <0>         0.1163
     38 H15        -3.7958   -1.2444    0.8843 H         1 <0>         0.1333
     39 H16        -3.3657   -1.8915    2.4855 H         1 <0>         0.1321
     40 H17         0.8486   -0.4776   -0.0086 H         1 <0>         0.4072
     41 H18         2.1843    1.5657   -0.0104 H         1 <0>         0.1318
     42 H19         0.2810    3.9680    0.0207 H         1 <0>         0.1371
     43 H20         3.7301    2.4353   -0.0098 H         1 <0>         0.1260
     44 H21         5.8358    3.7049   -0.0339 H         1 <0>         0.1286
     45 H22         5.7959    6.1643   -0.0195 H         1 <0>         0.1286
     46 H23         3.6525    7.3708    0.0067 H         1 <0>         0.1304
     47 H24         1.5333    6.1238    0.0200 H         1 <0>         0.1299
     48 N2         -2.7364   -3.0837    0.8724 N.4       1 <0>        -0.3940
     49 H25        -1.9655   -3.5177    1.3935 H         1 <0>         0.4259
@<TRIPOS>BOND
     1    1    6 ar
     2    1    2 ar
     3    1   24 1
     4    2    3 ar
     5    2   25 1
     6    3    4 ar
     7    3   26 1
     8    4    5 ar
     9    4    7 1
    10    5    6 ar
    11    5   27 1
    12    6   28 1
    13    7   29 1
    14    7   30 1
    15    7   48 1
    16    8    9 1
    17    8   31 1
    18    8   32 1
    19    8   48 1
    20    9   10 1
    21    9   33 1
    22    9   34 1
    23   10   11 1
    24   10   13 1
    25   10   35 1
    26   11   12 1
    27   11   36 1
    28   11   37 1
    29   12   38 1
    30   12   39 1
    31   12   48 1
    32   13   14 am
    33   13   40 1
    34   14   15 2
    35   14   16 1
    36   16   17 2
    37   16   41 1
    38   17   18 1
    39   17   42 1
    40   18   23 ar
    41   18   19 ar
    42   19   20 ar
    43   19   43 1
    44   20   21 ar
    45   20   44 1
    46   21   22 ar
    47   21   45 1
    48   22   23 ar
    49   22   46 1
    50   23   47 1
    51   48   49 1
@<TRIPOS>MOLECULE
ZINC19365774
   44    45     0     0     0
SMALL
USER_CHARGES
2-[2-(methyl-(2-pyrrolidin-1-ylethyl)amino)ethyl]aniline
@<TRIPOS>ATOM
      1 C1          3.9957    2.4991    0.7504 C.3       1 <0>         0.0032
      2 N1          4.1613    1.1948    1.4058 N.3       1 <0>        -0.5336
      3 C2          2.8978    0.4456    1.4138 C.3       1 <0>         0.0588
      4 C3          2.5095    0.0850   -0.0215 C.3       1 <0>        -0.0635
      5 C4          1.2133   -0.6836   -0.0132 C.ar      1 <0>        -0.1799
      6 C5          1.2284   -2.0648   -0.0203 C.ar      1 <0>        -0.0652
      7 C6          0.0396   -2.7708   -0.0118 C.ar      1 <0>        -0.1813
      8 C7         -1.1682   -2.0972    0.0034 C.ar      1 <0>        -0.0665
      9 C8         -1.1905   -0.7166    0.0154 C.ar      1 <0>        -0.2021
     10 C9          0.0021   -0.0041    0.0020 C.ar      1 <0>         0.2318
     11 N2         -0.0169    1.3925    0.0097 N.pl3     1 <0>        -0.8997
     12 C10         4.6881    1.3532    2.7679 C.3       1 <0>         0.0266
     13 C11         6.1113    1.9110    2.7026 C.3       1 <0>        -0.0102
     14 N3          6.6381    2.0694    4.0647 N.4       1 <0>        -0.4097
     15 C12         6.5053    0.8076    4.8369 C.3       1 <0>        -0.0056
     16 C13         7.5381    0.9803    5.9788 C.3       1 <0>        -0.1437
     17 C14         8.7094    1.7068    5.2786 C.3       1 <0>        -0.1429
     18 C15         8.0845    2.3773    4.0411 C.3       1 <0>         0.0011
     19 H1          4.9547    3.0378    0.7583 H         1 <0>         0.0703
     20 H2          3.2399    3.0878    1.2910 H         1 <0>         0.0364
     21 H3          3.6684    2.3483   -0.2889 H         1 <0>         0.0865
     22 H4          3.0213   -0.4753    2.0026 H         1 <0>         0.0820
     23 H5          2.1072    1.0647    1.8630 H         1 <0>         0.0439
     24 H6          2.3860    1.0059   -0.6103 H         1 <0>         0.0667
     25 H7          3.3000   -0.5341   -0.4707 H         1 <0>         0.0822
     26 H8          2.1699   -2.5939   -0.0321 H         1 <0>         0.1187
     27 H9          0.0543   -3.8507   -0.0166 H         1 <0>         0.1195
     28 H10        -2.0950   -2.6517    0.0103 H         1 <0>         0.1218
     29 H11        -2.1340   -0.1913    0.0317 H         1 <0>         0.1194
     30 H12        -0.9769    1.9294    0.0217 H         1 <0>         0.4186
     31 H13         0.9281    1.9554    0.0037 H         1 <0>         0.4065
     32 H14         4.0473    2.0482    3.3303 H         1 <0>         0.0551
     33 H15         4.7001    0.3758    3.2724 H         1 <0>         0.0966
     34 H16         6.7521    1.2160    2.1401 H         1 <0>         0.1349
     35 H17         6.0993    2.8884    2.1981 H         1 <0>         0.1300
     36 H18         5.4754    0.7137    5.2116 H         1 <0>         0.1306
     37 H19         6.7377   -0.0474    4.1850 H         1 <0>         0.1315
     38 H20         7.0930    1.5772    6.7885 H         1 <0>         0.0974
     39 H21         7.8244   -0.0083    6.3669 H         1 <0>         0.1153
     40 H22         9.1436    2.4486    5.9650 H         1 <0>         0.1060
     41 H23         9.4794    0.9737    4.9963 H         1 <0>         0.1048
     42 H24         8.5292    1.9785    3.1174 H         1 <0>         0.1294
     43 H25         8.2280    3.4673    4.0762 H         1 <0>         0.1309
     44 H26         6.0589    2.8883    4.5163 H         1 <0>         0.4474
@<TRIPOS>BOND
     1    1    2 1
     2    1   19 1
     3    1   20 1
     4    1   21 1
     5    2    3 1
     6    2   12 1
     7    3    4 1
     8    3   22 1
     9    3   23 1
    10    4    5 1
    11    4   24 1
    12    4   25 1
    13    5   10 ar
    14    5    6 ar
    15    6    7 ar
    16    6   26 1
    17    7    8 ar
    18    7   27 1
    19    8    9 ar
    20    8   28 1
    21    9   10 ar
    22    9   29 1
    23   10   11 1
    24   11   30 1
    25   11   31 1
    26   12   13 1
    27   12   32 1
    28   12   33 1
    29   13   14 1
    30   13   34 1
    31   13   35 1
    32   14   18 1
    33   14   15 1
    34   14   44 1
    35   15   16 1
    36   15   36 1
    37   15   37 1
    38   16   17 1
    39   16   38 1
    40   16   39 1
    41   17   18 1
    42   17   40 1
    43   17   41 1
    44   18   42 1
    45   18   43 1
@<TRIPOS>MOLECULE
ZINC19365774
   44    45     0     0     0
SMALL
USER_CHARGES
2-[2-(methyl-(2-pyrrolidin-1-ylethyl)amino)ethyl]aniline
@<TRIPOS>ATOM
      1 C1          3.9957    2.4991    0.7504 C.3       1 <0>        -0.0573
      2 N1          4.1613    1.1948    1.4058 N.4       1 <0>        -0.3993
      3 C2          2.8978    0.4456    1.4138 C.3       1 <0>        -0.0063
      4 C3          2.5095    0.0850   -0.0215 C.3       1 <0>        -0.0869
      5 C4          1.2133   -0.6836   -0.0132 C.ar      1 <0>        -0.1963
      6 C5          1.2284   -2.0648   -0.0203 C.ar      1 <0>        -0.0600
      7 C6          0.0396   -2.7708   -0.0118 C.ar      1 <0>        -0.1770
      8 C7         -1.1682   -2.0972    0.0034 C.ar      1 <0>        -0.0541
      9 C8         -1.1905   -0.7166    0.0154 C.ar      1 <0>        -0.1977
     10 C9          0.0021   -0.0041    0.0020 C.ar      1 <0>         0.2382
     11 N2         -0.0169    1.3925    0.0097 N.pl3     1 <0>        -0.8992
     12 C10         4.6881    1.3532    2.7679 C.3       1 <0>        -0.0099
     13 C11         6.1113    1.9110    2.7026 C.3       1 <0>         0.0188
     14 N3          6.6381    2.0694    4.0647 N.3       1 <0>        -0.5124
     15 C12         6.5053    0.8076    4.8369 C.3       1 <0>         0.0198
     16 C13         7.5381    0.9803    5.9788 C.3       1 <0>        -0.1243
     17 C14         8.7094    1.7068    5.2786 C.3       1 <0>        -0.1318
     18 C15         8.0845    2.3773    4.0411 C.3       1 <0>         0.0384
     19 H1          4.9547    3.0378    0.7583 H         1 <0>         0.1267
     20 H2          3.2399    3.0878    1.2910 H         1 <0>         0.1218
     21 H3          3.6684    2.3483   -0.2889 H         1 <0>         0.1258
     22 H4          3.0213   -0.4753    2.0026 H         1 <0>         0.1329
     23 H5          2.1072    1.0647    1.8630 H         1 <0>         0.1269
     24 H6          2.3860    1.0059   -0.6103 H         1 <0>         0.0855
     25 H7          3.3000   -0.5341   -0.4707 H         1 <0>         0.0947
     26 H8          2.1699   -2.5939   -0.0321 H         1 <0>         0.1215
     27 H9          0.0543   -3.8507   -0.0166 H         1 <0>         0.1246
     28 H10        -2.0950   -2.6517    0.0103 H         1 <0>         0.1273
     29 H11        -2.1340   -0.1913    0.0317 H         1 <0>         0.1249
     30 H12        -0.9769    1.9294    0.0217 H         1 <0>         0.4267
     31 H13         0.9281    1.9554    0.0037 H         1 <0>         0.4013
     32 H14         4.0473    2.0482    3.3303 H         1 <0>         0.1369
     33 H15         4.7001    0.3758    3.2724 H         1 <0>         0.1302
     34 H16         6.7521    1.2160    2.1401 H         1 <0>         0.0579
     35 H17         6.0993    2.8884    2.1981 H         1 <0>         0.0989
     36 H18         5.4754    0.7137    5.2116 H         1 <0>         0.0845
     37 H19         6.7377   -0.0474    4.1850 H         1 <0>         0.0475
     38 H20         7.0930    1.5772    6.7885 H         1 <0>         0.0812
     39 H21         7.8244   -0.0083    6.3669 H         1 <0>         0.0795
     40 H22         9.1436    2.4486    5.9650 H         1 <0>         0.0823
     41 H23         9.4794    0.9737    4.9963 H         1 <0>         0.0747
     42 H24         8.5292    1.9785    3.1174 H         1 <0>         0.0514
     43 H25         8.2280    3.4673    4.0762 H         1 <0>         0.0899
     44 H26         4.8942    0.6153    0.8253 H         1 <0>         0.4417
@<TRIPOS>BOND
     1    1    2 1
     2    1   19 1
     3    1   20 1
     4    1   21 1
     5    2    3 1
     6    2   12 1
     7    2   44 1
     8    3    4 1
     9    3   22 1
    10    3   23 1
    11    4    5 1
    12    4   24 1
    13    4   25 1
    14    5   10 ar
    15    5    6 ar
    16    6    7 ar
    17    6   26 1
    18    7    8 ar
    19    7   27 1
    20    8    9 ar
    21    8   28 1
    22    9   10 ar
    23    9   29 1
    24   10   11 1
    25   11   30 1
    26   11   31 1
    27   12   13 1
    28   12   32 1
    29   12   33 1
    30   13   14 1
    31   13   34 1
    32   13   35 1
    33   14   18 1
    34   14   15 1
    35   15   16 1
    36   15   36 1
    37   15   37 1
    38   16   17 1
    39   16   38 1
    40   16   39 1
    41   17   18 1
    42   17   40 1
    43   17   41 1
    44   18   42 1
    45   18   43 1
@<TRIPOS>MOLECULE
ZINC19365774
   45    46     0     0     0
SMALL
USER_CHARGES
2-[2-(methyl-(2-pyrrolidin-1-ylethyl)amino)ethyl]aniline
@<TRIPOS>ATOM
      1 C1          3.9957    2.4991    0.7504 C.3       1 <0>        -0.0664
      2 N1          4.1613    1.1948    1.4058 N.4       1 <0>        -0.3975
      3 C2          2.8978    0.4456    1.4138 C.3       1 <0>        -0.0094
      4 C3          2.5095    0.0850   -0.0215 C.3       1 <0>        -0.0848
      5 C4          1.2133   -0.6836   -0.0132 C.ar      1 <0>        -0.2051
      6 C5          1.2284   -2.0648   -0.0203 C.ar      1 <0>        -0.0606
      7 C6          0.0396   -2.7708   -0.0118 C.ar      1 <0>        -0.1735
      8 C7         -1.1682   -2.0972    0.0034 C.ar      1 <0>        -0.0485
      9 C8         -1.1905   -0.7166    0.0154 C.ar      1 <0>        -0.1948
     10 C9          0.0021   -0.0041    0.0020 C.ar      1 <0>         0.2383
     11 N2         -0.0169    1.3925    0.0097 N.pl3     1 <0>        -0.8995
     12 C10         4.6881    1.3532    2.7679 C.3       1 <0>        -0.0353
     13 C11         6.1113    1.9110    2.7026 C.3       1 <0>        -0.0368
     14 N3          6.6381    2.0694    4.0647 N.4       1 <0>        -0.4077
     15 C12         6.5053    0.8076    4.8369 C.3       1 <0>        -0.0134
     16 C13         7.5381    0.9803    5.9788 C.3       1 <0>        -0.1433
     17 C14         8.7094    1.7068    5.2786 C.3       1 <0>        -0.1461
     18 C15         8.0845    2.3773    4.0411 C.3       1 <0>         0.0008
     19 H1          4.9547    3.0378    0.7583 H         1 <0>         0.1253
     20 H2          3.2399    3.0878    1.2910 H         1 <0>         0.1291
     21 H3          3.6684    2.3483   -0.2889 H         1 <0>         0.1400
     22 H4          3.0213   -0.4753    2.0026 H         1 <0>         0.1386
     23 H5          2.1072    1.0647    1.8630 H         1 <0>         0.1328
     24 H6          2.3860    1.0059   -0.6103 H         1 <0>         0.0875
     25 H7          3.3000   -0.5341   -0.4707 H         1 <0>         0.0971
     26 H8          2.1699   -2.5939   -0.0321 H         1 <0>         0.1213
     27 H9          0.0543   -3.8507   -0.0166 H         1 <0>         0.1274
     28 H10        -2.0950   -2.6517    0.0103 H         1 <0>         0.1309
     29 H11        -2.1340   -0.1913    0.0317 H         1 <0>         0.1276
     30 H12        -0.9769    1.9294    0.0217 H         1 <0>         0.4303
     31 H13         0.9281    1.9554    0.0037 H         1 <0>         0.3964
     32 H14         4.0473    2.0482    3.3303 H         1 <0>         0.1489
     33 H15         4.7001    0.3758    3.2724 H         1 <0>         0.1508
     34 H16         6.7521    1.2160    2.1401 H         1 <0>         0.1476
     35 H17         6.0993    2.8884    2.1981 H         1 <0>         0.1513
     36 H18         5.4754    0.7137    5.2116 H         1 <0>         0.1348
     37 H19         6.7377   -0.0474    4.1850 H         1 <0>         0.1334
     38 H20         7.0930    1.5772    6.7885 H         1 <0>         0.1038
     39 H21         7.8244   -0.0083    6.3669 H         1 <0>         0.1227
     40 H22         9.1436    2.4486    5.9650 H         1 <0>         0.1141
     41 H23         9.4794    0.9737    4.9963 H         1 <0>         0.1107
     42 H24         8.5292    1.9785    3.1174 H         1 <0>         0.1331
     43 H25         8.2280    3.4673    4.0762 H         1 <0>         0.1398
     44 H26         6.0589    2.8883    4.5163 H         1 <0>         0.4576
     45 H27         4.8942    0.6153    0.8253 H         1 <0>         0.4507
@<TRIPOS>BOND
     1    1    2 1
     2    1   19 1
     3    1   20 1
     4    1   21 1
     5    2    3 1
     6    2   12 1
     7    2   45 1
     8    3    4 1
     9    3   22 1
    10    3   23 1
    11    4    5 1
    12    4   24 1
    13    4   25 1
    14    5   10 ar
    15    5    6 ar
    16    6    7 ar
    17    6   26 1
    18    7    8 ar
    19    7   27 1
    20    8    9 ar
    21    8   28 1
    22    9   10 ar
    23    9   29 1
    24   10   11 1
    25   11   30 1
    26   11   31 1
    27   12   13 1
    28   12   32 1
    29   12   33 1
    30   13   14 1
    31   13   34 1
    32   13   35 1
    33   14   18 1
    34   14   15 1
    35   14   44 1
    36   15   16 1
    37   15   36 1
    38   15   37 1
    39   16   17 1
    40   16   38 1
    41   16   39 1
    42   17   18 1
    43   17   40 1
    44   17   41 1
    45   18   42 1
    46   18   43 1
@<TRIPOS>MOLECULE
ZINC01660211
   45    46     0     0     0
SMALL
USER_CHARGES
2-(3-methoxyphenyl)-N-methyl-N-(2-pyrrolidin-1-ylethyl)acetamide
@<TRIPOS>ATOM
      1 C1         -0.1001    8.1325   -0.5113 C.3       1 <0>         0.0675
      2 N1         -0.1006    7.1857   -1.6293 N.am      1 <0>        -0.6200
      3 C2         -0.1189    7.6805   -3.0081 C.3       1 <0>         0.0925
      4 C3         -1.5677    7.8373   -3.4744 C.3       1 <0>        -0.0196
      5 C4         -0.7431    7.4854   -5.7381 C.3       1 <0>        -0.0122
      6 C5         -1.2822    7.8016   -7.1558 C.3       1 <0>        -0.1467
      7 C6         -2.8033    7.9491   -6.9223 C.3       1 <0>        -0.1469
      8 C7         -2.9507    8.2723   -5.4239 C.3       1 <0>        -0.0089
      9 C8         -0.0841    5.8596   -1.3894 C.2       1 <0>         0.5212
     10 O1         -0.0845    5.0759   -2.3149 O.2       1 <0>        -0.5158
     11 C9         -0.0652    5.3506    0.0290 C.3       1 <0>        -0.0982
     12 C10        -0.0492    3.8437    0.0217 C.ar      1 <0>        -0.0414
     13 C11         1.1560    3.1657    0.0071 C.ar      1 <0>        -0.1421
     14 C12         1.1741    1.7834    0.0004 C.ar      1 <0>        -0.0746
     15 C13        -0.0126    1.0758    0.0080 C.ar      1 <0>        -0.2022
     16 C14        -1.2228    1.7536    0.0174 C.ar      1 <0>         0.1310
     17 C15        -1.2382    3.1410    0.0302 C.ar      1 <0>        -0.1396
     18 O2         -2.3914    1.0598    0.0191 O.3       1 <0>        -0.3185
     19 C16        -2.2993   -0.3662    0.0109 C.3       1 <0>         0.0255
     20 H1          0.9276    8.3782   -0.2437 H         1 <0>         0.0709
     21 H2         -0.6265    9.0409   -0.8042 H         1 <0>         0.0763
     22 H3         -0.6010    7.6826    0.3460 H         1 <0>         0.0857
     23 H4          0.3842    8.6464   -3.0542 H         1 <0>         0.0998
     24 H5          0.3964    6.9711   -3.6556 H         1 <0>         0.1057
     25 H6         -2.0708    6.8715   -3.4282 H         1 <0>         0.1295
     26 H7         -2.0830    8.5468   -2.8269 H         1 <0>         0.1315
     27 H8          0.3064    7.7673   -5.6539 H         1 <0>         0.1376
     28 H9         -0.8793    6.4302   -5.5012 H         1 <0>         0.1368
     29 H10        -1.0749    6.9786   -7.8397 H         1 <0>         0.1161
     30 H11        -0.8575    8.7327   -7.5311 H         1 <0>         0.0985
     31 H12        -3.3147    7.0164   -7.1602 H         1 <0>         0.1031
     32 H13        -3.2015    8.7645   -7.5262 H         1 <0>         0.1052
     33 H14        -3.5234    7.4877   -4.9294 H         1 <0>         0.1298
     34 H15        -3.4483    9.2339   -5.2987 H         1 <0>         0.1337
     35 H16        -0.9541    5.7020    0.5529 H         1 <0>         0.1103
     36 H17         0.8257    5.7211    0.5361 H         1 <0>         0.1125
     37 H18         2.0847    3.7171    0.0005 H         1 <0>         0.1221
     38 H19         2.1166    1.2562   -0.0110 H         1 <0>         0.1289
     39 H20         0.0021   -0.0041    0.0020 H         1 <0>         0.1310
     40 H21        -2.1792    3.6709    0.0421 H         1 <0>         0.1261
     41 H22        -1.7674   -0.6908   -0.8833 H         1 <0>         0.0571
     42 H23        -1.7590   -0.7005    0.8966 H         1 <0>         0.0586
     43 H24        -3.3015   -0.7950    0.0133 H         1 <0>         0.1037
     44 N2         -1.5916    8.3313   -4.8841 N.4       1 <0>        -0.3911
     45 H25        -1.2511    9.2997   -4.9072 H         1 <0>         0.4295
@<TRIPOS>BOND
     1    1    2 1
     2    1   20 1
     3    1   21 1
     4    1   22 1
     5    2    3 1
     6    2    9 am
     7    3    4 1
     8    3   23 1
     9    3   24 1
    10    4   25 1
    11    4   26 1
    12    4   44 1
    13    5    6 1
    14    5   27 1
    15    5   28 1
    16    5   44 1
    17    6    7 1
    18    6   29 1
    19    6   30 1
    20    7    8 1
    21    7   31 1
    22    7   32 1
    23    8   33 1
    24    8   34 1
    25    8   44 1
    26    9   10 2
    27    9   11 1
    28   11   12 1
    29   11   35 1
    30   11   36 1
    31   12   17 ar
    32   12   13 ar
    33   13   14 ar
    34   13   37 1
    35   14   15 ar
    36   14   38 1
    37   15   16 ar
    38   15   39 1
    39   16   17 ar
    40   16   18 1
    41   17   40 1
    42   18   19 1
    43   19   41 1
    44   19   42 1
    45   19   43 1
    46   44   45 1
@<TRIPOS>MOLECULE
ZINC19365778
   44    45     0     0     0
SMALL
USER_CHARGES
3-[2-(methyl-(2-pyrrolidin-1-ylethyl)amino)ethyl]aniline
@<TRIPOS>ATOM
      1 C1         -1.3490    7.8493   -0.8338 C.3       1 <0>         0.0058
      2 N1         -0.0959    7.3376   -1.4044 N.3       1 <0>        -0.5340
      3 C2         -0.0817    5.8687   -1.4115 C.3       1 <0>         0.0623
      4 C3         -0.0636    5.3519    0.0285 C.3       1 <0>        -0.0769
      5 C4         -0.0490    3.8450    0.0213 C.ar      1 <0>        -0.0406
      6 C5          1.1558    3.1659    0.0071 C.ar      1 <0>        -0.1822
      7 C6          1.1736    1.7834    0.0004 C.ar      1 <0>        -0.0651
      8 C7         -0.0126    1.0758    0.0080 C.ar      1 <0>        -0.2053
      9 C8         -1.2243    1.7546    0.0174 C.ar      1 <0>         0.2311
     10 C9         -1.2385    3.1439    0.0293 C.ar      1 <0>        -0.2044
     11 N2         -2.4257    1.0423    0.0197 N.pl3     1 <0>        -0.8996
     12 C10         0.1248    7.8727   -2.7546 C.3       1 <0>         0.0265
     13 C11         0.3519    9.3836   -2.6736 C.3       1 <0>        -0.0102
     14 N3          0.5726    9.9186   -4.0238 N.4       1 <0>        -0.4096
     15 C12        -0.5183    9.5075   -4.9442 C.3       1 <0>        -0.0052
     16 C13        -0.4210   10.5418   -6.0937 C.3       1 <0>        -0.1436
     17 C14        -0.0607   11.8497   -5.3523 C.3       1 <0>        -0.1430
     18 C15         0.5583   11.3975   -4.0167 C.3       1 <0>         0.0012
     19 H1         -1.3328    8.9492   -0.8407 H         1 <0>         0.0684
     20 H2         -1.4542    7.4906    0.2007 H         1 <0>         0.0875
     21 H3         -2.1984    7.4913   -1.4342 H         1 <0>         0.0354
     22 H4         -0.9810    5.4958   -1.9236 H         1 <0>         0.0441
     23 H5          0.8152    5.5132   -1.9400 H         1 <0>         0.0834
     24 H6          0.8357    5.7248    0.5406 H         1 <0>         0.0844
     25 H7         -0.9605    5.7074    0.5570 H         1 <0>         0.0733
     26 H8          2.0847    3.7168    0.0008 H         1 <0>         0.1164
     27 H9          2.1161    1.2562   -0.0110 H         1 <0>         0.1216
     28 H10         0.0021   -0.0041    0.0020 H         1 <0>         0.1192
     29 H11        -2.1790    3.6748    0.0404 H         1 <0>         0.1139
     30 H12        -3.3846    1.5812    0.0271 H         1 <0>         0.4159
     31 H13        -2.4130   -0.0576    0.0141 H         1 <0>         0.4194
     32 H14         1.0088    7.3924   -3.1994 H         1 <0>         0.0967
     33 H15        -0.7572    7.6674   -3.3791 H         1 <0>         0.0559
     34 H16        -0.5321    9.8639   -2.2288 H         1 <0>         0.1246
     35 H17         1.2339    9.5889   -2.0491 H         1 <0>         0.1406
     36 H18        -0.3395    8.4780   -5.2881 H         1 <0>         0.1310
     37 H19        -1.4817    9.5553   -4.4154 H         1 <0>         0.1271
     38 H20         0.3589   10.2288   -6.8035 H         1 <0>         0.0984
     39 H21        -1.3878   10.6030   -6.6147 H         1 <0>         0.1144
     40 H22         0.6552   12.4276   -5.9552 H         1 <0>         0.1065
     41 H23        -0.9722   12.4451   -5.1950 H         1 <0>         0.1039
     42 H24        -0.0448   11.7543   -3.1688 H         1 <0>         0.1278
     43 H25         1.5873   11.7737   -3.9187 H         1 <0>         0.1325
     44 H26         1.5487    9.5264   -4.3454 H         1 <0>         0.4503
@<TRIPOS>BOND
     1    1    2 1
     2    1   19 1
     3    1   20 1
     4    1   21 1
     5    2    3 1
     6    2   12 1
     7    3    4 1
     8    3   22 1
     9    3   23 1
    10    4    5 1
    11    4   24 1
    12    4   25 1
    13    5   10 ar
    14    5    6 ar
    15    6    7 ar
    16    6   26 1
    17    7    8 ar
    18    7   27 1
    19    8    9 ar
    20    8   28 1
    21    9   10 ar
    22    9   11 1
    23   10   29 1
    24   11   30 1
    25   11   31 1
    26   12   13 1
    27   12   32 1
    28   12   33 1
    29   13   14 1
    30   13   34 1
    31   13   35 1
    32   14   18 1
    33   14   15 1
    34   14   44 1
    35   15   16 1
    36   15   36 1
    37   15   37 1
    38   16   17 1
    39   16   38 1
    40   16   39 1
    41   17   18 1
    42   17   40 1
    43   17   41 1
    44   18   42 1
    45   18   43 1
@<TRIPOS>MOLECULE
ZINC19365778
   44    45     0     0     0
SMALL
USER_CHARGES
3-[2-(methyl-(2-pyrrolidin-1-ylethyl)amino)ethyl]aniline
@<TRIPOS>ATOM
      1 C1         -1.3490    7.8493   -0.8338 C.3       1 <0>        -0.0557
      2 N1         -0.0959    7.3376   -1.4044 N.4       1 <0>        -0.3991
      3 C2         -0.0817    5.8687   -1.4115 C.3       1 <0>        -0.0013
      4 C3         -0.0636    5.3519    0.0285 C.3       1 <0>        -0.1000
      5 C4         -0.0490    3.8450    0.0213 C.ar      1 <0>        -0.0547
      6 C5          1.1558    3.1659    0.0071 C.ar      1 <0>        -0.1787
      7 C6          1.1736    1.7834    0.0004 C.ar      1 <0>        -0.0616
      8 C7         -0.0126    1.0758    0.0080 C.ar      1 <0>        -0.1939
      9 C8         -1.2243    1.7546    0.0174 C.ar      1 <0>         0.2350
     10 C9         -1.2385    3.1439    0.0293 C.ar      1 <0>        -0.2018
     11 N2         -2.4257    1.0423    0.0197 N.pl3     1 <0>        -0.8965
     12 C10         0.1248    7.8727   -2.7546 C.3       1 <0>        -0.0100
     13 C11         0.3519    9.3836   -2.6736 C.3       1 <0>         0.0188
     14 N3          0.5726    9.9186   -4.0238 N.3       1 <0>        -0.5123
     15 C12        -0.5183    9.5075   -4.9442 C.3       1 <0>         0.0206
     16 C13        -0.4210   10.5418   -6.0937 C.3       1 <0>        -0.1243
     17 C14        -0.0607   11.8497   -5.3523 C.3       1 <0>        -0.1318
     18 C15         0.5583   11.3975   -4.0167 C.3       1 <0>         0.0386
     19 H1         -1.3328    8.9492   -0.8407 H         1 <0>         0.1234
     20 H2         -1.4542    7.4906    0.2007 H         1 <0>         0.1278
     21 H3         -2.1984    7.4913   -1.4342 H         1 <0>         0.1192
     22 H4         -0.9810    5.4958   -1.9236 H         1 <0>         0.1277
     23 H5          0.8152    5.5132   -1.9400 H         1 <0>         0.1344
     24 H6          0.8357    5.7248    0.5406 H         1 <0>         0.0963
     25 H7         -0.9605    5.7074    0.5570 H         1 <0>         0.0928
     26 H8          2.0847    3.7168    0.0008 H         1 <0>         0.1192
     27 H9          2.1161    1.2562   -0.0110 H         1 <0>         0.1264
     28 H10         0.0021   -0.0041    0.0020 H         1 <0>         0.1239
     29 H11        -2.1790    3.6748    0.0404 H         1 <0>         0.1174
     30 H12        -3.3846    1.5812    0.0271 H         1 <0>         0.4185
     31 H13        -2.4130   -0.0576    0.0141 H         1 <0>         0.4239
     32 H14         1.0088    7.3924   -3.1994 H         1 <0>         0.1412
     33 H15        -0.7572    7.6674   -3.3791 H         1 <0>         0.1265
     34 H16        -0.5321    9.8639   -2.2288 H         1 <0>         0.0577
     35 H17         1.2339    9.5889   -2.0491 H         1 <0>         0.0996
     36 H18        -0.3395    8.4780   -5.2881 H         1 <0>         0.0845
     37 H19        -1.4817    9.5553   -4.4154 H         1 <0>         0.0460
     38 H20         0.3589   10.2288   -6.8035 H         1 <0>         0.0815
     39 H21        -1.3878   10.6030   -6.6147 H         1 <0>         0.0790
     40 H22         0.6552   12.4276   -5.9552 H         1 <0>         0.0825
     41 H23        -0.9722   12.4451   -5.1950 H         1 <0>         0.0742
     42 H24        -0.0448   11.7543   -3.1688 H         1 <0>         0.0508
     43 H25         1.5873   11.7737   -3.9187 H         1 <0>         0.0904
     44 H26         0.7312    7.6805   -0.7654 H         1 <0>         0.4440
@<TRIPOS>BOND
     1    1    2 1
     2    1   19 1
     3    1   20 1
     4    1   21 1
     5    2    3 1
     6    2   12 1
     7    2   44 1
     8    3    4 1
     9    3   22 1
    10    3   23 1
    11    4    5 1
    12    4   24 1
    13    4   25 1
    14    5   10 ar
    15    5    6 ar
    16    6    7 ar
    17    6   26 1
    18    7    8 ar
    19    7   27 1
    20    8    9 ar
    21    8   28 1
    22    9   10 ar
    23    9   11 1
    24   10   29 1
    25   11   30 1
    26   11   31 1
    27   12   13 1
    28   12   32 1
    29   12   33 1
    30   13   14 1
    31   13   34 1
    32   13   35 1
    33   14   18 1
    34   14   15 1
    35   15   16 1
    36   15   36 1
    37   15   37 1
    38   16   17 1
    39   16   38 1
    40   16   39 1
    41   17   18 1
    42   17   40 1
    43   17   41 1
    44   18   42 1
    45   18   43 1
@<TRIPOS>MOLECULE
ZINC19365778
   45    46     0     0     0
SMALL
USER_CHARGES
3-[2-(methyl-(2-pyrrolidin-1-ylethyl)amino)ethyl]aniline
@<TRIPOS>ATOM
      1 C1         -1.3490    7.8493   -0.8338 C.3       1 <0>        -0.0634
      2 N1         -0.0959    7.3376   -1.4044 N.4       1 <0>        -0.3973
      3 C2         -0.0817    5.8687   -1.4115 C.3       1 <0>        -0.0041
      4 C3         -0.0636    5.3519    0.0285 C.3       1 <0>        -0.0978
      5 C4         -0.0490    3.8450    0.0213 C.ar      1 <0>        -0.0633
      6 C5          1.1558    3.1659    0.0071 C.ar      1 <0>        -0.1801
      7 C6          1.1736    1.7834    0.0004 C.ar      1 <0>        -0.0600
      8 C7         -0.0126    1.0758    0.0080 C.ar      1 <0>        -0.1889
      9 C8         -1.2243    1.7546    0.0174 C.ar      1 <0>         0.2382
     10 C9         -1.2385    3.1439    0.0293 C.ar      1 <0>        -0.2034
     11 N2         -2.4257    1.0423    0.0197 N.pl3     1 <0>        -0.8942
     12 C10         0.1248    7.8727   -2.7546 C.3       1 <0>        -0.0353
     13 C11         0.3519    9.3836   -2.6736 C.3       1 <0>        -0.0371
     14 N3          0.5726    9.9186   -4.0238 N.4       1 <0>        -0.4076
     15 C12        -0.5183    9.5075   -4.9442 C.3       1 <0>        -0.0128
     16 C13        -0.4210   10.5418   -6.0937 C.3       1 <0>        -0.1433
     17 C14        -0.0607   11.8497   -5.3523 C.3       1 <0>        -0.1461
     18 C15         0.5583   11.3975   -4.0167 C.3       1 <0>         0.0009
     19 H1         -1.3328    8.9492   -0.8407 H         1 <0>         0.1228
     20 H2         -1.4542    7.4906    0.2007 H         1 <0>         0.1411
     21 H3         -2.1984    7.4913   -1.4342 H         1 <0>         0.1280
     22 H4         -0.9810    5.4958   -1.9236 H         1 <0>         0.1347
     23 H5          0.8152    5.5132   -1.9400 H         1 <0>         0.1388
     24 H6          0.8357    5.7248    0.5406 H         1 <0>         0.0979
     25 H7         -0.9605    5.7074    0.5570 H         1 <0>         0.0952
     26 H8          2.0847    3.7168    0.0008 H         1 <0>         0.1178
     27 H9          2.1161    1.2562   -0.0110 H         1 <0>         0.1285
     28 H10         0.0021   -0.0041    0.0020 H         1 <0>         0.1270
     29 H11        -2.1790    3.6748    0.0404 H         1 <0>         0.1172
     30 H12        -3.3846    1.5812    0.0271 H         1 <0>         0.4199
     31 H13        -2.4130   -0.0576    0.0141 H         1 <0>         0.4277
     32 H14         1.0088    7.3924   -3.1994 H         1 <0>         0.1530
     33 H15        -0.7572    7.6674   -3.3791 H         1 <0>         0.1472
     34 H16        -0.5321    9.8639   -2.2288 H         1 <0>         0.1457
     35 H17         1.2339    9.5889   -2.0491 H         1 <0>         0.1536
     36 H18        -0.3395    8.4780   -5.2881 H         1 <0>         0.1349
     37 H19        -1.4817    9.5553   -4.4154 H         1 <0>         0.1319
     38 H20         0.3589   10.2288   -6.8035 H         1 <0>         0.1041
     39 H21        -1.3878   10.6030   -6.6147 H         1 <0>         0.1222
     40 H22         0.6552   12.4276   -5.9552 H         1 <0>         0.1143
     41 H23        -0.9722   12.4451   -5.1950 H         1 <0>         0.1102
     42 H24        -0.0448   11.7543   -3.1688 H         1 <0>         0.1323
     43 H25         1.5873   11.7737   -3.9187 H         1 <0>         0.1404
     44 H26         1.5487    9.5264   -4.3454 H         1 <0>         0.4584
     45 H27         0.7312    7.6805   -0.7654 H         1 <0>         0.4508
@<TRIPOS>BOND
     1    1    2 1
     2    1   19 1
     3    1   20 1
     4    1   21 1
     5    2    3 1
     6    2   12 1
     7    2   45 1
     8    3    4 1
     9    3   22 1
    10    3   23 1
    11    4    5 1
    12    4   24 1
    13    4   25 1
    14    5   10 ar
    15    5    6 ar
    16    6    7 ar
    17    6   26 1
    18    7    8 ar
    19    7   27 1
    20    8    9 ar
    21    8   28 1
    22    9   10 ar
    23    9   11 1
    24   10   29 1
    25   11   30 1
    26   11   31 1
    27   12   13 1
    28   12   32 1
    29   12   33 1
    30   13   14 1
    31   13   34 1
    32   13   35 1
    33   14   18 1
    34   14   15 1
    35   14   44 1
    36   15   16 1
    37   15   36 1
    38   15   37 1
    39   16   17 1
    40   16   38 1
    41   16   39 1
    42   17   18 1
    43   17   40 1
    44   17   41 1
    45   18   42 1
    46   18   43 1
@<TRIPOS>MOLECULE
ZINC01612418
   33    36     0     0     0
SMALL
USER_CHARGES
methylBLAH
@<TRIPOS>ATOM
      1 C1         -2.5027    3.3136    1.6180 C.3       1 <0>        -0.0440
      2 C2         -1.8993    2.5276   -0.6061 C.3       1 <0>         0.0429
      3 H1         -2.0348    3.4213   -1.2152 H         1 <0>         0.1589
      4 C3         -0.8074    1.6210   -1.2018 C.3       1 <0>        -0.1450
      5 C4         -0.0127    1.0858    0.0080 C.3       1 <0>        -0.1397
      6 C5         -0.7891    1.6112    1.2463 C.3       1 <0>         0.1198
      7 H2         -0.1686    1.7375    2.1335 H         1 <0>         0.1655
      8 C6         -1.9539    0.6566    1.4232 C.2       1 <0>        -0.2170
      9 C7         -2.1455   -0.4241    2.3559 C.ar      1 <0>        -0.0829
     10 C8         -1.3609   -0.9482    3.3884 C.ar      1 <0>        -0.0761
     11 C9         -1.8780   -2.0118    4.0851 C.ar      1 <0>        -0.1277
     12 C10        -3.1191   -2.5519    3.7903 C.ar      1 <0>        -0.0875
     13 C11        -3.9182   -2.0537    2.7761 C.ar      1 <0>        -0.1202
     14 C12        -3.4204   -0.9730    2.0519 C.ar      1 <0>         0.0977
     15 N1         -3.9378   -0.2542    1.0106 N.pl3     1 <0>        -0.5634
     16 H3         -4.8010   -0.4127    0.5975 H         1 <0>         0.4257
     17 C13        -3.0558    0.7217    0.6396 C.2       1 <0>         0.0763
     18 C14        -3.2140    1.7522   -0.4611 C.3       1 <0>        -0.0781
     19 H4         -3.2293    2.5065    1.7115 H         1 <0>         0.1238
     20 H5         -2.1102    3.5651    2.6033 H         1 <0>         0.1238
     21 H6         -2.9861    4.1894    1.1851 H         1 <0>         0.1230
     22 H7         -0.1544    2.1974   -1.8571 H         1 <0>         0.1050
     23 H8         -1.2605    0.7954   -1.7507 H         1 <0>         0.1068
     24 H9          0.0021   -0.0041    0.0020 H         1 <0>         0.1119
     25 H10         1.0036    1.4797    0.0004 H         1 <0>         0.0997
     26 H11        -0.3921   -0.5346    3.6268 H         1 <0>         0.1332
     27 H12        -1.2988   -2.4411    4.8892 H         1 <0>         0.1284
     28 H13        -3.4752   -3.3896    4.3716 H         1 <0>         0.1319
     29 H14        -4.8845   -2.4832    2.5563 H         1 <0>         0.1362
     30 H15        -4.0173    2.4414   -0.2006 H         1 <0>         0.1092
     31 H16        -3.4493    1.2537   -1.4014 H         1 <0>         0.1231
     32 N2         -1.3863    2.8455    0.7289 N.4       1 <0>        -0.3936
     33 H17        -0.6728    3.5813    0.6667 H         1 <0>         0.4323
@<TRIPOS>BOND
     1    1   19 1
     2    1   20 1
     3    1   21 1
     4    1   32 1
     5    2    3 1
     6    2   18 1
     7    2    4 1
     8    2   32 1
     9    4    5 1
    10    4   22 1
    11    4   23 1
    12    5    6 1
    13    5   24 1
    14    5   25 1
    15    6    7 1
    16    6    8 1
    17    6   32 1
    18    8   17 2
    19    8    9 1
    20    9   14 ar
    21    9   10 ar
    22   10   11 ar
    23   10   26 1
    24   11   12 ar
    25   11   27 1
    26   12   13 ar
    27   12   28 1
    28   13   14 ar
    29   13   29 1
    30   14   15 1
    31   15   16 1
    32   15   17 1
    33   17   18 1
    34   18   30 1
    35   18   31 1
    36   32   33 1
@<TRIPOS>MOLECULE
ZINC22938413
   46    47     0     0     0
SMALL
USER_CHARGES

@<TRIPOS>ATOM
      1 C1         -0.0178    1.4648    0.0101 C.3       1 <0>         0.0073
      2 N1          0.0021   -0.0041    0.0020 N.3       1 <0>        -0.5349
      3 C2          0.7062   -0.5275    1.1802 C.3       1 <0>         0.0607
      4 C3          2.1851   -0.1430    1.1032 C.3       1 <0>        -0.0696
      5 C4          2.9074   -0.6800    2.3119 C.ar      1 <0>        -0.1319
      6 C5          3.0000    0.0878    3.4581 C.ar      1 <0>        -0.0750
      7 C6          3.6619   -0.4020    4.5673 C.ar      1 <0>        -0.1498
      8 C7          4.2337   -1.6655    4.5306 C.ar      1 <0>         0.1315
      9 C8          4.1390   -2.4340    3.3794 C.ar      1 <0>        -0.2065
     10 C9          3.4715   -1.9417    2.2747 C.ar      1 <0>        -0.0728
     11 O1          4.8859   -2.1494    5.6203 O.3       1 <0>        -0.3161
     12 C10         5.4499   -3.4578    5.5108 C.3       1 <0>         0.0256
     13 C11        -1.3597   -0.5486   -0.0825 C.3       1 <0>         0.0280
     14 C12        -1.9710   -0.1854   -1.4372 C.3       1 <0>        -0.0055
     15 N2         -3.3327   -0.7299   -1.5217 N.4       1 <0>        -0.3931
     16 C13        -4.2294   -0.0157   -0.5771 C.3       1 <0>        -0.0080
     17 C14        -5.6402   -0.2749   -1.1630 C.3       1 <0>        -0.1455
     18 C15        -5.3979   -0.2116   -2.6885 C.3       1 <0>        -0.1454
     19 C16        -3.8945   -0.4919   -2.8690 C.3       1 <0>        -0.0067
     20 H1          1.0047    1.8421    0.0024 H         1 <0>         0.0870
     21 H2         -0.5450    1.8259   -0.8730 H         1 <0>         0.0680
     22 H3         -0.5280    1.8163    0.9069 H         1 <0>         0.0367
     23 H4          0.2673   -0.1040    2.0837 H         1 <0>         0.0451
     24 H5          0.6139   -1.6133    1.2060 H         1 <0>         0.0812
     25 H6          2.6240   -0.5665    0.1998 H         1 <0>         0.0820
     26 H7          2.2773    0.9428    1.0774 H         1 <0>         0.0742
     27 H8          2.5547    1.0713    3.4861 H         1 <0>         0.1269
     28 H9          3.7346    0.1983    5.4621 H         1 <0>         0.1328
     29 H10         4.5834   -3.4179    3.3484 H         1 <0>         0.1302
     30 H11         3.3937   -2.5414    1.3798 H         1 <0>         0.1245
     31 H12         4.6594   -4.1777    5.2990 H         1 <0>         0.0564
     32 H13         6.1805   -3.4720    4.7020 H         1 <0>         0.0577
     33 H14         5.9401   -3.7217    6.4479 H         1 <0>         0.1043
     34 H15        -1.3244   -1.6331    0.0212 H         1 <0>         0.0955
     35 H16        -1.9698   -0.1268    0.7163 H         1 <0>         0.0561
     36 H17        -2.0063    0.8991   -1.5409 H         1 <0>         0.1289
     37 H18        -1.3609   -0.6071   -2.2359 H         1 <0>         0.1390
     38 H19        -4.1459   -0.4362    0.4250 H         1 <0>         0.1337
     39 H20        -4.0069    1.0513   -0.5676 H         1 <0>         0.1324
     40 H21        -6.0042   -1.2598   -0.8707 H         1 <0>         0.0984
     41 H22        -6.3365    0.5033   -0.8504 H         1 <0>         0.1165
     42 H23        -5.9885   -0.9736   -3.1973 H         1 <0>         0.1057
     43 H24        -5.6467    0.7785   -3.0704 H         1 <0>         0.1038
     44 H25        -3.4086    0.3697   -3.3270 H         1 <0>         0.1307
     45 H26        -3.7536   -1.3755   -3.4915 H         1 <0>         0.1331
     46 H27        -3.3262   -1.7179   -1.3170 H         1 <0>         0.4269
@<TRIPOS>BOND
     1    1    2 1
     2    1   20 1
     3    1   21 1
     4    1   22 1
     5    2    3 1
     6    2   13 1
     7    3    4 1
     8    3   23 1
     9    3   24 1
    10    4    5 1
    11    4   25 1
    12    4   26 1
    13    5   10 ar
    14    5    6 ar
    15    6    7 ar
    16    6   27 1
    17    7    8 ar
    18    7   28 1
    19    8    9 ar
    20    8   11 1
    21    9   10 ar
    22    9   29 1
    23   10   30 1
    24   11   12 1
    25   12   31 1
    26   12   32 1
    27   12   33 1
    28   13   14 1
    29   13   34 1
    30   13   35 1
    31   14   15 1
    32   14   36 1
    33   14   37 1
    34   15   19 1
    35   15   16 1
    36   15   46 1
    37   16   17 1
    38   16   38 1
    39   16   39 1
    40   17   18 1
    41   17   40 1
    42   17   41 1
    43   18   19 1
    44   18   42 1
    45   18   43 1
    46   19   44 1
    47   19   45 1
@<TRIPOS>MOLECULE
ZINC22938413
   46    47     0     0     0
SMALL
USER_CHARGES
2-(4-methoxyphenyl)-N-methyl-N-(2-pyrrolidin-1-ylethyl)ethanamine
@<TRIPOS>ATOM
      1 C1          2.4992   -4.6732   -0.9316 C.3       1 <0>        -0.0559
      2 N1          1.2345   -4.1587   -1.4735 N.4       1 <0>        -0.3992
      3 C2          1.2174   -2.6898   -1.4659 C.3       1 <0>        -0.0038
      4 C3          1.2256   -2.1871   -0.0209 C.3       1 <0>        -0.0933
      5 C4          1.2080   -0.6802   -0.0131 C.ar      1 <0>        -0.1502
      6 C5          0.0021   -0.0041    0.0020 C.ar      1 <0>        -0.0671
      7 C6         -0.0167    1.3772    0.0096 C.ar      1 <0>        -0.1493
      8 C7          1.1759    2.0860    0.0020 C.ar      1 <0>         0.1466
      9 C8          2.3846    1.4052   -0.0127 C.ar      1 <0>        -0.2071
     10 C9          2.3980    0.0239   -0.0207 C.ar      1 <0>        -0.0666
     11 O1          1.1601    3.4449    0.0090 O.3       1 <0>        -0.3118
     12 C10         2.4257    4.1084    0.0005 C.3       1 <0>         0.0200
     13 C11         0.9893   -4.6810   -2.8244 C.3       1 <0>        -0.0101
     14 C12         0.7667   -6.1931   -2.7539 C.3       1 <0>         0.0188
     15 N2          0.5215   -6.7155   -4.1048 N.3       1 <0>        -0.5123
     16 C13         1.5941   -6.2932   -5.0415 C.3       1 <0>         0.0206
     17 C14         1.4770   -7.3165   -6.1990 C.3       1 <0>        -0.1244
     18 C15         1.1333   -8.6323   -5.4638 C.3       1 <0>        -0.1318
     19 C16         0.5387   -8.1944   -4.1124 C.3       1 <0>         0.0387
     20 H1          2.4851   -5.7730   -0.9489 H         1 <0>         0.1235
     21 H2          2.6231   -4.3244    0.1042 H         1 <0>         0.1280
     22 H3          3.3364   -4.3075   -1.5443 H         1 <0>         0.1194
     23 H4          2.1061   -2.3101   -1.9913 H         1 <0>         0.1276
     24 H5          0.3100   -2.3310   -1.9738 H         1 <0>         0.1335
     25 H6          0.3369   -2.5669    0.5045 H         1 <0>         0.0953
     26 H7          2.1330   -2.5458    0.4870 H         1 <0>         0.0930
     27 H8         -0.9260   -0.5563    0.0083 H         1 <0>         0.1318
     28 H9         -0.9589    1.9049    0.0169 H         1 <0>         0.1379
     29 H10         3.3144    1.9547   -0.0186 H         1 <0>         0.1345
     30 H11         3.3387   -0.5065   -0.0325 H         1 <0>         0.1256
     31 H12         2.2689    5.1972    0.0075 H         1 <0>         0.1097
     32 H13         2.9828    3.8239   -0.9044 H         1 <0>         0.0599
     33 H14         2.9996    3.8149    0.8919 H         1 <0>         0.0608
     34 H15         0.0961   -4.1982   -3.2476 H         1 <0>         0.1411
     35 H16         1.8589   -4.4678   -3.4634 H         1 <0>         0.1266
     36 H17         1.6599   -6.6758   -2.3306 H         1 <0>         0.0577
     37 H18        -0.1029   -6.4063   -2.1149 H         1 <0>         0.0995
     38 H19         1.4069   -5.2608   -5.3718 H         1 <0>         0.0844
     39 H20         2.5674   -6.3442   -4.5315 H         1 <0>         0.0461
     40 H21         0.6832   -6.9982   -6.8908 H         1 <0>         0.0815
     41 H22         2.4339   -7.3706   -6.7388 H         1 <0>         0.0791
     42 H23         0.4073   -9.2058   -6.0587 H         1 <0>         0.0825
     43 H24         2.0487   -9.2272   -5.3295 H         1 <0>         0.0743
     44 H25         1.1584   -8.5581   -3.2795 H         1 <0>         0.0509
     45 H26        -0.4876   -8.5736   -3.9987 H         1 <0>         0.0904
     46 H27         0.4202   -4.5097   -0.8225 H         1 <0>         0.4440
@<TRIPOS>BOND
     1    1    2 1
     2    1   20 1
     3    1   21 1
     4    1   22 1
     5    2    3 1
     6    2   13 1
     7    2   46 1
     8    3    4 1
     9    3   23 1
    10    3   24 1
    11    4    5 1
    12    4   25 1
    13    4   26 1
    14    5   10 ar
    15    5    6 ar
    16    6    7 ar
    17    6   27 1
    18    7    8 ar
    19    7   28 1
    20    8    9 ar
    21    8   11 1
    22    9   10 ar
    23    9   29 1
    24   10   30 1
    25   11   12 1
    26   12   31 1
    27   12   32 1
    28   12   33 1
    29   13   14 1
    30   13   34 1
    31   13   35 1
    32   14   15 1
    33   14   36 1
    34   14   37 1
    35   15   19 1
    36   15   16 1
    37   16   17 1
    38   16   38 1
    39   16   39 1
    40   17   18 1
    41   17   40 1
    42   17   41 1
    43   18   19 1
    44   18   42 1
    45   18   43 1
    46   19   44 1
    47   19   45 1
@<TRIPOS>MOLECULE
ZINC13758075
   44    45     0     0     0
SMALL
USER_CHARGES
N-methyl-2-(4-nitrophenyl)-N-(2-pyrrolidin-1-ylethyl)ethanamine
@<TRIPOS>ATOM
      1 C1          2.5072   -4.6697   -0.9306 C.3       1 <0>         0.0036
      2 N1          1.2414   -4.1577   -1.4724 N.3       1 <0>        -0.5333
      3 C2          1.2214   -2.6889   -1.4653 C.3       1 <0>         0.0591
      4 C3          1.2289   -2.1857   -0.0205 C.3       1 <0>        -0.0866
      5 C4          1.2084   -0.6789   -0.0132 C.ar      1 <0>        -0.0386
      6 C5          0.0021   -0.0041    0.0020 C.ar      1 <0>        -0.1134
      7 C6         -0.0167    1.3781    0.0096 C.ar      1 <0>        -0.0504
      8 C7          1.1709    2.0855    0.0021 C.ar      1 <0>        -0.0429
      9 C8          2.3773    1.4107   -0.0145 C.ar      1 <0>        -0.0504
     10 C9          2.3960    0.0285   -0.0212 C.ar      1 <0>        -0.1153
     11 N2          1.1509    3.5656    0.0098 N.pl3     1 <0>         0.0224
     12 O1          0.0879    4.1601    0.0228 O.2       1 <0>        -0.1522
     13 O2          2.1973    4.1889    0.0031 O.3       1 <0>        -0.1527
     14 C10         0.9969   -4.6810   -2.8231 C.3       1 <0>         0.0263
     15 C11         0.7772   -6.1935   -2.7521 C.3       1 <0>        -0.0102
     16 N3          0.5328   -6.7168   -4.1028 N.4       1 <0>        -0.4097
     17 C12         1.6044   -6.2927   -5.0399 C.3       1 <0>        -0.0052
     18 C13         1.4890   -7.3166   -6.1970 C.3       1 <0>        -0.1437
     19 C14         1.1480   -8.6328   -5.4613 C.3       1 <0>        -0.1432
     20 C15         0.5529   -8.1956   -4.1100 C.3       1 <0>         0.0013
     21 H1          2.4951   -5.7695   -0.9476 H         1 <0>         0.0712
     22 H2          2.6307   -4.3203    0.1051 H         1 <0>         0.0879
     23 H3          3.3436   -4.3026   -1.5436 H         1 <0>         0.0379
     24 H4          2.1092   -2.3076   -1.9910 H         1 <0>         0.0480
     25 H5          0.3132   -2.3321   -1.9731 H         1 <0>         0.0858
     26 H6          0.3411   -2.5670    0.5052 H         1 <0>         0.0956
     27 H7          2.1371   -2.5425    0.4873 H         1 <0>         0.0863
     28 H8         -0.9258   -0.5567    0.0083 H         1 <0>         0.1480
     29 H9         -0.9592    1.9054    0.0170 H         1 <0>         0.1568
     30 H10         3.3051    1.9634   -0.0205 H         1 <0>         0.1564
     31 H11         3.3385   -0.4987   -0.0324 H         1 <0>         0.1455
     32 H12         0.1027   -4.2001   -3.2463 H         1 <0>         0.0975
     33 H13         1.8659   -4.4663   -3.4624 H         1 <0>         0.0579
     34 H14         1.6714   -6.6744   -2.3288 H         1 <0>         0.1253
     35 H15        -0.0919   -6.4082   -2.1129 H         1 <0>         0.1410
     36 H16         1.4151   -5.2608   -5.3705 H         1 <0>         0.1308
     37 H17         2.5779   -6.3416   -4.5301 H         1 <0>         0.1273
     38 H18         0.6945   -7.0001   -6.8888 H         1 <0>         0.0986
     39 H19         2.4459   -7.3690   -6.7370 H         1 <0>         0.1150
     40 H20         0.4229   -9.2079   -6.0559 H         1 <0>         0.1071
     41 H21         2.0646   -9.2259   -5.3271 H         1 <0>         0.1043
     42 H22         1.1735   -8.5579   -3.2772 H         1 <0>         0.1281
     43 H23        -0.4726   -8.5768   -3.9960 H         1 <0>         0.1329
     44 H24        -0.4508   -6.3256   -4.4020 H         1 <0>         0.4504
@<TRIPOS>BOND
     1    1    2 1
     2    1   21 1
     3    1   22 1
     4    1   23 1
     5    2    3 1
     6    2   14 1
     7    3    4 1
     8    3   24 1
     9    3   25 1
    10    4    5 1
    11    4   26 1
    12    4   27 1
    13    5   10 ar
    14    5    6 ar
    15    6    7 ar
    16    6   28 1
    17    7    8 ar
    18    7   29 1
    19    8    9 ar
    20    8   11 1
    21    9   10 ar
    22    9   30 1
    23   10   31 1
    24   11   12 2
    25   11   13 1
    26   14   15 1
    27   14   32 1
    28   14   33 1
    29   15   16 1
    30   15   34 1
    31   15   35 1
    32   16   20 1
    33   16   17 1
    34   16   44 1
    35   17   18 1
    36   17   36 1
    37   17   37 1
    38   18   19 1
    39   18   38 1
    40   18   39 1
    41   19   20 1
    42   19   40 1
    43   19   41 1
    44   20   42 1
    45   20   43 1
@<TRIPOS>MOLECULE
ZINC13758075
   44    45     0     0     0
SMALL
USER_CHARGES
N-methyl-2-(4-nitrophenyl)-N-(2-pyrrolidin-1-ylethyl)ethanamine
@<TRIPOS>ATOM
      1 C1          2.5072   -4.6697   -0.9306 C.3       1 <0>        -0.0577
      2 N1          1.2414   -4.1577   -1.4724 N.4       1 <0>        -0.3989
      3 C2          1.2214   -2.6889   -1.4653 C.3       1 <0>        -0.0039
      4 C3          1.2289   -2.1857   -0.0205 C.3       1 <0>        -0.1094
      5 C4          1.2084   -0.6789   -0.0132 C.ar      1 <0>        -0.0563
      6 C5          0.0021   -0.0041    0.0020 C.ar      1 <0>        -0.1074
      7 C6         -0.0167    1.3781    0.0096 C.ar      1 <0>        -0.0493
      8 C7          1.1709    2.0855    0.0021 C.ar      1 <0>        -0.0298
      9 C8          2.3773    1.4107   -0.0145 C.ar      1 <0>        -0.0497
     10 C9          2.3960    0.0285   -0.0212 C.ar      1 <0>        -0.1082
     11 N2          1.1509    3.5656    0.0098 N.pl3     1 <0>         0.0170
     12 O1          0.0879    4.1601    0.0228 O.2       1 <0>        -0.1438
     13 O2          2.1973    4.1889    0.0031 O.3       1 <0>        -0.1444
     14 C10         0.9969   -4.6810   -2.8231 C.3       1 <0>        -0.0105
     15 C11         0.7772   -6.1935   -2.7521 C.3       1 <0>         0.0187
     16 N3          0.5328   -6.7168   -4.1028 N.3       1 <0>        -0.5123
     17 C12         1.6044   -6.2927   -5.0399 C.3       1 <0>         0.0205
     18 C13         1.4890   -7.3166   -6.1970 C.3       1 <0>        -0.1245
     19 C14         1.1480   -8.6328   -5.4613 C.3       1 <0>        -0.1321
     20 C15         0.5529   -8.1956   -4.1100 C.3       1 <0>         0.0388
     21 H1          2.4951   -5.7695   -0.9476 H         1 <0>         0.1261
     22 H2          2.6307   -4.3203    0.1051 H         1 <0>         0.1282
     23 H3          3.3436   -4.3026   -1.5436 H         1 <0>         0.1213
     24 H4          2.1092   -2.3076   -1.9910 H         1 <0>         0.1317
     25 H5          0.3132   -2.3321   -1.9731 H         1 <0>         0.1367
     26 H6          0.3411   -2.5670    0.5052 H         1 <0>         0.1070
     27 H7          2.1371   -2.5425    0.4873 H         1 <0>         0.1052
     28 H8         -0.9258   -0.5567    0.0083 H         1 <0>         0.1506
     29 H9         -0.9592    1.9054    0.0170 H         1 <0>         0.1613
     30 H10         3.3051    1.9634   -0.0205 H         1 <0>         0.1609
     31 H11         3.3385   -0.4987   -0.0324 H         1 <0>         0.1490
     32 H12         0.1027   -4.2001   -3.2463 H         1 <0>         0.1420
     33 H13         1.8659   -4.4663   -3.4624 H         1 <0>         0.1281
     34 H14         1.6714   -6.6744   -2.3288 H         1 <0>         0.0583
     35 H15        -0.0919   -6.4082   -2.1129 H         1 <0>         0.0998
     36 H16         1.4151   -5.2608   -5.3705 H         1 <0>         0.0842
     37 H17         2.5779   -6.3416   -4.5301 H         1 <0>         0.0462
     38 H18         0.6945   -7.0001   -6.8888 H         1 <0>         0.0818
     39 H19         2.4459   -7.3690   -6.7370 H         1 <0>         0.0796
     40 H20         0.4229   -9.2079   -6.0559 H         1 <0>         0.0830
     41 H21         2.0646   -9.2259   -5.3271 H         1 <0>         0.0747
     42 H22         1.1735   -8.5579   -3.2772 H         1 <0>         0.0512
     43 H23        -0.4726   -8.5768   -3.9960 H         1 <0>         0.0908
     44 H24         0.4280   -4.5099   -0.8210 H         1 <0>         0.4454
@<TRIPOS>BOND
     1    1    2 1
     2    1   21 1
     3    1   22 1
     4    1   23 1
     5    2    3 1
     6    2   14 1
     7    2   44 1
     8    3    4 1
     9    3   24 1
    10    3   25 1
    11    4    5 1
    12    4   26 1
    13    4   27 1
    14    5   10 ar
    15    5    6 ar
    16    6    7 ar
    17    6   28 1
    18    7    8 ar
    19    7   29 1
    20    8    9 ar
    21    8   11 1
    22    9   10 ar
    23    9   30 1
    24   10   31 1
    25   11   12 2
    26   11   13 1
    27   14   15 1
    28   14   32 1
    29   14   33 1
    30   15   16 1
    31   15   34 1
    32   15   35 1
    33   16   20 1
    34   16   17 1
    35   17   18 1
    36   17   36 1
    37   17   37 1
    38   18   19 1
    39   18   38 1
    40   18   39 1
    41   19   20 1
    42   19   40 1
    43   19   41 1
    44   20   42 1
    45   20   43 1
@<TRIPOS>MOLECULE
ZINC19365773
   44    45     0     0     0
SMALL
USER_CHARGES
4-[2-(methyl-(2-pyrrolidin-1-ylethyl)amino)ethyl]aniline
@<TRIPOS>ATOM
      1 C1          2.4966   -4.6743   -0.9326 C.3       1 <0>         0.0061
      2 N1          1.2324   -4.1587   -1.4746 N.3       1 <0>        -0.5346
      3 C2          1.2163   -2.6898   -1.4666 C.3       1 <0>         0.0604
      4 C3          1.2245   -2.1876   -0.0214 C.3       1 <0>        -0.0656
      5 C4          1.2080   -0.6807   -0.0131 C.ar      1 <0>        -0.1610
      6 C5          0.0021   -0.0041    0.0020 C.ar      1 <0>        -0.0611
      7 C6         -0.0167    1.3768    0.0096 C.ar      1 <0>        -0.2051
      8 C7          1.1777    2.0861    0.0020 C.ar      1 <0>         0.2316
      9 C8          2.3873    1.4033   -0.0123 C.ar      1 <0>        -0.2052
     10 C9          2.3988    0.0223   -0.0203 C.ar      1 <0>        -0.0628
     11 N2          1.1624    3.4827    0.0097 N.pl3     1 <0>        -0.8985
     12 C10         0.9871   -4.6805   -2.8258 C.3       1 <0>         0.0265
     13 C11         0.7634   -6.1924   -2.7558 C.3       1 <0>        -0.0102
     14 N3          0.5182   -6.7142   -4.1069 N.4       1 <0>        -0.4095
     15 C12         1.5912   -6.2923   -5.0433 C.3       1 <0>        -0.0051
     16 C13         1.4737   -7.3151   -6.2012 C.3       1 <0>        -0.1436
     17 C14         1.1289   -8.6309   -5.4664 C.3       1 <0>        -0.1430
     18 C15         0.5344   -8.1931   -4.1150 C.3       1 <0>         0.0012
     19 H1          2.4817   -5.7741   -0.9503 H         1 <0>         0.0675
     20 H2          2.6206   -4.3259    0.1034 H         1 <0>         0.0878
     21 H3          3.3342   -4.3091   -1.5450 H         1 <0>         0.0354
     22 H4          2.1054   -2.3105   -1.9917 H         1 <0>         0.0430
     23 H5          0.3093   -2.3303   -1.9746 H         1 <0>         0.0808
     24 H6          0.3354   -2.5669    0.5036 H         1 <0>         0.0786
     25 H7          2.1315   -2.5472    0.4866 H         1 <0>         0.0698
     26 H8         -0.9261   -0.5561    0.0083 H         1 <0>         0.1183
     27 H9         -0.9588    1.9047    0.0170 H         1 <0>         0.1190
     28 H10         3.3177    1.9517   -0.0179 H         1 <0>         0.1186
     29 H11         3.3389   -0.5092   -0.0317 H         1 <0>         0.1158
     30 H12         2.1089    4.0431    0.0037 H         1 <0>         0.4186
     31 H13         0.2038    4.0222    0.0218 H         1 <0>         0.4187
     32 H14         0.0944   -4.1969   -3.2491 H         1 <0>         0.0959
     33 H15         1.8570   -4.4677   -3.4646 H         1 <0>         0.0555
     34 H16         1.6561   -6.6759   -2.3324 H         1 <0>         0.1246
     35 H17        -0.1065   -6.4052   -2.1171 H         1 <0>         0.1403
     36 H18         1.4047   -5.2597   -5.3733 H         1 <0>         0.1310
     37 H19         2.5644   -6.3441   -4.5331 H         1 <0>         0.1273
     38 H20         0.6803   -6.9961   -6.8931 H         1 <0>         0.0982
     39 H21         2.4307   -7.3697   -6.7408 H         1 <0>         0.1144
     40 H22         0.4025   -9.2037   -6.0616 H         1 <0>         0.1064
     41 H23         2.0439   -9.2265   -5.3322 H         1 <0>         0.1039
     42 H24         1.1537   -8.5576   -3.2821 H         1 <0>         0.1278
     43 H25        -0.4922   -8.5717   -4.0016 H         1 <0>         0.1324
     44 H26        -0.4642   -6.3202   -4.4062 H         1 <0>         0.4501
@<TRIPOS>BOND
     1    1    2 1
     2    1   19 1
     3    1   20 1
     4    1   21 1
     5    2    3 1
     6    2   12 1
     7    3    4 1
     8    3   22 1
     9    3   23 1
    10    4    5 1
    11    4   24 1
    12    4   25 1
    13    5   10 ar
    14    5    6 ar
    15    6    7 ar
    16    6   26 1
    17    7    8 ar
    18    7   27 1
    19    8    9 ar
    20    8   11 1
    21    9   10 ar
    22    9   28 1
    23   10   29 1
    24   11   30 1
    25   11   31 1
    26   12   13 1
    27   12   32 1
    28   12   33 1
    29   13   14 1
    30   13   34 1
    31   13   35 1
    32   14   18 1
    33   14   15 1
    34   14   44 1
    35   15   16 1
    36   15   36 1
    37   15   37 1
    38   16   17 1
    39   16   38 1
    40   16   39 1
    41   17   18 1
    42   17   40 1
    43   17   41 1
    44   18   42 1
    45   18   43 1
@<TRIPOS>MOLECULE
ZINC19365773
   44    45     0     0     0
SMALL
USER_CHARGES
4-[2-(methyl-(2-pyrrolidin-1-ylethyl)amino)ethyl]aniline
@<TRIPOS>ATOM
      1 C1          2.4966   -4.6743   -0.9326 C.3       1 <0>        -0.0552
      2 N1          1.2324   -4.1587   -1.4746 N.4       1 <0>        -0.3995
      3 C2          1.2163   -2.6898   -1.4666 C.3       1 <0>        -0.0036
      4 C3          1.2245   -2.1876   -0.0214 C.3       1 <0>        -0.0873
      5 C4          1.2080   -0.6807   -0.0131 C.ar      1 <0>        -0.1815
      6 C5          0.0021   -0.0041    0.0020 C.ar      1 <0>        -0.0541
      7 C6         -0.0167    1.3768    0.0096 C.ar      1 <0>        -0.2051
      8 C7          1.1777    2.0861    0.0020 C.ar      1 <0>         0.2453
      9 C8          2.3873    1.4033   -0.0123 C.ar      1 <0>        -0.2055
     10 C9          2.3988    0.0223   -0.0203 C.ar      1 <0>        -0.0546
     11 N2          1.1624    3.4827    0.0097 N.pl3     1 <0>        -0.8930
     12 C10         0.9871   -4.6805   -2.8258 C.3       1 <0>        -0.0099
     13 C11         0.7634   -6.1924   -2.7558 C.3       1 <0>         0.0188
     14 N3          0.5182   -6.7142   -4.1069 N.3       1 <0>        -0.5125
     15 C12         1.5912   -6.2923   -5.0433 C.3       1 <0>         0.0207
     16 C13         1.4737   -7.3151   -6.2012 C.3       1 <0>        -0.1244
     17 C14         1.1289   -8.6309   -5.4664 C.3       1 <0>        -0.1318
     18 C15         0.5344   -8.1931   -4.1150 C.3       1 <0>         0.0386
     19 H1          2.4817   -5.7741   -0.9503 H         1 <0>         0.1224
     20 H2          2.6206   -4.3259    0.1034 H         1 <0>         0.1281
     21 H3          3.3342   -4.3091   -1.5450 H         1 <0>         0.1190
     22 H4          2.1054   -2.3105   -1.9917 H         1 <0>         0.1265
     23 H5          0.3093   -2.3303   -1.9746 H         1 <0>         0.1315
     24 H6          0.3354   -2.5669    0.5036 H         1 <0>         0.0902
     25 H7          2.1315   -2.5472    0.4866 H         1 <0>         0.0889
     26 H8         -0.9261   -0.5561    0.0083 H         1 <0>         0.1208
     27 H9         -0.9588    1.9047    0.0170 H         1 <0>         0.1236
     28 H10         3.3177    1.9517   -0.0179 H         1 <0>         0.1232
     29 H11         3.3389   -0.5092   -0.0317 H         1 <0>         0.1192
     30 H12         2.1089    4.0431    0.0037 H         1 <0>         0.4230
     31 H13         0.2038    4.0222    0.0218 H         1 <0>         0.4232
     32 H14         0.0944   -4.1969   -3.2491 H         1 <0>         0.1404
     33 H15         1.8570   -4.4677   -3.4646 H         1 <0>         0.1262
     34 H16         1.6561   -6.6759   -2.3324 H         1 <0>         0.0576
     35 H17        -0.1065   -6.4052   -2.1171 H         1 <0>         0.0992
     36 H18         1.4047   -5.2597   -5.3733 H         1 <0>         0.0845
     37 H19         2.5644   -6.3441   -4.5331 H         1 <0>         0.0462
     38 H20         0.6803   -6.9961   -6.8931 H         1 <0>         0.0814
     39 H21         2.4307   -7.3697   -6.7408 H         1 <0>         0.0790
     40 H22         0.4025   -9.2037   -6.0616 H         1 <0>         0.0823
     41 H23         2.0439   -9.2265   -5.3322 H         1 <0>         0.0742
     42 H24         1.1537   -8.5576   -3.2821 H         1 <0>         0.0508
     43 H25        -0.4922   -8.5717   -4.0016 H         1 <0>         0.0902
     44 H26         0.4178   -4.5092   -0.8238 H         1 <0>         0.4432
@<TRIPOS>BOND
     1    1    2 1
     2    1   19 1
     3    1   20 1
     4    1   21 1
     5    2    3 1
     6    2   12 1
     7    2   44 1
     8    3    4 1
     9    3   22 1
    10    3   23 1
    11    4    5 1
    12    4   24 1
    13    4   25 1
    14    5   10 ar
    15    5    6 ar
    16    6    7 ar
    17    6   26 1
    18    7    8 ar
    19    7   27 1
    20    8    9 ar
    21    8   11 1
    22    9   10 ar
    23    9   28 1
    24   10   29 1
    25   11   30 1
    26   11   31 1
    27   12   13 1
    28   12   32 1
    29   12   33 1
    30   13   14 1
    31   13   34 1
    32   13   35 1
    33   14   18 1
    34   14   15 1
    35   15   16 1
    36   15   36 1
    37   15   37 1
    38   16   17 1
    39   16   38 1
    40   16   39 1
    41   17   18 1
    42   17   40 1
    43   17   41 1
    44   18   42 1
    45   18   43 1
@<TRIPOS>MOLECULE
ZINC19365773
   45    46     0     0     0
SMALL
USER_CHARGES
4-[2-(methyl-(2-pyrrolidin-1-ylethyl)amino)ethyl]aniline
@<TRIPOS>ATOM
      1 C1          2.4966   -4.6743   -0.9326 C.3       1 <0>        -0.0628
      2 N1          1.2324   -4.1587   -1.4746 N.4       1 <0>        -0.3975
      3 C2          1.2163   -2.6898   -1.4666 C.3       1 <0>        -0.0066
      4 C3          1.2245   -2.1876   -0.0214 C.3       1 <0>        -0.0844
      5 C4          1.2080   -0.6807   -0.0131 C.ar      1 <0>        -0.1945
      6 C5          0.0021   -0.0041    0.0020 C.ar      1 <0>        -0.0528
      7 C6         -0.0167    1.3768    0.0096 C.ar      1 <0>        -0.2058
      8 C7          1.1777    2.0861    0.0020 C.ar      1 <0>         0.2525
      9 C8          2.3873    1.4033   -0.0123 C.ar      1 <0>        -0.2056
     10 C9          2.3988    0.0223   -0.0203 C.ar      1 <0>        -0.0524
     11 N2          1.1624    3.4827    0.0097 N.pl3     1 <0>        -0.8890
     12 C10         0.9871   -4.6805   -2.8258 C.3       1 <0>        -0.0353
     13 C11         0.7634   -6.1924   -2.7558 C.3       1 <0>        -0.0373
     14 N3          0.5182   -6.7142   -4.1069 N.4       1 <0>        -0.4076
     15 C12         1.5912   -6.2923   -5.0433 C.3       1 <0>        -0.0128
     16 C13         1.4737   -7.3151   -6.2012 C.3       1 <0>        -0.1433
     17 C14         1.1289   -8.6309   -5.4664 C.3       1 <0>        -0.1461
     18 C15         0.5344   -8.1931   -4.1150 C.3       1 <0>         0.0009
     19 H1          2.4817   -5.7741   -0.9503 H         1 <0>         0.1216
     20 H2          2.6206   -4.3259    0.1034 H         1 <0>         0.1414
     21 H3          3.3342   -4.3091   -1.5450 H         1 <0>         0.1278
     22 H4          2.1054   -2.3105   -1.9917 H         1 <0>         0.1333
     23 H5          0.3093   -2.3303   -1.9746 H         1 <0>         0.1357
     24 H6          0.3354   -2.5669    0.5036 H         1 <0>         0.0916
     25 H7          2.1315   -2.5472    0.4866 H         1 <0>         0.0911
     26 H8         -0.9261   -0.5561    0.0083 H         1 <0>         0.1193
     27 H9         -0.9588    1.9047    0.0170 H         1 <0>         0.1255
     28 H10         3.3177    1.9517   -0.0179 H         1 <0>         0.1256
     29 H11         3.3389   -0.5092   -0.0317 H         1 <0>         0.1189
     30 H12         2.1089    4.0431    0.0037 H         1 <0>         0.4266
     31 H13         0.2038    4.0222    0.0218 H         1 <0>         0.4265
     32 H14         0.0944   -4.1969   -3.2491 H         1 <0>         0.1521
     33 H15         1.8570   -4.4677   -3.4646 H         1 <0>         0.1468
     34 H16         1.6561   -6.6759   -2.3324 H         1 <0>         0.1456
     35 H17        -0.1065   -6.4052   -2.1171 H         1 <0>         0.1532
     36 H18         1.4047   -5.2597   -5.3733 H         1 <0>         0.1349
     37 H19         2.5644   -6.3441   -4.5331 H         1 <0>         0.1320
     38 H20         0.6803   -6.9961   -6.8931 H         1 <0>         0.1039
     39 H21         2.4307   -7.3697   -6.7408 H         1 <0>         0.1222
     40 H22         0.4025   -9.2037   -6.0616 H         1 <0>         0.1141
     41 H23         2.0439   -9.2265   -5.3322 H         1 <0>         0.1102
     42 H24         1.1537   -8.5576   -3.2821 H         1 <0>         0.1323
     43 H25        -0.4922   -8.5717   -4.0016 H         1 <0>         0.1403
     44 H26        -0.4642   -6.3202   -4.4062 H         1 <0>         0.4581
     45 H27         0.4178   -4.5092   -0.8238 H         1 <0>         0.4499
@<TRIPOS>BOND
     1    1    2 1
     2    1   19 1
     3    1   20 1
     4    1   21 1
     5    2    3 1
     6    2   12 1
     7    2   45 1
     8    3    4 1
     9    3   22 1
    10    3   23 1
    11    4    5 1
    12    4   24 1
    13    4   25 1
    14    5   10 ar
    15    5    6 ar
    16    6    7 ar
    17    6   26 1
    18    7    8 ar
    19    7   27 1
    20    8    9 ar
    21    8   11 1
    22    9   10 ar
    23    9   28 1
    24   10   29 1
    25   11   30 1
    26   11   31 1
    27   12   13 1
    28   12   32 1
    29   12   33 1
    30   13   14 1
    31   13   34 1
    32   13   35 1
    33   14   18 1
    34   14   15 1
    35   14   44 1
    36   15   16 1
    37   15   36 1
    38   15   37 1
    39   16   17 1
    40   16   38 1
    41   16   39 1
    42   17   18 1
    43   17   40 1
    44   17   41 1
    45   18   42 1
    46   18   43 1
@<TRIPOS>MOLECULE
ZINC06021043
   27    27     0     0     0
SMALL
USER_CHARGES
(2S)-N-methyl-1-phenyl-propan-2-amine
@<TRIPOS>ATOM
      1 C1         -0.0187    1.5258    0.0104 C.3       1 <0>        -0.1821
      2 C2          0.0021   -0.0041    0.0020 C.3       1 <0>         0.0321
      3 H1          0.5293   -0.3651    0.8851 H         1 <0>         0.1395
      4 C3         -1.4333   -0.5336    0.0129 C.3       1 <0>        -0.1020
      5 C4         -1.4136   -2.0361    0.1285 C.ar      1 <0>        -0.1265
      6 C5         -1.3855   -2.8167   -1.0120 C.ar      1 <0>        -0.1465
      7 C6         -1.3625   -4.1948   -0.9059 C.ar      1 <0>        -0.1057
      8 C7         -1.3782   -4.7924    0.3405 C.ar      1 <0>        -0.1049
      9 C8         -1.4115   -4.0118    1.4809 C.ar      1 <0>        -0.1039
     10 C9         -1.4292   -2.6337    1.3749 C.ar      1 <0>        -0.1058
     11 C10         2.1437   -0.5220   -1.0019 C.3       1 <0>        -0.0442
     12 H2          1.0039    1.9031    0.0027 H         1 <0>         0.0826
     13 H3         -0.5459    1.8868   -0.8726 H         1 <0>         0.0834
     14 H4         -0.5289    1.8773    0.9072 H         1 <0>         0.1073
     15 H5         -1.9701   -0.1109    0.8621 H         1 <0>         0.1206
     16 H6         -1.9334   -0.2470   -0.9122 H         1 <0>         0.0978
     17 H7         -1.3777   -2.3499   -1.9859 H         1 <0>         0.1223
     18 H8         -1.3368   -4.8047   -1.7969 H         1 <0>         0.1325
     19 H9         -1.3647   -5.8691    0.4233 H         1 <0>         0.1329
     20 H10        -1.4241   -4.4787    2.4547 H         1 <0>         0.1332
     21 H11        -1.4557   -2.0238    2.2658 H         1 <0>         0.1300
     22 H12         2.5073    0.4771   -0.7619 H         1 <0>         0.1237
     23 H13         2.3745   -1.1999   -0.1801 H         1 <0>         0.1219
     24 H14         2.6281   -0.8761   -1.9119 H         1 <0>         0.1252
     25 N1          0.6848   -0.4806   -1.2157 N.4       1 <0>        -0.5228
     26 H15         0.4743    0.1563   -1.9931 H         1 <0>         0.4311
     27 H16         0.3492   -1.4234   -1.4452 H         1 <0>         0.4282
@<TRIPOS>BOND
     1    1    2 1
     2    1   12 1
     3    1   13 1
     4    1   14 1
     5    2    3 1
     6    2    4 1
     7    2   25 1
     8    4    5 1
     9    4   15 1
    10    4   16 1
    11    5   10 ar
    12    5    6 ar
    13    6    7 ar
    14    6   17 1
    15    7    8 ar
    16    7   18 1
    17    8    9 ar
    18    8   19 1
    19    9   10 ar
    20    9   20 1
    21   10   21 1
    22   11   22 1
    23   11   23 1
    24   11   24 1
    25   11   25 1
    26   25   26 1
    27   25   27 1
@<TRIPOS>MOLECULE
ZINC13820946
   34    35     0     0     0
SMALL
USER_CHARGES
(2R)-N-(cyclopropylmethyl)-1-phenyl-propan-2-amine
@<TRIPOS>ATOM
      1 C1         -4.3194    0.0384    1.4672 C.3       1 <0>        -0.1819
      2 C2         -2.9450    0.7107    1.4624 C.3       1 <0>         0.0332
      3 H1         -2.9998    1.6534    2.0069 H         1 <0>         0.1393
      4 C3         -2.5137    0.9795    0.0193 C.3       1 <0>        -0.1013
      5 C4         -1.2190    1.7506    0.0173 C.ar      1 <0>        -0.1255
      6 C5         -0.0126    1.0758    0.0080 C.ar      1 <0>        -0.1466
      7 C6          1.1750    1.7832    0.0004 C.ar      1 <0>        -0.1049
      8 C7          1.1563    3.1654    0.0076 C.ar      1 <0>        -0.1050
      9 C8         -0.0501    3.8402    0.0223 C.ar      1 <0>        -0.1037
     10 C9         -1.2377    3.1328    0.0299 C.ar      1 <0>        -0.1060
     11 C10        -1.9784    0.0066    3.5678 C.3       1 <0>         0.0309
     12 C11        -0.9480   -0.9276    4.2053 C.3       1 <0>        -0.2161
     13 C12        -1.4683   -2.0175    5.1446 C.3       1 <0>        -0.1666
     14 C13        -0.7241   -0.8080    5.7141 C.3       1 <0>        -0.1493
     15 H2         -4.2646   -0.9043    0.9227 H         1 <0>         0.0838
     16 H3         -4.6267   -0.1531    2.4953 H         1 <0>         0.0820
     17 H4         -5.0461    0.6937    0.9868 H         1 <0>         0.1079
     18 H5         -3.2837    1.5610   -0.4877 H         1 <0>         0.1214
     19 H6         -2.3729    0.0317   -0.5003 H         1 <0>         0.0980
     20 H7          0.0021   -0.0041    0.0020 H         1 <0>         0.1215
     21 H8          2.1175    1.2560   -0.0115 H         1 <0>         0.1321
     22 H9          2.0841    3.7181    0.0014 H         1 <0>         0.1328
     23 H10        -0.0647    4.9201    0.0276 H         1 <0>         0.1331
     24 H11        -2.1802    3.6600    0.0410 H         1 <0>         0.1300
     25 H12        -1.7302    1.0402    3.8091 H         1 <0>         0.1312
     26 H13        -2.9701   -0.2286    3.9541 H         1 <0>         0.1308
     27 H14        -0.0838   -1.1672    3.5857 H         1 <0>         0.1244
     28 H15        -2.5447   -2.0690    5.3084 H         1 <0>         0.1065
     29 H16        -0.9465   -2.9745    5.1430 H         1 <0>         0.1104
     30 H17         0.2873   -0.9693    6.0871 H         1 <0>         0.1124
     31 H18        -1.3106   -0.0635    6.2525 H         1 <0>         0.1079
     32 N1         -1.9593   -0.1792    2.1046 N.4       1 <0>        -0.5195
     33 H19        -1.0219    0.0400    1.7475 H         1 <0>         0.4268
     34 H20        -2.1899   -1.1552    1.8841 H         1 <0>         0.4301
@<TRIPOS>BOND
     1    1    2 1
     2    1   15 1
     3    1   16 1
     4    1   17 1
     5    2    3 1
     6    2    4 1
     7    2   32 1
     8    4    5 1
     9    4   18 1
    10    4   19 1
    11    5   10 ar
    12    5    6 ar
    13    6    7 ar
    14    6   20 1
    15    7    8 ar
    16    7   21 1
    17    8    9 ar
    18    8   22 1
    19    9   10 ar
    20    9   23 1
    21   10   24 1
    22   11   12 1
    23   11   25 1
    24   11   26 1
    25   11   32 1
    26   12   14 1
    27   12   13 1
    28   12   27 1
    29   13   14 1
    30   13   28 1
    31   13   29 1
    32   14   30 1
    33   14   31 1
    34   32   33 1
    35   32   34 1
@<TRIPOS>MOLECULE
ZINC26028676
   34    35     0     0     0
SMALL
USER_CHARGES
(2S)-N-(cyclopropylmethyl)-1-phenyl-propan-2-amine
@<TRIPOS>ATOM
      1 C1         -4.2805    4.9784   -1.3777 C.3       1 <0>        -0.1830
      2 C2         -3.0112    4.1243   -1.3917 C.3       1 <0>         0.0404
      3 H1         -2.2171    4.6221   -1.9676 H         1 <0>         0.1328
      4 C3         -2.5528    3.8685    0.0455 C.3       1 <0>        -0.1018
      5 C4         -1.2377    3.1328    0.0299 C.ar      1 <0>        -0.1223
      6 C5         -1.2190    1.7507    0.0173 C.ar      1 <0>        -0.1488
      7 C6         -0.0126    1.0758    0.0080 C.ar      1 <0>        -0.1036
      8 C7          1.1750    1.7832    0.0004 C.ar      1 <0>        -0.1059
      9 C8          1.1563    3.1654    0.0076 C.ar      1 <0>        -0.1026
     10 C9         -0.0501    3.8402    0.0223 C.ar      1 <0>        -0.1069
     11 N1         -3.2909    2.8423   -2.0520 N.4       1 <0>        -0.5424
     12 C10        -3.1522    2.9597   -3.5097 C.3       1 <0>        -0.0036
     13 C11        -3.4505    1.6077   -4.1609 C.3       1 <0>        -0.2777
     14 C12        -2.3116    0.9216   -4.9180 C.3       1 <0>        -0.1069
     15 C13        -3.4739    1.5497   -5.6896 C.3       1 <0>        -0.0948
     16 H2         -4.6101    5.1623   -2.4109 H         1 <0>         0.0812
     17 H3         -4.0710    5.9384   -0.8833 H         1 <0>         0.1072
     18 H4         -5.0730    4.4485   -0.8289 H         1 <0>         0.0841
     19 H5         -2.4295    4.8289    0.5674 H         1 <0>         0.1209
     20 H6         -3.3065    3.2612    0.5682 H         1 <0>         0.0987
     21 H7         -2.1469    1.1980    0.0188 H         1 <0>         0.1222
     22 H8          0.0021   -0.0041    0.0020 H         1 <0>         0.1325
     23 H9          2.1175    1.2560   -0.0115 H         1 <0>         0.1330
     24 H10         2.0841    3.7181    0.0014 H         1 <0>         0.1331
     25 H11        -0.0647    4.9201    0.0276 H         1 <0>         0.1296
     26 H12        -2.5833    2.0816   -1.6905 H         1 <0>         0.4412
     27 H13        -3.8608    3.7122   -3.8860 H         1 <0>         0.1256
     28 H14        -2.1253    3.2671   -3.7568 H         1 <0>         0.1189
     29 H15        -4.1432    1.3098   -3.3600 H         1 <0>         0.1090
     30 H16        -1.3614    1.4248   -4.6857 H         1 <0>         0.1070
     31 H17        -2.2518   -0.1336   -4.6129 H         1 <0>         0.1135
     32 H18        -4.3750    1.0138   -6.0224 H         1 <0>         0.1169
     33 H19        -3.4846    2.5721   -6.0952 H         1 <0>         0.1106
     34 H20        -4.3188    2.5268   -1.8197 H         1 <0>         0.4417
@<TRIPOS>BOND
     1    1    2 1
     2    1   16 1
     3    1   17 1
     4    1   18 1
     5    2    3 1
     6    2    4 1
     7    2   11 1
     8    4    5 1
     9    4   19 1
    10    4   20 1
    11    5   10 ar
    12    5    6 ar
    13    6    7 ar
    14    6   21 1
    15    7    8 ar
    16    7   22 1
    17    8    9 ar
    18    8   23 1
    19    9   10 ar
    20    9   24 1
    21   10   25 1
    22   11   12 1
    23   11   26 1
    24   11   34 1
    25   12   13 1
    26   12   27 1
    27   12   28 1
    28   13   15 1
    29   13   14 1
    30   13   29 1
    31   14   15 1
    32   14   30 1
    33   14   31 1
    34   15   32 1
    35   15   33 1
@<TRIPOS>MOLECULE
ZINC04520858
   21    22     0     0     0
SMALL
USER_CHARGES
5,6,7,8-tetrahydroisoquinoline
@<TRIPOS>ATOM
      1 C1         -2.9657    1.2951    2.3370 C.ar      1 <0>        -0.1738
      2 C2         -4.3157    1.0110    2.2732 C.ar      1 <0>         0.0912
      3 N1         -4.8842    0.7091    1.1224 N.ar      1 <0>        -0.4867
      4 C3         -4.1943    0.6647    0.0015 C.ar      1 <0>         0.1004
      5 C4         -2.8340    0.9362   -0.0119 C.ar      1 <0>        -0.1298
      6 C5         -2.2068    1.2600    1.1726 C.ar      1 <0>        -0.0358
      7 C6         -0.7363    1.5828    1.2590 C.3       1 <0>        -0.0849
      8 C7         -0.0127    1.0858    0.0080 C.3       1 <0>        -0.1219
      9 C8         -0.7624    1.5977   -1.2275 C.3       1 <0>        -0.1213
     10 C9         -2.0992    0.8639   -1.3229 C.3       1 <0>        -0.0784
     11 H1         -2.5043    1.5423    3.2816 H         1 <0>         0.1342
     12 H2         -4.9110    1.0360    3.1740 H         1 <0>         0.1554
     13 H3         -4.6953    0.4129   -0.9216 H         1 <0>         0.1545
     14 H4         -0.3079    1.1016    2.1383 H         1 <0>         0.0803
     15 H5         -0.6088    2.6619    1.3444 H         1 <0>         0.0821
     16 H6          0.0021   -0.0041    0.0020 H         1 <0>         0.0667
     17 H7          1.0088    1.4660    0.0003 H         1 <0>         0.0714
     18 H8         -0.9389    2.6690   -1.1308 H         1 <0>         0.0660
     19 H9         -0.1701    1.4035   -2.1217 H         1 <0>         0.0718
     20 H10        -2.7072    1.3226   -2.1025 H         1 <0>         0.0791
     21 H11        -1.9193   -0.1813   -1.5745 H         1 <0>         0.0796
@<TRIPOS>BOND
     1    1    6 ar
     2    1    2 ar
     3    1   11 1
     4    2    3 ar
     5    2   12 1
     6    3    4 ar
     7    4    5 ar
     8    4   13 1
     9    5   10 1
    10    5    6 ar
    11    6    7 1
    12    7    8 1
    13    7   14 1
    14    7   15 1
    15    8    9 1
    16    8   16 1
    17    8   17 1
    18    9   10 1
    19    9   18 1
    20    9   19 1
    21   10   20 1
    22   10   21 1
@<TRIPOS>MOLECULE
ZINC05133259
   11    11     0     0     0
SMALL
USER_CHARGES

@<TRIPOS>ATOM
      1 C1         -0.0179    1.4689    0.0101 C.3       1 <0>         0.0602
      2 C2         -0.7386    1.8225   -1.2757 C.2       1 <0>         0.5230
      3 O1         -0.9887    2.9328   -1.6935 O.2       1 <0>        -0.4672
      4 N1         -1.0429    0.6459   -1.8582 N.am      1 <0>        -0.6809
      5 C3         -0.6191   -0.3911   -1.1268 C.2       1 <0>         0.7018
      6 N2          0.0021   -0.0041    0.0020 N.am      1 <0>        -0.7277
      7 O2         -0.7771   -1.5529   -1.4466 O.2       1 <0>        -0.5416
      8 H1          0.9971    1.8662    0.0026 H         1 <0>         0.1267
      9 H2         -0.5674    1.8402    0.8751 H         1 <0>         0.1269
     10 H3         -1.5118    0.5613   -2.7031 H         1 <0>         0.4348
     11 H4          0.3881   -0.5822    0.6785 H         1 <0>         0.4440
@<TRIPOS>BOND
     1    1    6 1
     2    1    8 1
     3    1    9 1
     4    1    2 1
     5    2    3 2
     6    2    4 am
     7    4   10 1
     8    4    5 am
     9    5    7 2
    10    5    6 am
    11    6   11 1
@<TRIPOS>MOLECULE
ZINC13834242
   41    41     0     0     0
SMALL
USER_CHARGES
3-(dipropylamino)-1-phenyl-propan-1-one
@<TRIPOS>ATOM
      1 C1         -2.1960   -2.3560   -3.6117 C.3       1 <0>        -0.1555
      2 C2         -1.6813   -2.8343   -2.2526 C.3       1 <0>        -0.1503
      3 C3         -2.7649   -2.6220   -1.1935 C.3       1 <0>        -0.0153
      4 C4         -1.9603   -4.4915    0.1181 C.3       1 <0>        -0.0122
      5 C5         -3.2682   -5.2851    0.0929 C.3       1 <0>        -0.1494
      6 C6         -2.9560   -6.7829    0.0931 C.3       1 <0>        -0.1563
      7 C7         -1.0817   -2.2698    0.5110 C.3       1 <0>        -0.0039
      8 C8         -1.4910   -0.8135    0.7402 C.3       1 <0>        -0.1865
      9 C9         -0.2822   -0.0095    1.1446 C.2       1 <0>         0.4095
     10 O1          0.7999   -0.5482    1.2401 O.2       1 <0>        -0.4406
     11 C10        -0.4151    1.4293    1.4236 C.ar      1 <0>        -0.1858
     12 C11        -1.6604    2.0554    1.3089 C.ar      1 <0>        -0.0756
     13 C12        -1.7779    3.4027    1.5777 C.ar      1 <0>        -0.1303
     14 C13        -0.6654    4.1375    1.9493 C.ar      1 <0>        -0.0734
     15 C14         0.5716    3.5265    2.0589 C.ar      1 <0>        -0.1275
     16 C15         0.7043    2.1788    1.7991 C.ar      1 <0>        -0.0527
     17 H1         -2.4447   -1.2963   -3.5537 H         1 <0>         0.0666
     18 H2         -1.4241   -2.5072   -4.3663 H         1 <0>         0.0777
     19 H3         -3.0860   -2.9237   -3.8835 H         1 <0>         0.0675
     20 H4         -0.7914   -2.2666   -1.9808 H         1 <0>         0.0858
     21 H5         -1.4326   -3.8939   -2.3107 H         1 <0>         0.0872
     22 H6         -3.6469   -3.2072   -1.4536 H         1 <0>         0.1323
     23 H7         -3.0294   -1.5654   -1.1510 H         1 <0>         0.1285
     24 H8         -1.3676   -4.7399   -0.7623 H         1 <0>         0.1342
     25 H9         -1.3988   -4.7449    1.0173 H         1 <0>         0.1307
     26 H10        -3.8605   -5.0373    0.9737 H         1 <0>         0.0858
     27 H11        -3.8300   -5.0311   -0.8060 H         1 <0>         0.0849
     28 H12        -3.8878   -7.3482    0.0752 H         1 <0>         0.0775
     29 H13        -2.3637   -7.0307   -0.7877 H         1 <0>         0.0669
     30 H14        -2.3942   -7.0368    0.9920 H         1 <0>         0.0676
     31 H15        -0.3330   -2.3166   -0.2798 H         1 <0>         0.1415
     32 H16        -0.6644   -2.6789    1.4311 H         1 <0>         0.1376
     33 H17        -2.1778   -0.7705    1.4657 H         1 <0>         0.1090
     34 H18        -1.9083   -0.4043   -0.1799 H         1 <0>         0.1219
     35 H19        -2.5286    1.4842    1.0151 H         1 <0>         0.1276
     36 H20        -2.7397    3.8868    1.4940 H         1 <0>         0.1345
     37 H21        -0.7630    5.1934    2.1544 H         1 <0>         0.1349
     38 H22         1.4351    4.1066    2.3490 H         1 <0>         0.1365
     39 H23         1.6702    1.7034    1.8851 H         1 <0>         0.1370
     40 N1         -2.2806   -3.0487    0.1363 N.4       1 <0>        -0.3955
     41 H24        -3.0185   -2.8796    0.8300 H         1 <0>         0.4281
@<TRIPOS>BOND
     1    1    2 1
     2    1   17 1
     3    1   18 1
     4    1   19 1
     5    2    3 1
     6    2   20 1
     7    2   21 1
     8    3   22 1
     9    3   23 1
    10    3   40 1
    11    4    5 1
    12    4   24 1
    13    4   25 1
    14    4   40 1
    15    5    6 1
    16    5   26 1
    17    5   27 1
    18    6   28 1
    19    6   29 1
    20    6   30 1
    21    7    8 1
    22    7   31 1
    23    7   32 1
    24    7   40 1
    25    8    9 1
    26    8   33 1
    27    8   34 1
    28    9   10 2
    29    9   11 1
    30   11   16 ar
    31   11   12 ar
    32   12   13 ar
    33   12   35 1
    34   13   14 ar
    35   13   36 1
    36   14   15 ar
    37   14   37 1
    38   15   16 ar
    39   15   38 1
    40   16   39 1
    41   40   41 1
@<TRIPOS>MOLECULE
ZINC00013635
   48    50     0     0     0
SMALL
USER_CHARGES
1-(4-fluorophenyl)-4-[4-(5-fluoropyrimidin-2-yl)piperazin-1-yl]-butan-1-ol
@<TRIPOS>ATOM
      1 C1          1.0412    1.5837    3.0363 C.ar      1 <0>        -0.0821
      2 C2          1.6394    1.0387    4.1565 C.ar      1 <0>        -0.1487
      3 C3          1.1287   -0.1186    4.7195 C.ar      1 <0>         0.1092
      4 C4          0.0154   -0.7251    4.1629 C.ar      1 <0>        -0.1494
      5 C5         -0.5848   -0.1748    3.0463 C.ar      1 <0>        -0.0791
      6 C6         -0.0738    0.9805    2.4848 C.ar      1 <0>        -0.1421
      7 C7         -0.7288    1.5792    1.2668 C.3       1 <0>         0.1541
      8 H1         -1.7755    1.2768    1.2315 H         1 <0>         0.1127
      9 C8         -0.0127    1.0858    0.0080 C.3       1 <0>        -0.1461
     10 C9         -0.7527    1.5927   -1.2315 C.3       1 <0>        -0.1479
     11 C10        -0.0366    1.0992   -2.4903 C.3       1 <0>        -0.0043
     12 C11        -2.0820    0.9798   -3.7813 C.3       1 <0>         0.0008
     13 C12        -2.8179    1.5708   -4.9862 C.3       1 <0>         0.0351
     14 N1         -2.0359    1.3212   -6.2051 N.pl3     1 <0>        -0.4598
     15 C13        -0.7009    1.9272   -6.1043 C.3       1 <0>         0.0392
     16 C14         0.0349    1.3363   -4.8994 C.3       1 <0>         0.0015
     17 C15        -2.7060    1.7802   -7.3275 C.ar      1 <0>         0.4661
     18 N2         -2.1100    2.6561   -8.1225 N.ar      1 <0>        -0.5236
     19 C16        -2.7192    3.1114   -9.2050 C.ar      1 <0>         0.1560
     20 C17        -4.0015    2.6679   -9.4965 C.ar      1 <0>        -0.0098
     21 C18        -4.5973    1.7540   -8.6388 C.ar      1 <0>         0.1581
     22 N3         -3.9289    1.3363   -7.5762 N.ar      1 <0>        -0.4963
     23 F1         -4.6552    3.1161  -10.5905 F         1 <0>        -0.1081
     24 O1         -0.6468    3.0043    1.3339 O.3       1 <0>        -0.5522
     25 F2          1.7165   -0.6559    5.8109 F         1 <0>        -0.1327
     26 H2          1.4424    2.4836    2.5939 H         1 <0>         0.1302
     27 H3          2.5075    1.5128    4.5901 H         1 <0>         0.1407
     28 H4         -0.3836   -1.6280    4.6010 H         1 <0>         0.1411
     29 H5         -1.4532   -0.6477    2.6119 H         1 <0>         0.1345
     30 H6          0.0021   -0.0041    0.0020 H         1 <0>         0.0879
     31 H7          1.0099    1.4631    0.0003 H         1 <0>         0.0808
     32 H8         -1.7753    1.2154   -1.2238 H         1 <0>         0.0887
     33 H9         -0.7675    2.6825   -1.2255 H         1 <0>         0.0946
     34 H10         0.9860    1.4765   -2.4981 H         1 <0>         0.1312
     35 H11        -0.0218    0.0093   -2.4963 H         1 <0>         0.1334
     36 H12        -1.9834   -0.0982   -3.9084 H         1 <0>         0.1445
     37 H13        -2.6460    1.1891   -2.8723 H         1 <0>         0.1430
     38 H14        -2.9406    2.6448   -4.8464 H         1 <0>         0.0716
     39 H15        -3.7974    1.1020   -5.0802 H         1 <0>         0.1406
     40 H16        -0.7996    3.0053   -5.9772 H         1 <0>         0.0805
     41 H17        -0.1369    1.7180   -7.0132 H         1 <0>         0.1355
     42 H18         1.0143    1.8054   -4.8055 H         1 <0>         0.1423
     43 H19         0.1580    0.2623   -5.0390 H         1 <0>         0.1418
     44 H20        -2.2262    3.8222   -9.8517 H         1 <0>         0.1904
     45 H21        -5.5941    1.3881   -8.8363 H         1 <0>         0.1926
     46 H22         0.2576    3.3450    1.3680 H         1 <0>         0.3776
     47 N4         -0.7508    1.6135   -3.6783 N.4       1 <0>        -0.4002
     48 H23        -0.8709    2.6286   -3.5819 H         1 <0>         0.4263
@<TRIPOS>BOND
     1    1    6 ar
     2    1    2 ar
     3    1   26 1
     4    2    3 ar
     5    2   27 1
     6    3    4 ar
     7    3   25 1
     8    4    5 ar
     9    4   28 1
    10    5    6 ar
    11    5   29 1
    12    6    7 1
    13    7    8 1
    14    7    9 1
    15    7   24 1
    16    9   10 1
    17    9   30 1
    18    9   31 1
    19   10   11 1
    20   10   32 1
    21   10   33 1
    22   11   34 1
    23   11   35 1
    24   11   47 1
    25   12   13 1
    26   12   36 1
    27   12   37 1
    28   12   47 1
    29   13   14 1
    30   13   38 1
    31   13   39 1
    32   14   15 1
    33   14   17 1
    34   15   16 1
    35   15   40 1
    36   15   41 1
    37   16   42 1
    38   16   43 1
    39   16   47 1
    40   17   22 ar
    41   17   18 ar
    42   18   19 ar
    43   19   20 ar
    44   19   44 1
    45   20   21 ar
    46   20   23 1
    47   21   22 ar
    48   21   45 1
    49   24   46 1
    50   47   48 1
@<TRIPOS>MOLECULE
ZINC03995923
   48    50     0     0     0
SMALL
USER_CHARGES

@<TRIPOS>ATOM
      1 C1         -0.0167    1.3782    0.0096 C.ar      1 <0>        -0.0781
      2 C2          1.1703    2.0860    0.0021 C.ar      1 <0>        -0.1497
      3 C3          2.3786    1.4101   -0.0131 C.ar      1 <0>         0.1097
      4 C4          2.3962    0.0256   -0.0207 C.ar      1 <0>        -0.1490
      5 C5          1.2079   -0.6800   -0.0132 C.ar      1 <0>        -0.0821
      6 C6          0.0021   -0.0041    0.0020 C.ar      1 <0>        -0.1424
      7 C7         -1.2930   -0.7747    0.0103 C.3       1 <0>         0.1543
      8 H1         -2.0956   -0.1325    0.3729 H         1 <0>         0.1124
      9 C8         -1.6168   -1.2431   -1.4098 C.3       1 <0>        -0.1464
     10 C9         -2.9905   -1.9166   -1.4239 C.3       1 <0>        -0.1466
     11 C10        -3.3143   -2.3850   -2.8440 C.3       1 <0>        -0.0104
     12 N1         -4.6332   -3.0316   -2.8576 N.4       1 <0>        -0.3844
     13 C11        -5.6646   -2.0428   -2.5191 C.3       1 <0>        -0.0257
     14 C12        -7.0258   -2.7393   -2.4206 C.3       1 <0>         0.1070
     15 N2         -7.2699   -3.4658   -3.6763 N.pl3     1 <0>        -0.6032
     16 C13        -6.2137   -4.3590   -4.1770 C.3       1 <0>         0.1066
     17 C14        -4.8909   -3.5860   -4.1926 C.3       1 <0>        -0.0203
     18 C15        -8.4609   -3.3134   -4.3675 C.ar      1 <0>         0.5493
     19 N3         -9.3862   -2.4962   -3.8876 N.ar      1 <0>        -0.5400
     20 C16       -10.5347   -2.3272   -4.5222 C.ar      1 <0>         0.1757
     21 C17       -10.7629   -3.0188   -5.7035 C.ar      1 <0>        -0.0428
     22 C18        -9.7713   -3.8665   -6.1770 C.ar      1 <0>         0.1757
     23 N4         -8.6439   -3.9844   -5.4947 N.ar      1 <0>        -0.5402
     24 F1        -11.9244   -2.8705   -6.3773 F         1 <0>        -0.1137
     25 O1         -1.1663   -1.9098    0.8690 O.3       1 <0>        -0.5517
     26 F2          3.5396    2.1009   -0.0209 F         1 <0>        -0.1326
     27 H2         -0.9592    1.9052    0.0260 H         1 <0>         0.1346
     28 H3          1.1554    3.1659    0.0077 H         1 <0>         0.1412
     29 H4          3.3381   -0.5027   -0.0329 H         1 <0>         0.1407
     30 H5          1.2213   -1.7599   -0.0195 H         1 <0>         0.1299
     31 H6         -1.6258   -0.3852   -2.0822 H         1 <0>         0.0870
     32 H7         -0.8598   -1.9549   -1.7391 H         1 <0>         0.0808
     33 H8         -2.9815   -2.7744   -0.7516 H         1 <0>         0.0962
     34 H9         -3.7475   -1.2048   -1.0947 H         1 <0>         0.0889
     35 H10        -3.3233   -1.5271   -3.5164 H         1 <0>         0.1293
     36 H11        -2.5573   -3.0968   -3.1733 H         1 <0>         0.1327
     37 H12        -5.4236   -1.5790   -1.5626 H         1 <0>         0.1466
     38 H13        -5.7031   -1.2778   -3.2946 H         1 <0>         0.1328
     39 H14        -7.0185   -3.4413   -1.5868 H         1 <0>         0.0945
     40 H15        -7.8080   -1.9952   -2.2699 H         1 <0>         0.1410
     41 H16        -6.1244   -5.2246   -3.5205 H         1 <0>         0.0944
     42 H17        -6.4590   -4.6858   -5.1875 H         1 <0>         0.1412
     43 H18        -4.9528   -2.7743   -4.9175 H         1 <0>         0.1325
     44 H19        -4.0797   -4.2594   -4.4692 H         1 <0>         0.1453
     45 H20       -11.2854   -1.6597   -4.1256 H         1 <0>         0.1886
     46 H21        -9.9165   -4.4199   -7.0930 H         1 <0>         0.1886
     47 H22        -0.4692   -2.5262    0.6060 H         1 <0>         0.3777
     48 H23        -4.6484   -3.7762   -2.1768 H         1 <0>         0.4241
@<TRIPOS>BOND
     1    1    6 ar
     2    1    2 ar
     3    1   27 1
     4    2    3 ar
     5    2   28 1
     6    3    4 ar
     7    3   26 1
     8    4    5 ar
     9    4   29 1
    10    5    6 ar
    11    5   30 1
    12    6    7 1
    13    7    8 1
    14    7    9 1
    15    7   25 1
    16    9   10 1
    17    9   31 1
    18    9   32 1
    19   10   11 1
    20   10   33 1
    21   10   34 1
    22   11   12 1
    23   11   35 1
    24   11   36 1
    25   12   17 1
    26   12   13 1
    27   12   48 1
    28   13   14 1
    29   13   37 1
    30   13   38 1
    31   14   15 1
    32   14   39 1
    33   14   40 1
    34   15   16 1
    35   15   18 1
    36   16   17 1
    37   16   41 1
    38   16   42 1
    39   17   43 1
    40   17   44 1
    41   18   23 ar
    42   18   19 ar
    43   19   20 ar
    44   20   21 ar
    45   20   45 1
    46   21   22 ar
    47   21   24 1
    48   22   23 ar
    49   22   46 1
    50   25   47 1
@<TRIPOS>MOLECULE
ZINC03995923
   47    49     0     0     0
SMALL
USER_CHARGES

@<TRIPOS>ATOM
      1 C1         -0.0167    1.3782    0.0096 C.ar      1 <0>        -0.0807
      2 C2          1.1703    2.0860    0.0021 C.ar      1 <0>        -0.1505
      3 C3          2.3786    1.4101   -0.0131 C.ar      1 <0>         0.0991
      4 C4          2.3962    0.0256   -0.0207 C.ar      1 <0>        -0.1496
      5 C5          1.2079   -0.6800   -0.0132 C.ar      1 <0>        -0.0833
      6 C6          0.0021   -0.0041    0.0020 C.ar      1 <0>        -0.1286
      7 C7         -1.2930   -0.7747    0.0103 C.3       1 <0>         0.1510
      8 H1         -2.0956   -0.1325    0.3729 H         1 <0>         0.1092
      9 C8         -1.6168   -1.2431   -1.4098 C.3       1 <0>        -0.1459
     10 C9         -2.9905   -1.9166   -1.4239 C.3       1 <0>        -0.1128
     11 C10        -3.3143   -2.3850   -2.8440 C.3       1 <0>         0.0557
     12 N1         -4.6332   -3.0316   -2.8576 N.3       1 <0>        -0.5375
     13 C11        -5.6963   -2.0657   -2.5496 C.3       1 <0>         0.0377
     14 C12        -7.0277   -2.8084   -2.3950 C.3       1 <0>         0.1302
     15 N2         -7.2538   -3.6182   -3.6018 N.pl3     1 <0>        -0.5802
     16 C13        -6.1757   -4.5115   -4.0524 C.3       1 <0>         0.1305
     17 C14        -4.8779   -3.7017   -4.1417 C.3       1 <0>         0.0409
     18 C15        -8.4505   -3.5418   -4.2955 C.ar      1 <0>         0.5595
     19 N3         -9.3969   -2.7223   -3.8627 N.ar      1 <0>        -0.5478
     20 C16       -10.5515   -2.6247   -4.5010 C.ar      1 <0>         0.1770
     21 C17       -10.7639   -3.3942   -5.6363 C.ar      1 <0>        -0.0771
     22 C18        -9.7505   -4.2419   -6.0611 C.ar      1 <0>         0.1769
     23 N4         -8.6183   -4.2861   -5.3782 N.ar      1 <0>        -0.5481
     24 F1        -11.9312   -3.3201   -6.3125 F         1 <0>        -0.1263
     25 O1         -1.1663   -1.9098    0.8690 O.3       1 <0>        -0.5504
     26 F2          3.5396    2.1009   -0.0209 F         1 <0>        -0.1381
     27 H2         -0.9592    1.9052    0.0260 H         1 <0>         0.1345
     28 H3          1.1554    3.1659    0.0077 H         1 <0>         0.1378
     29 H4          3.3381   -0.5027   -0.0329 H         1 <0>         0.1376
     30 H5          1.2213   -1.7599   -0.0195 H         1 <0>         0.1309
     31 H6         -1.6258   -0.3852   -2.0822 H         1 <0>         0.0733
     32 H7         -0.8598   -1.9549   -1.7391 H         1 <0>         0.0697
     33 H8         -2.9815   -2.7744   -0.7516 H         1 <0>         0.0813
     34 H9         -3.7475   -1.2048   -1.0947 H         1 <0>         0.0639
     35 H10        -3.3233   -1.5271   -3.5164 H         1 <0>         0.0330
     36 H11        -2.5573   -3.0968   -3.1733 H         1 <0>         0.0762
     37 H12        -5.4589   -1.5475   -1.6204 H         1 <0>         0.0936
     38 H13        -5.7758   -1.3414   -3.3603 H         1 <0>         0.0376
     39 H14        -6.9852   -3.4581   -1.5208 H         1 <0>         0.0769
     40 H15        -7.8377   -2.0881   -2.2804 H         1 <0>         0.1022
     41 H16        -6.0514   -5.3249   -3.3375 H         1 <0>         0.0769
     42 H17        -6.4224   -4.9172   -5.0336 H         1 <0>         0.1024
     43 H18        -4.9687   -2.9547   -4.9303 H         1 <0>         0.0380
     44 H19        -4.0469   -4.3701   -4.3673 H         1 <0>         0.0904
     45 H20       -11.3194   -1.9549   -4.1429 H         1 <0>         0.1795
     46 H21        -9.8830   -4.8548   -6.9404 H         1 <0>         0.1794
     47 H22        -0.4692   -2.5262    0.6060 H         1 <0>         0.3740
@<TRIPOS>BOND
     1    1    6 ar
     2    1    2 ar
     3    1   27 1
     4    2    3 ar
     5    2   28 1
     6    3    4 ar
     7    3   26 1
     8    4    5 ar
     9    4   29 1
    10    5    6 ar
    11    5   30 1
    12    6    7 1
    13    7    8 1
    14    7    9 1
    15    7   25 1
    16    9   10 1
    17    9   31 1
    18    9   32 1
    19   10   11 1
    20   10   33 1
    21   10   34 1
    22   11   12 1
    23   11   35 1
    24   11   36 1
    25   12   17 1
    26   12   13 1
    27   13   14 1
    28   13   37 1
    29   13   38 1
    30   14   15 1
    31   14   39 1
    32   14   40 1
    33   15   16 1
    34   15   18 1
    35   16   17 1
    36   16   41 1
    37   16   42 1
    38   17   43 1
    39   17   44 1
    40   18   23 ar
    41   18   19 ar
    42   19   20 ar
    43   20   21 ar
    44   20   45 1
    45   21   22 ar
    46   21   24 1
    47   22   23 ar
    48   22   46 1
    49   25   47 1
@<TRIPOS>MOLECULE
ZINC13820954
   41    42     0     0     0
SMALL
USER_CHARGES
(2R)-N-(2-phenoxyethyl)-1-phenyl-propan-2-amine
@<TRIPOS>ATOM
      1 C1          1.4271    6.0785    1.8177 C.3       1 <0>        -0.1821
      2 C2          0.1608    5.3784    1.3202 C.3       1 <0>         0.0326
      3 H1         -0.0852    5.7390    0.3215 H         1 <0>         0.1408
      4 C3         -0.9977    5.6828    2.2721 C.3       1 <0>        -0.1013
      5 C4         -2.2705    5.0962    1.7181 C.ar      1 <0>        -0.1278
      6 C5         -3.0717    5.8498    0.8808 C.ar      1 <0>        -0.1054
      7 C6         -4.2367    5.3100    0.3688 C.ar      1 <0>        -0.1051
      8 C7         -4.6059    4.0203    0.7023 C.ar      1 <0>        -0.1042
      9 C8         -3.8073    3.2685    1.5437 C.ar      1 <0>        -0.1024
     10 C9         -2.6396    3.8065    2.0516 C.ar      1 <0>        -0.1411
     11 C10         1.0269    3.5347    0.0112 C.3       1 <0>         0.0032
     12 C11         1.2479    2.0208    0.0010 C.3       1 <0>         0.0246
     13 O1         -0.0164    1.3548    0.0095 O.3       1 <0>        -0.3281
     14 C12         0.0021   -0.0041    0.0020 C.ar      1 <0>         0.1113
     15 C13         1.2120   -0.6824   -0.0189 C.ar      1 <0>        -0.2040
     16 C14         1.2282   -2.0638   -0.0202 C.ar      1 <0>        -0.0783
     17 C15         0.0396   -2.7702   -0.0131 C.ar      1 <0>        -0.1410
     18 C16        -1.1677   -2.0964    0.0020 C.ar      1 <0>        -0.0773
     19 C17        -1.1891   -0.7152    0.0096 C.ar      1 <0>        -0.1425
     20 H2          2.2524    5.8616    1.1395 H         1 <0>         0.0824
     21 H3          1.2578    7.1547    1.8514 H         1 <0>         0.1087
     22 H4          1.6731    5.7179    2.8164 H         1 <0>         0.0838
     23 H5         -0.7905    5.2446    3.2484 H         1 <0>         0.0975
     24 H6         -1.1096    6.7622    2.3747 H         1 <0>         0.1218
     25 H7         -2.7856    6.8590    0.6238 H         1 <0>         0.1294
     26 H8         -4.8609    5.8975   -0.2883 H         1 <0>         0.1324
     27 H9         -5.5184    3.6001    0.3058 H         1 <0>         0.1321
     28 H10        -4.0959    2.2610    1.8046 H         1 <0>         0.1313
     29 H11        -2.0158    3.2192    2.7093 H         1 <0>         0.1203
     30 H12         1.9865    4.0427   -0.0848 H         1 <0>         0.1514
     31 H13         0.3832    3.8136   -0.8230 H         1 <0>         0.1415
     32 H14         1.8173    1.7308    0.8840 H         1 <0>         0.0869
     33 H15         1.8003    1.7403   -0.8958 H         1 <0>         0.1105
     34 H16         2.1407   -0.1311   -0.0294 H         1 <0>         0.1272
     35 H17         2.1699   -2.5924   -0.0320 H         1 <0>         0.1314
     36 H18         0.0542   -3.8501   -0.0190 H         1 <0>         0.1316
     37 H19        -2.0947   -2.6505    0.0082 H         1 <0>         0.1363
     38 H20        -2.1324   -0.1893    0.0210 H         1 <0>         0.1322
     39 N1          0.3864    3.9211    1.2825 N.4       1 <0>        -0.5231
     40 H21        -0.5148    3.4366    1.3688 H         1 <0>         0.4342
     41 H22         0.9956    3.6524    2.0641 H         1 <0>         0.4280
@<TRIPOS>BOND
     1    1    2 1
     2    1   20 1
     3    1   21 1
     4    1   22 1
     5    2    3 1
     6    2    4 1
     7    2   39 1
     8    4    5 1
     9    4   23 1
    10    4   24 1
    11    5   10 ar
    12    5    6 ar
    13    6    7 ar
    14    6   25 1
    15    7    8 ar
    16    7   26 1
    17    8    9 ar
    18    8   27 1
    19    9   10 ar
    20    9   28 1
    21   10   29 1
    22   11   12 1
    23   11   30 1
    24   11   31 1
    25   11   39 1
    26   12   13 1
    27   12   32 1
    28   12   33 1
    29   13   14 1
    30   14   19 ar
    31   14   15 ar
    32   15   16 ar
    33   15   34 1
    34   16   17 ar
    35   16   35 1
    36   17   18 ar
    37   17   36 1
    38   18   19 ar
    39   18   37 1
    40   19   38 1
    41   39   40 1
    42   39   41 1
@<TRIPOS>MOLECULE
ZINC36126812
   41    42     0     0     0
SMALL
USER_CHARGES

@<TRIPOS>ATOM
      1 C1         -0.0187    1.5258    0.0104 C.3       1 <0>        -0.1839
      2 C2          0.0021   -0.0041    0.0020 C.3       1 <0>         0.0305
      3 H1         -1.0205   -0.3814    0.0098 H         1 <0>         0.1412
      4 C3          0.7182   -0.4975   -1.2568 C.3       1 <0>        -0.0996
      5 C4          0.6316   -2.0003   -1.3275 C.ar      1 <0>        -0.1275
      6 C5          1.6116   -2.7776   -0.7388 C.ar      1 <0>        -0.1431
      7 C6          1.5322   -4.1561   -0.8037 C.ar      1 <0>        -0.1072
      8 C7          0.4726   -4.7574   -1.4569 C.ar      1 <0>        -0.1047
      9 C8         -0.5078   -3.9802   -2.0447 C.ar      1 <0>        -0.1054
     10 C9         -0.4307   -2.6017   -1.9762 C.ar      1 <0>        -0.1054
     11 N1          0.7126   -0.4907    1.1921 N.4       1 <0>        -0.5102
     12 C10        -0.0398   -0.1189    2.3978 C.3       1 <0>        -0.0038
     13 C11         0.7001   -0.6257    3.6373 C.3       1 <0>         0.0259
     14 O1          1.9549    0.0485    3.7518 O.3       1 <0>        -0.3291
     15 C12         2.7419   -0.2879    4.8075 C.ar      1 <0>         0.1108
     16 C13         2.3178   -1.2512    5.7112 C.ar      1 <0>        -0.2037
     17 C14         3.1198   -1.5917    6.7832 C.ar      1 <0>        -0.0783
     18 C15         4.3442   -0.9730    6.9561 C.ar      1 <0>        -0.1407
     19 C16         4.7690   -0.0122    6.0570 C.ar      1 <0>        -0.0772
     20 C17         3.9733    0.3274    4.9800 C.ar      1 <0>        -0.1427
     21 H2          1.0039    1.9031    0.0027 H         1 <0>         0.0845
     22 H3         -0.5459    1.8868   -0.8726 H         1 <0>         0.1083
     23 H4         -0.5289    1.8773    0.9072 H         1 <0>         0.0837
     24 H5          0.2444   -0.0644   -2.1377 H         1 <0>         0.1219
     25 H6          1.7648   -0.1951   -1.2215 H         1 <0>         0.0981
     26 H7          2.4394   -2.3078   -0.2286 H         1 <0>         0.1210
     27 H8          2.2982   -4.7633   -0.3444 H         1 <0>         0.1314
     28 H9          0.4110   -5.8344   -1.5082 H         1 <0>         0.1322
     29 H10        -1.3355   -4.4500   -2.5553 H         1 <0>         0.1327
     30 H11        -1.1986   -1.9945   -2.4322 H         1 <0>         0.1299
     31 H12         0.7982   -1.4950    1.1455 H         1 <0>         0.4250
     32 H13        -0.1324    0.9660    2.4481 H         1 <0>         0.1462
     33 H14        -1.0328   -0.5668    2.3589 H         1 <0>         0.1513
     34 H15         0.0993   -0.4284    4.5251 H         1 <0>         0.1109
     35 H16         0.8710   -1.6983    3.5452 H         1 <0>         0.0861
     36 H17         1.3612   -1.7343    5.5770 H         1 <0>         0.1271
     37 H18         2.7901   -2.3416    7.4870 H         1 <0>         0.1314
     38 H19         4.9696   -1.2403    7.7950 H         1 <0>         0.1318
     39 H20         5.7256    0.4699    6.1944 H         1 <0>         0.1367
     40 H21         4.3075    1.0747    4.2755 H         1 <0>         0.1328
     41 H22         1.6317   -0.0761    1.2281 H         1 <0>         0.4314
@<TRIPOS>BOND
     1    1    2 1
     2    1   21 1
     3    1   22 1
     4    1   23 1
     5    2    3 1
     6    2    4 1
     7    2   11 1
     8    4    5 1
     9    4   24 1
    10    4   25 1
    11    5   10 ar
    12    5    6 ar
    13    6    7 ar
    14    6   26 1
    15    7    8 ar
    16    7   27 1
    17    8    9 ar
    18    8   28 1
    19    9   10 ar
    20    9   29 1
    21   10   30 1
    22   11   12 1
    23   11   31 1
    24   11   41 1
    25   12   13 1
    26   12   32 1
    27   12   33 1
    28   13   14 1
    29   13   34 1
    30   13   35 1
    31   14   15 1
    32   15   20 ar
    33   15   16 ar
    34   16   17 ar
    35   16   36 1
    36   17   18 ar
    37   17   37 1
    38   18   19 ar
    39   18   38 1
    40   19   20 ar
    41   19   39 1
    42   20   40 1
@<TRIPOS>MOLECULE
ZINC13820952
   39    40     0     0     0
SMALL
USER_CHARGES
(2R)-1-phenyl-N-(3-phenylprop-2-ynyl)propan-2-amine
@<TRIPOS>ATOM
      1 C1         -4.3194    0.0384    1.4672 C.3       1 <0>        -0.1830
      2 C2         -2.9450    0.7107    1.4624 C.3       1 <0>         0.0330
      3 H1         -2.9998    1.6534    2.0069 H         1 <0>         0.1430
      4 C3         -2.5137    0.9795    0.0193 C.3       1 <0>        -0.1010
      5 C4         -1.2190    1.7506    0.0173 C.ar      1 <0>        -0.1264
      6 C5         -0.0126    1.0758    0.0080 C.ar      1 <0>        -0.1461
      7 C6          1.1750    1.7832    0.0004 C.ar      1 <0>        -0.1049
      8 C7          1.1563    3.1654    0.0076 C.ar      1 <0>        -0.1049
      9 C8         -0.0501    3.8402    0.0223 C.ar      1 <0>        -0.1040
     10 C9         -1.2377    3.1328    0.0299 C.ar      1 <0>        -0.1053
     11 C10        -1.9784    0.0066    3.5678 C.3       1 <0>         0.1448
     12 C11        -0.9870   -0.8922    4.1811 C.1       1 <0>        -0.2884
     13 C12        -0.1964   -1.6090    4.6703 C.1       1 <0>         0.0118
     14 C13         0.7681   -2.4834    5.2670 C.ar      1 <0>        -0.0415
     15 C14         1.5342   -3.3318    4.4668 C.ar      1 <0>        -0.0774
     16 C15         2.4655   -4.1680    5.0475 C.ar      1 <0>        -0.1195
     17 C16         2.6323   -4.1748    6.4208 C.ar      1 <0>        -0.0842
     18 C17         1.8722   -3.3398    7.2201 C.ar      1 <0>        -0.1199
     19 C18         0.9416   -2.4947    6.6514 C.ar      1 <0>        -0.0786
     20 H2         -5.0461    0.6937    0.9868 H         1 <0>         0.1095
     21 H3         -4.2646   -0.9043    0.9227 H         1 <0>         0.0841
     22 H4         -4.6267   -0.1531    2.4953 H         1 <0>         0.0838
     23 H5         -3.2837    1.5610   -0.4877 H         1 <0>         0.1231
     24 H6         -2.3729    0.0317   -0.5003 H         1 <0>         0.0983
     25 H7          0.0021   -0.0041    0.0020 H         1 <0>         0.1212
     26 H8          2.1175    1.2560   -0.0115 H         1 <0>         0.1316
     27 H9          2.0841    3.7181    0.0014 H         1 <0>         0.1326
     28 H10        -0.0647    4.9201    0.0276 H         1 <0>         0.1331
     29 H11        -2.1802    3.6600    0.0410 H         1 <0>         0.1308
     30 H12        -1.7302    1.0402    3.8091 H         1 <0>         0.1481
     31 H13        -2.9701   -0.2286    3.9541 H         1 <0>         0.1502
     32 H14         1.4017   -3.3307    3.3950 H         1 <0>         0.1308
     33 H15         3.0620   -4.8223    4.4290 H         1 <0>         0.1370
     34 H16         3.3594   -4.8345    6.8708 H         1 <0>         0.1355
     35 H17         2.0077   -3.3493    8.2915 H         1 <0>         0.1366
     36 H18         0.3485   -1.8436    7.2765 H         1 <0>         0.1296
     37 N1         -1.9593   -0.1792    2.1046 N.4       1 <0>        -0.5240
     38 H19        -1.0219    0.0400    1.7475 H         1 <0>         0.4290
     39 H20        -2.1899   -1.1552    1.8841 H         1 <0>         0.4316
@<TRIPOS>BOND
     1    1    2 1
     2    1   20 1
     3    1   21 1
     4    1   22 1
     5    2    3 1
     6    2    4 1
     7    2   37 1
     8    4    5 1
     9    4   23 1
    10    4   24 1
    11    5   10 ar
    12    5    6 ar
    13    6    7 ar
    14    6   25 1
    15    7    8 ar
    16    7   26 1
    17    8    9 ar
    18    8   27 1
    19    9   10 ar
    20    9   28 1
    21   10   29 1
    22   11   12 1
    23   11   30 1
    24   11   31 1
    25   11   37 1
    26   12   13 3
    27   13   14 1
    28   14   19 ar
    29   14   15 ar
    30   15   16 ar
    31   15   32 1
    32   16   17 ar
    33   16   33 1
    34   17   18 ar
    35   17   34 1
    36   18   19 ar
    37   18   35 1
    38   19   36 1
    39   37   38 1
    40   37   39 1
@<TRIPOS>MOLECULE
ZINC36126813
   39    40     0     0     0
SMALL
USER_CHARGES

@<TRIPOS>ATOM
      1 C1         -0.0187    1.5258    0.0104 C.3       1 <0>        -0.1854
      2 C2          0.0021   -0.0041    0.0020 C.3       1 <0>         0.0302
      3 H1         -1.0205   -0.3814    0.0098 H         1 <0>         0.1438
      4 C3          0.7182   -0.4975   -1.2568 C.3       1 <0>        -0.0987
      5 C4          0.6316   -2.0003   -1.3275 C.ar      1 <0>        -0.1286
      6 C5          1.6116   -2.7776   -0.7388 C.ar      1 <0>        -0.1428
      7 C6          1.5322   -4.1561   -0.8037 C.ar      1 <0>        -0.1071
      8 C7          0.4726   -4.7574   -1.4569 C.ar      1 <0>        -0.1043
      9 C8         -0.5078   -3.9802   -2.0447 C.ar      1 <0>        -0.1054
     10 C9         -0.4307   -2.6017   -1.9762 C.ar      1 <0>        -0.1050
     11 N1          0.7126   -0.4907    1.1921 N.4       1 <0>        -0.5112
     12 C10        -0.0398   -0.1189    2.3978 C.3       1 <0>         0.1387
     13 C11         0.6721   -0.6065    3.5903 C.1       1 <0>        -0.2873
     14 C12         1.2399   -0.9954    4.5414 C.1       1 <0>         0.0146
     15 C13         1.9325   -1.4698    5.7016 C.ar      1 <0>        -0.0386
     16 C14         3.1362   -2.1621    5.5647 C.ar      1 <0>        -0.0840
     17 C15         3.7988   -2.6161    6.6865 C.ar      1 <0>        -0.1180
     18 C16         3.2723   -2.3862    7.9450 C.ar      1 <0>        -0.0876
     19 C17         2.0793   -1.7005    8.0875 C.ar      1 <0>        -0.1164
     20 C18         1.4095   -1.2366    6.9740 C.ar      1 <0>        -0.0800
     21 H2          1.0039    1.9031    0.0027 H         1 <0>         0.0846
     22 H3         -0.5459    1.8868   -0.8726 H         1 <0>         0.1100
     23 H4         -0.5289    1.8773    0.9072 H         1 <0>         0.0850
     24 H5          0.2444   -0.0644   -2.1377 H         1 <0>         0.1231
     25 H6          1.7648   -0.1951   -1.2215 H         1 <0>         0.0982
     26 H7          2.4394   -2.3078   -0.2286 H         1 <0>         0.1204
     27 H8          2.2982   -4.7633   -0.3444 H         1 <0>         0.1312
     28 H9          0.4110   -5.8344   -1.5082 H         1 <0>         0.1322
     29 H10        -1.3355   -4.4500   -2.5553 H         1 <0>         0.1328
     30 H11        -1.1986   -1.9945   -2.4322 H         1 <0>         0.1304
     31 H12         0.7982   -1.4950    1.1455 H         1 <0>         0.4286
     32 H13        -0.1324    0.9660    2.4481 H         1 <0>         0.1523
     33 H14        -1.0328   -0.5668    2.3589 H         1 <0>         0.1497
     34 H15         3.5481   -2.3425    4.5827 H         1 <0>         0.1274
     35 H16         4.7304   -3.1525    6.5819 H         1 <0>         0.1361
     36 H17         3.7946   -2.7440    8.8199 H         1 <0>         0.1353
     37 H18         1.6734   -1.5242    9.0727 H         1 <0>         0.1372
     38 H19         0.4805   -0.6974    7.0868 H         1 <0>         0.1313
     39 H20         1.6317   -0.0761    1.2281 H         1 <0>         0.4272
@<TRIPOS>BOND
     1    1    2 1
     2    1   21 1
     3    1   22 1
     4    1   23 1
     5    2    3 1
     6    2    4 1
     7    2   11 1
     8    4    5 1
     9    4   24 1
    10    4   25 1
    11    5   10 ar
    12    5    6 ar
    13    6    7 ar
    14    6   26 1
    15    7    8 ar
    16    7   27 1
    17    8    9 ar
    18    8   28 1
    19    9   10 ar
    20    9   29 1
    21   10   30 1
    22   11   12 1
    23   11   31 1
    24   11   39 1
    25   12   13 1
    26   12   32 1
    27   12   33 1
    28   13   14 3
    29   14   15 1
    30   15   20 ar
    31   15   16 ar
    32   16   17 ar
    33   16   34 1
    34   17   18 ar
    35   17   35 1
    36   18   19 ar
    37   18   36 1
    38   19   20 ar
    39   19   37 1
    40   20   38 1
@<TRIPOS>MOLECULE
ZINC01508815
   35    35     0     0     0
SMALL
USER_CHARGES
3-diethylamino-1-phenyl-propan-1-one
@<TRIPOS>ATOM
      1 C1         -4.4197   -3.5773   -0.8694 C.3       1 <0>        -0.1898
      2 C2         -3.0221   -3.0083   -1.1221 C.3       1 <0>        -0.0111
      3 C3         -1.9944   -4.4054    0.5675 C.3       1 <0>        -0.0118
      4 C4         -1.6453   -4.4096    2.0572 C.3       1 <0>        -0.1899
      5 C5         -0.9974   -2.2769   -0.0138 C.3       1 <0>        -0.0014
      6 C6         -1.2943   -0.7763    0.0170 C.3       1 <0>        -0.1866
      7 C7          0.0016   -0.0073   -0.0038 C.2       1 <0>         0.4094
      8 O1          1.0583   -0.6008   -0.0397 O.2       1 <0>        -0.4407
      9 C8         -0.0155    1.4641    0.0195 C.ar      1 <0>        -0.1863
     10 C9         -1.2324    2.1525    0.0552 C.ar      1 <0>        -0.0756
     11 C10        -1.2399    3.5310    0.0827 C.ar      1 <0>        -0.1304
     12 C11        -0.0476    4.2337    0.0639 C.ar      1 <0>        -0.0733
     13 C12         1.1606    3.5598    0.0224 C.ar      1 <0>        -0.1275
     14 C13         1.1850    2.1813    0.0003 C.ar      1 <0>        -0.0527
     15 H1         -4.9910   -3.5632   -1.7976 H         1 <0>         0.1071
     16 H2         -4.3350   -4.6030   -0.5104 H         1 <0>         0.0810
     17 H3         -4.9288   -2.9710   -0.1202 H         1 <0>         0.0804
     18 H4         -3.1068   -1.9826   -1.4810 H         1 <0>         0.1277
     19 H5         -2.5130   -3.6146   -1.8713 H         1 <0>         0.1326
     20 H6         -2.8846   -5.0121    0.4012 H         1 <0>         0.1328
     21 H7         -1.1617   -4.8182   -0.0020 H         1 <0>         0.1325
     22 H8         -0.7053   -3.8799    2.2115 H         1 <0>         0.0802
     23 H9         -2.4380   -3.9138    2.6175 H         1 <0>         0.0796
     24 H10        -1.5440   -5.4380    2.4037 H         1 <0>         0.1074
     25 H11        -0.5258   -2.5345   -0.9621 H         1 <0>         0.1396
     26 H12        -0.3265   -2.5314    0.8066 H         1 <0>         0.1384
     27 H13        -1.8007   -0.5537    0.8501 H         1 <0>         0.1079
     28 H14        -1.8912   -0.5060   -0.8541 H         1 <0>         0.1227
     29 H15        -2.1636    1.6056    0.0657 H         1 <0>         0.1278
     30 H16        -2.1786    4.0640    0.1148 H         1 <0>         0.1345
     31 H17        -0.0601    5.3134    0.0814 H         1 <0>         0.1349
     32 H18         2.0868    4.1151    0.0076 H         1 <0>         0.1365
     33 H19         2.1285    1.6569   -0.0321 H         1 <0>         0.1370
     34 N1         -2.2679   -3.0144    0.1491 N.4       1 <0>        -0.3977
     35 H20        -2.8309   -2.5529    0.8732 H         1 <0>         0.4249
@<TRIPOS>BOND
     1    1    2 1
     2    1   15 1
     3    1   16 1
     4    1   17 1
     5    2   18 1
     6    2   19 1
     7    2   34 1
     8    3    4 1
     9    3   20 1
    10    3   21 1
    11    3   34 1
    12    4   22 1
    13    4   23 1
    14    4   24 1
    15    5    6 1
    16    5   25 1
    17    5   26 1
    18    5   34 1
    19    6    7 1
    20    6   27 1
    21    6   28 1
    22    7    8 2
    23    7    9 1
    24    9   14 ar
    25    9   10 ar
    26   10   11 ar
    27   10   29 1
    28   11   12 ar
    29   11   30 1
    30   12   13 ar
    31   12   31 1
    32   13   14 ar
    33   13   32 1
    34   14   33 1
    35   34   35 1
@<TRIPOS>MOLECULE
ZINC12998473
   54    57     0     0     0
SMALL
USER_CHARGES
N-(1-benzyl-4-piperidyl)-2-(2-naphthyl)acetamide
@<TRIPOS>ATOM
      1 C1          5.9642   13.1616   -7.2113 C.ar      1 <0>        -0.0837
      2 C2          5.3796   11.9627   -7.5742 C.ar      1 <0>        -0.1134
      3 C3          4.0543   11.7188   -7.2659 C.ar      1 <0>        -0.0967
      4 C4          3.3135   12.6739   -6.5952 C.ar      1 <0>        -0.1639
      5 C5          3.8966   13.8751   -6.2374 C.ar      1 <0>        -0.0944
      6 C6          5.2235   14.1168   -6.5406 C.ar      1 <0>        -0.1134
      7 C7          1.8686   12.4082   -6.2596 C.3       1 <0>         0.0490
      8 C8          0.3906   11.7091   -4.4743 C.3       1 <0>         0.0033
      9 C9          0.3533   11.1725   -3.0416 C.3       1 <0>        -0.1565
     10 C10         0.9827    9.7771   -3.0078 C.3       1 <0>         0.1363
     11 C11         2.4150    9.8587   -3.5430 C.3       1 <0>        -0.1596
     12 C12         2.3926   10.4334   -4.9612 C.3       1 <0>        -0.0027
     13 N1          1.0026    9.2822   -1.6291 N.am      1 <0>        -0.7344
     14 C13         1.0231    7.9561   -1.3893 C.2       1 <0>         0.5194
     15 O1          1.0249    7.1725   -2.3150 O.2       1 <0>        -0.5159
     16 C14         1.0436    7.4470    0.0290 C.3       1 <0>        -0.1012
     17 C15         1.0641    5.9402    0.0216 C.ar      1 <0>        -0.0741
     18 C16         2.2863    5.2704    0.0066 C.ar      1 <0>        -0.1058
     19 C17         2.3400    3.9105   -0.0003 C.ar      1 <0>        -0.1000
     20 C18         1.1472    3.1674    0.0076 C.ar      1 <0>        -0.0492
     21 C19         1.1626    1.7621    0.0004 C.ar      1 <0>        -0.1075
     22 C20        -0.0126    1.0758    0.0080 C.ar      1 <0>        -0.1122
     23 C21        -1.2348    1.7457    0.0174 C.ar      1 <0>        -0.1125
     24 C22        -1.2884    3.1055    0.0306 C.ar      1 <0>        -0.1081
     25 C23        -0.0955    3.8485    0.0228 C.ar      1 <0>        -0.0501
     26 C24        -0.1110    5.2538    0.0292 C.ar      1 <0>        -0.0876
     27 H1          6.9998   13.3519   -7.4515 H         1 <0>         0.1360
     28 H2          5.9583   11.2164   -8.0982 H         1 <0>         0.1363
     29 H3          3.5975   10.7821   -7.5495 H         1 <0>         0.1312
     30 H4          3.3166   14.6231   -5.7173 H         1 <0>         0.1311
     31 H5          5.6804   15.0533   -6.2568 H         1 <0>         0.1362
     32 H6          1.4362   11.7487   -7.0120 H         1 <0>         0.1374
     33 H7          1.3201   13.3500   -6.2437 H         1 <0>         0.1360
     34 H8         -0.1820   11.0480   -5.1248 H         1 <0>         0.1345
     35 H9         -0.0438   12.7085   -4.4993 H         1 <0>         0.1351
     36 H10        -0.6807   11.1137   -2.7018 H         1 <0>         0.1197
     37 H11         0.9142   11.8406   -2.3880 H         1 <0>         0.0942
     38 H12         0.3985    9.0989   -3.6299 H         1 <0>         0.1045
     39 H13         3.0084   10.5061   -2.8973 H         1 <0>         0.0893
     40 H14         2.8540    8.8612   -3.5614 H         1 <0>         0.1158
     41 H15         1.8105    9.7782   -5.6093 H         1 <0>         0.1330
     42 H16         3.4121   10.5061   -5.3397 H         1 <0>         0.1322
     43 H17         1.0011    9.9090   -0.8888 H         1 <0>         0.4068
     44 H18         0.1537    7.7957    0.5530 H         1 <0>         0.1074
     45 H19         1.9334    7.8201    0.5360 H         1 <0>         0.1073
     46 H20         3.2044    5.8390    0.0008 H         1 <0>         0.1192
     47 H21         3.2944    3.4051   -0.0123 H         1 <0>         0.1289
     48 H22         2.1021    1.2296   -0.0114 H         1 <0>         0.1287
     49 H23         0.0021   -0.0041    0.0020 H         1 <0>         0.1260
     50 H24        -2.1530    1.1771    0.0187 H         1 <0>         0.1257
     51 H25        -2.2427    3.6110    0.0417 H         1 <0>         0.1268
     52 H26        -1.0506    5.7862    0.0407 H         1 <0>         0.1236
     53 N2          1.7978   11.7862   -4.9213 N.4       1 <0>        -0.3938
     54 H27         2.3271   12.3631   -4.2571 H         1 <0>         0.4259
@<TRIPOS>BOND
     1    1    6 ar
     2    1    2 ar
     3    1   27 1
     4    2    3 ar
     5    2   28 1
     6    3    4 ar
     7    3   29 1
     8    4    5 ar
     9    4    7 1
    10    5    6 ar
    11    5   30 1
    12    6   31 1
    13    7   32 1
    14    7   33 1
    15    7   53 1
    16    8    9 1
    17    8   34 1
    18    8   35 1
    19    8   53 1
    20    9   10 1
    21    9   36 1
    22    9   37 1
    23   10   11 1
    24   10   13 1
    25   10   38 1
    26   11   12 1
    27   11   39 1
    28   11   40 1
    29   12   41 1
    30   12   42 1
    31   12   53 1
    32   13   14 am
    33   13   43 1
    34   14   15 2
    35   14   16 1
    36   16   17 1
    37   16   44 1
    38   16   45 1
    39   17   26 ar
    40   17   18 ar
    41   18   19 ar
    42   18   46 1
    43   19   20 ar
    44   19   47 1
    45   20   25 ar
    46   20   21 ar
    47   21   22 ar
    48   21   48 1
    49   22   23 ar
    50   22   49 1
    51   23   24 ar
    52   23   50 1
    53   24   25 ar
    54   24   51 1
    55   25   26 ar
    56   26   52 1
    57   53   54 1
@<TRIPOS>MOLECULE
ZINC05682980
   53    56     0     0     0
SMALL
USER_CHARGES
1-(1-benzyl-4-piperidyl)-3-(1-naphthyl)urea
@<TRIPOS>ATOM
      1 C1         -8.4115    3.6516    5.3712 C.ar      1 <0>        -0.0837
      2 C2         -7.7123    4.6114    4.6635 C.ar      1 <0>        -0.1134
      3 C3         -7.4291    4.4135    3.3250 C.ar      1 <0>        -0.0966
      4 C4         -7.8454    3.2561    2.6942 C.ar      1 <0>        -0.1640
      5 C5         -8.5495    2.2989    3.4005 C.ar      1 <0>        -0.0945
      6 C6         -8.8278    2.4942    4.7404 C.ar      1 <0>        -0.1135
      7 C7         -7.5369    3.0406    1.2349 C.3       1 <0>         0.0490
      8 C8         -6.0193    1.9167   -0.2797 C.3       1 <0>         0.0040
      9 C9         -4.7380    1.0828   -0.3499 C.3       1 <0>        -0.1574
     10 C10        -3.5574    1.9281    0.1361 C.3       1 <0>         0.1562
     11 C11        -3.8387    2.4119    1.5613 C.3       1 <0>        -0.1612
     12 C12        -5.1461    3.2073    1.5761 C.3       1 <0>        -0.0023
     13 N1         -2.3375    1.1169    0.1262 N.am      1 <0>        -0.7409
     14 C13        -1.1333    1.7121    0.0164 C.2       1 <0>         0.7072
     15 O1         -1.0594    2.9223   -0.0745 O.2       1 <0>        -0.5643
     16 N2         -0.0111    0.9658    0.0074 N.am      1 <0>        -0.6746
     17 C14         1.2396    1.5861   -0.0171 C.ar      1 <0>         0.1534
     18 C15         1.4181    2.7640   -0.7099 C.ar      1 <0>        -0.1135
     19 C16         2.6593    3.3928   -0.7366 C.ar      1 <0>        -0.0998
     20 C17         3.7319    2.8590   -0.0894 C.ar      1 <0>        -0.1128
     21 C18         3.5934    1.6565    0.6241 C.ar      1 <0>        -0.0380
     22 C19         2.3335    1.0095    0.6625 C.ar      1 <0>        -0.0603
     23 C20         2.1971   -0.1923    1.3748 C.ar      1 <0>        -0.1164
     24 C21         3.2745   -0.7202    2.0186 C.ar      1 <0>        -0.1076
     25 C22         4.5141   -0.0849    1.9812 C.ar      1 <0>        -0.1150
     26 C23         4.6832    1.0817    1.3009 C.ar      1 <0>        -0.0990
     27 H1         -8.6322    3.8059    6.4171 H         1 <0>         0.1359
     28 H2         -7.3871    5.5157    5.1563 H         1 <0>         0.1363
     29 H3         -6.8828    5.1634    2.7721 H         1 <0>         0.1315
     30 H4         -8.8786    1.3966    2.9065 H         1 <0>         0.1310
     31 H5         -9.3738    1.7442    5.2934 H         1 <0>         0.1360
     32 H6         -7.4903    4.0041    0.7273 H         1 <0>         0.1378
     33 H7         -8.3196    2.4301    0.7844 H         1 <0>         0.1361
     34 H8         -5.9206    2.7893   -0.9255 H         1 <0>         0.1357
     35 H9         -6.8641    1.3131   -0.6116 H         1 <0>         0.1356
     36 H10        -4.5628    0.7709   -1.3795 H         1 <0>         0.1206
     37 H11        -4.8413    0.2028    0.2849 H         1 <0>         0.0943
     38 H12        -3.4289    2.7872   -0.5225 H         1 <0>         0.1081
     39 H13        -3.9278    1.5528    2.2263 H         1 <0>         0.0888
     40 H14        -3.0210    3.0496    1.8972 H         1 <0>         0.1177
     41 H15        -5.0515    4.0738    0.9217 H         1 <0>         0.1341
     42 H16        -5.3566    3.5410    2.5922 H         1 <0>         0.1324
     43 H17        -2.3965    0.1514    0.1987 H         1 <0>         0.4031
     44 H18        -0.0723   -0.0022    0.0138 H         1 <0>         0.4081
     45 H19         0.5843    3.2061   -1.2350 H         1 <0>         0.1406
     46 H20         2.7747    4.3174   -1.2827 H         1 <0>         0.1292
     47 H21         4.6881    3.3597   -0.1242 H         1 <0>         0.1315
     48 H22         1.2424   -0.6959    1.4117 H         1 <0>         0.1179
     49 H23         3.1667   -1.6450    2.5659 H         1 <0>         0.1252
     50 H24         5.3531   -0.5246    2.5000 H         1 <0>         0.1274
     51 H25         5.6498    1.5629    1.2805 H         1 <0>         0.1326
     52 N3         -6.2461    2.3307    1.1214 N.4       1 <0>        -0.3943
     53 H26        -6.2725    1.4939    1.7158 H         1 <0>         0.4259
@<TRIPOS>BOND
     1    1    6 ar
     2    1    2 ar
     3    1   27 1
     4    2    3 ar
     5    2   28 1
     6    3    4 ar
     7    3   29 1
     8    4    5 ar
     9    4    7 1
    10    5    6 ar
    11    5   30 1
    12    6   31 1
    13    7   32 1
    14    7   33 1
    15    7   52 1
    16    8    9 1
    17    8   34 1
    18    8   35 1
    19    8   52 1
    20    9   10 1
    21    9   36 1
    22    9   37 1
    23   10   11 1
    24   10   13 1
    25   10   38 1
    26   11   12 1
    27   11   39 1
    28   11   40 1
    29   12   41 1
    30   12   42 1
    31   12   52 1
    32   13   14 am
    33   13   43 1
    34   14   15 2
    35   14   16 am
    36   16   17 1
    37   16   44 1
    38   17   22 ar
    39   17   18 ar
    40   18   19 ar
    41   18   45 1
    42   19   20 ar
    43   19   46 1
    44   20   21 ar
    45   20   47 1
    46   21   26 ar
    47   21   22 ar
    48   22   23 ar
    49   23   24 ar
    50   23   48 1
    51   24   25 ar
    52   24   49 1
    53   25   26 ar
    54   25   50 1
    55   26   51 1
    56   52   53 1
@<TRIPOS>MOLECULE
ZINC13472060
   46    49     0     0     0
SMALL
USER_CHARGES
1'-benzylspiro[isochroman-1,4'-piperidine]
@<TRIPOS>ATOM
      1 C1         -2.2345    3.2367    8.3279 C.ar      1 <0>        -0.0847
      2 C2         -2.2824    2.0757    7.5791 C.ar      1 <0>        -0.1141
      3 C3         -1.3046    1.8208    6.6357 C.ar      1 <0>        -0.0955
      4 C4         -0.2787    2.7267    6.4415 C.ar      1 <0>        -0.1604
      5 C5         -0.2277    3.8850    7.1943 C.ar      1 <0>        -0.0949
      6 C6         -1.2084    4.1424    8.1340 C.ar      1 <0>        -0.1138
      7 C7          0.7875    2.4487    5.4134 C.3       1 <0>         0.0494
      8 C8          1.2702    2.5580    3.0436 C.3       1 <0>         0.0046
      9 C9          0.9035    3.2730    1.7412 C.3       1 <0>        -0.1700
     10 C10        -0.5526    2.9570    1.3855 C.3       1 <0>         0.1579
     11 C11        -1.4563    3.3952    2.5413 C.3       1 <0>        -0.1289
     12 C12        -1.0222    2.6782    3.8217 C.3       1 <0>        -0.0030
     13 C13        -0.9360    3.7074    0.1364 C.ar      1 <0>        -0.1250
     14 C14        -1.1959    5.0661    0.2287 C.ar      1 <0>        -0.1105
     15 C15        -1.5381    5.7876   -0.8976 C.ar      1 <0>        -0.1177
     16 C16        -1.6232    5.1532   -2.1231 C.ar      1 <0>        -0.1009
     17 C17        -1.3684    3.7993   -2.2155 C.ar      1 <0>        -0.1144
     18 C18        -1.0264    3.0738   -1.0852 C.ar      1 <0>        -0.0627
     19 C19        -0.7605    1.5965   -1.2248 C.3       1 <0>        -0.1212
     20 C20        -0.0127    1.0858    0.0080 C.3       1 <0>         0.0563
     21 O1         -0.6906    1.5514    1.1804 O.3       1 <0>        -0.3637
     22 H1         -2.9986    3.4359    9.0647 H         1 <0>         0.1355
     23 H2         -3.0839    1.3679    7.7308 H         1 <0>         0.1361
     24 H3         -1.3420    0.9138    6.0507 H         1 <0>         0.1313
     25 H4          0.5762    4.5907    7.0456 H         1 <0>         0.1305
     26 H5         -1.1707    5.0493    8.7193 H         1 <0>         0.1356
     27 H6          0.9260    1.3720    5.3157 H         1 <0>         0.1367
     28 H7          1.7243    2.9085    5.7280 H         1 <0>         0.1342
     29 H8          1.1626    1.4816    2.9098 H         1 <0>         0.1357
     30 H9          2.3021    2.7899    3.3072 H         1 <0>         0.1309
     31 H10         1.5571    2.9282    0.9399 H         1 <0>         0.1161
     32 H11         1.0216    4.3489    1.8698 H         1 <0>         0.0999
     33 H12        -1.3715    4.4729    2.6811 H         1 <0>         0.1017
     34 H13        -2.4904    3.1376    2.3126 H         1 <0>         0.1204
     35 H14        -1.1198    1.6011    3.6858 H         1 <0>         0.1372
     36 H15        -1.6548    2.9986    4.6496 H         1 <0>         0.1334
     37 H16        -1.1296    5.5624    1.1856 H         1 <0>         0.1213
     38 H17        -1.7394    6.8459   -0.8214 H         1 <0>         0.1291
     39 H18        -1.8880    5.7155   -3.0063 H         1 <0>         0.1304
     40 H19        -1.4355    3.3036   -3.1727 H         1 <0>         0.1292
     41 H20        -0.1560    1.4196   -2.1144 H         1 <0>         0.0929
     42 H21        -1.7081    1.0662   -1.3193 H         1 <0>         0.0922
     43 H22         0.0021   -0.0041    0.0020 H         1 <0>         0.1102
     44 H23         1.0088    1.4660    0.0003 H         1 <0>         0.0611
     45 N1          0.3799    3.0390    4.1217 N.4       1 <0>        -0.3916
     46 H24         0.4546    4.0612    4.1840 H         1 <0>         0.4234
@<TRIPOS>BOND
     1    1    6 ar
     2    1    2 ar
     3    1   22 1
     4    2    3 ar
     5    2   23 1
     6    3    4 ar
     7    3   24 1
     8    4    5 ar
     9    4    7 1
    10    5    6 ar
    11    5   25 1
    12    6   26 1
    13    7   27 1
    14    7   28 1
    15    7   45 1
    16    8    9 1
    17    8   29 1
    18    8   30 1
    19    8   45 1
    20    9   10 1
    21    9   31 1
    22    9   32 1
    23   10   21 1
    24   10   11 1
    25   10   13 1
    26   11   12 1
    27   11   33 1
    28   11   34 1
    29   12   35 1
    30   12   36 1
    31   12   45 1
    32   13   18 ar
    33   13   14 ar
    34   14   15 ar
    35   14   37 1
    36   15   16 ar
    37   15   38 1
    38   16   17 ar
    39   16   39 1
    40   17   18 ar
    41   17   40 1
    42   18   19 1
    43   19   20 1
    44   19   41 1
    45   19   42 1
    46   20   21 1
    47   20   43 1
    48   20   44 1
    49   45   46 1
@<TRIPOS>MOLECULE
ZINC03613329
   45    47     0     0     0
SMALL
USER_CHARGES
N-(1-benzyl-4-piperidyl)-2-(2-thienyl)acetamide
@<TRIPOS>ATOM
      1 C1         -5.9560   -5.5984    7.2138 C.ar      1 <0>        -0.0836
      2 C2         -5.0595   -4.6114    7.5786 C.ar      1 <0>        -0.1134
      3 C3         -5.3343   -3.2875    7.2911 C.ar      1 <0>        -0.0968
      4 C4         -6.5058   -2.9505    6.6392 C.ar      1 <0>        -0.1639
      5 C5         -7.4049   -3.9369    6.2795 C.ar      1 <0>        -0.0944
      6 C6         -7.1275   -5.2614    6.5619 C.ar      1 <0>        -0.1134
      7 C7         -6.8055   -1.5071    6.3262 C.3       1 <0>         0.0490
      8 C8         -6.7339    0.1485    4.5615 C.3       1 <0>         0.0033
      9 C9         -6.2683    0.4032    3.1261 C.3       1 <0>        -0.1566
     10 C10        -4.7392    0.3438    3.0726 C.3       1 <0>         0.1366
     11 C11        -4.2711   -1.0214    3.5841 C.3       1 <0>        -0.1597
     12 C12        -4.7946   -1.2348    5.0062 C.3       1 <0>        -0.0027
     13 N1         -4.2901    0.5291    1.6905 N.am      1 <0>        -0.7328
     14 C13        -3.0562    1.0109    1.4417 C.2       1 <0>         0.5189
     15 O1         -2.3177    1.2910    2.3620 O.2       1 <0>        -0.5129
     16 C14        -2.5943    1.2015    0.0200 C.3       1 <0>        -0.0531
     17 C15        -1.1898    1.7477    0.0171 C.2       1 <0>        -0.1488
     18 C16        -0.0126    1.0758    0.0080 C.2       1 <0>        -0.1356
     19 C17         1.1688    1.7934    0.0005 C.2       1 <0>        -0.1614
     20 C18         1.1153    3.1478    0.0084 C.2       1 <0>        -0.1613
     21 S1         -0.6445    3.4477    0.0268 S.3       1 <0>         0.0506
     22 H1         -5.7410   -6.6328    7.4377 H         1 <0>         0.1360
     23 H2         -4.1442   -4.8747    8.0879 H         1 <0>         0.1363
     24 H3         -4.6338   -2.5164    7.5761 H         1 <0>         0.1312
     25 H4         -8.3222   -3.6732    5.7742 H         1 <0>         0.1311
     26 H5         -7.8278   -6.0325    6.2766 H         1 <0>         0.1362
     27 H6         -6.3470   -0.8688    7.0815 H         1 <0>         0.1375
     28 H7         -7.8844   -1.3520    6.3257 H         1 <0>         0.1361
     29 H8         -6.3278    0.9187    5.2171 H         1 <0>         0.1348
     30 H9         -7.8229    0.1759    4.6003 H         1 <0>         0.1353
     31 H10        -6.6058    1.3881    2.8034 H         1 <0>         0.1202
     32 H11        -6.6853   -0.3588    2.4676 H         1 <0>         0.0946
     33 H12        -4.3219    1.1315    3.6999 H         1 <0>         0.1053
     34 H13        -4.6566   -1.8057    2.9328 H         1 <0>         0.0896
     35 H14        -3.1816   -1.0542    3.5886 H         1 <0>         0.1159
     36 H15        -4.3975   -0.4581    5.6598 H         1 <0>         0.1332
     37 H16        -4.4750   -2.2120    5.3680 H         1 <0>         0.1323
     38 H17        -4.8808    0.3051    0.9544 H         1 <0>         0.4075
     39 H18        -3.2577    1.9023   -0.4867 H         1 <0>         0.1132
     40 H19        -2.6126    0.2435   -0.4995 H         1 <0>         0.1190
     41 H20         0.0021   -0.0041    0.0020 H         1 <0>         0.1298
     42 H21         2.1203    1.2826   -0.0117 H         1 <0>         0.1364
     43 H22         1.9267    3.8606    0.0041 H         1 <0>         0.1886
     44 N2         -6.2721   -1.1906    4.9852 N.4       1 <0>        -0.3939
     45 H23        -6.6167   -1.8889    4.3160 H         1 <0>         0.4260
@<TRIPOS>BOND
     1    1    6 ar
     2    1    2 ar
     3    1   22 1
     4    2    3 ar
     5    2   23 1
     6    3    4 ar
     7    3   24 1
     8    4    5 ar
     9    4    7 1
    10    5    6 ar
    11    5   25 1
    12    6   26 1
    13    7   27 1
    14    7   28 1
    15    7   44 1
    16    8    9 1
    17    8   29 1
    18    8   30 1
    19    8   44 1
    20    9   10 1
    21    9   31 1
    22    9   32 1
    23   10   11 1
    24   10   13 1
    25   10   33 1
    26   11   12 1
    27   11   34 1
    28   11   35 1
    29   12   36 1
    30   12   37 1
    31   12   44 1
    32   13   14 am
    33   13   38 1
    34   14   15 2
    35   14   16 1
    36   16   17 1
    37   16   39 1
    38   16   40 1
    39   17   21 1
    40   17   18 2
    41   18   19 1
    42   18   41 1
    43   19   20 2
    44   19   42 1
    45   20   21 1
    46   20   43 1
    47   44   45 1
@<TRIPOS>MOLECULE
ZINC00001773
   49    54     0     0     0
SMALL
USER_CHARGES

@<TRIPOS>ATOM
      1 C1         -0.2443    1.2570    0.4660 C.ar      1 <0>        -0.1112
      2 C2          0.9083    2.0200    0.5623 C.ar      1 <0>        -0.0962
      3 C3          2.1900    1.4753    0.5348 C.ar      1 <0>         0.1149
      4 C4          2.2879    0.0876    0.3806 C.ar      1 <0>         0.0997
      5 C5          1.1121   -0.6326    0.2304 C.ar      1 <0>        -0.1886
      6 C6         -0.1602   -0.1156    0.3155 C.ar      1 <0>        -0.0596
      7 C7         -1.3282   -1.0478    0.3098 C.3       1 <0>        -0.0925
      8 C8         -0.9396   -2.5064    0.1383 C.3       1 <0>         0.0145
      9 H1         -1.6997   -3.1130    0.6306 H         1 <0>         0.1456
     10 C9          0.4167   -2.8747    0.7456 C.3       1 <0>         0.1448
     11 C10         1.4829   -2.0836    0.0450 C.3       1 <0>        -0.0304
     12 C11         1.4804   -2.4286   -1.4426 C.3       1 <0>        -0.1241
     13 C12         0.0910   -2.1126   -2.0094 C.3       1 <0>        -0.0096
     14 N1         -0.9309   -2.8716   -1.2830 N.4       1 <0>        -0.3739
     15 C13        -2.2494   -2.5851   -1.8638 C.3       1 <0>         0.0182
     16 C14        -2.3011   -3.1153   -3.2981 C.3       1 <0>        -0.2108
     17 C15        -2.4792   -2.0935   -4.4229 C.3       1 <0>        -0.1679
     18 C16        -3.6360   -3.0186   -4.0393 C.3       1 <0>        -0.1476
     19 C17         2.8868   -2.1036    0.6341 C.3       1 <0>         0.0644
     20 H2          3.5148   -2.8457    0.1412 H         1 <0>         0.1600
     21 O1          3.3506   -0.7456    0.3657 O.3       1 <0>        -0.2592
     22 C18         2.8706   -2.3034    2.1213 C.2       1 <0>         0.3361
     23 O2          3.8019   -1.8874    2.7678 O.2       1 <0>        -0.4120
     24 C19         1.7528   -2.9946    2.8421 C.3       1 <0>        -0.1575
     25 C20         0.4362   -2.5258    2.2328 C.3       1 <0>        -0.1426
     26 O3          0.6517   -4.2744    0.5791 O.3       1 <0>        -0.5414
     27 O4          3.2968    2.2569    0.6522 O.3       1 <0>        -0.4785
     28 H3         -1.2116    1.7350    0.5131 H         1 <0>         0.1418
     29 H4          0.8079    3.0906    0.6634 H         1 <0>         0.1458
     30 H5         -1.8664   -0.9385    1.2514 H         1 <0>         0.1279
     31 H6         -1.9954   -0.7663   -0.5049 H         1 <0>         0.1079
     32 H7          2.2322   -1.8319   -1.9592 H         1 <0>         0.1192
     33 H8          1.6983   -3.4885   -1.5741 H         1 <0>         0.1097
     34 H9         -0.1082   -1.0460   -1.9055 H         1 <0>         0.1319
     35 H10         0.0606   -2.3836   -3.0648 H         1 <0>         0.1393
     36 H11        -3.0221   -3.0716   -1.2686 H         1 <0>         0.1355
     37 H12        -2.4183   -1.5083   -1.8682 H         1 <0>         0.1323
     38 H13        -1.6744   -3.9837   -3.5011 H         1 <0>         0.1257
     39 H14        -2.5597   -1.0437   -4.1411 H         1 <0>         0.1059
     40 H15        -1.9696   -2.2896   -5.3663 H         1 <0>         0.1108
     41 H16        -3.8874   -3.8232   -4.7304 H         1 <0>         0.1129
     42 H17        -4.4775   -2.5773   -3.5052 H         1 <0>         0.1078
     43 H18         1.8718   -4.0736    2.7439 H         1 <0>         0.1208
     44 H19         1.7811   -2.7239    3.8976 H         1 <0>         0.1111
     45 H20         0.2965   -1.4521    2.3583 H         1 <0>         0.0987
     46 H21        -0.3620   -3.0631    2.7449 H         1 <0>         0.0955
     47 H22        -0.0114   -4.8375    1.0014 H         1 <0>         0.3955
     48 H23         3.5936    2.3840    1.5637 H         1 <0>         0.4013
     49 H24        -0.7373   -3.8580   -1.3711 H         1 <0>         0.4280
@<TRIPOS>BOND
     1    1    6 ar
     2    1    2 ar
     3    1   28 1
     4    2    3 ar
     5    2   29 1
     6    3    4 ar
     7    3   27 1
     8    4   21 1
     9    4    5 ar
    10    5   11 1
    11    5    6 ar
    12    6    7 1
    13    7    8 1
    14    7   30 1
    15    7   31 1
    16    8    9 1
    17    8   14 1
    18    8   10 1
    19   10   25 1
    20   10   11 1
    21   10   26 1
    22   11   12 1
    23   11   19 1
    24   12   13 1
    25   12   32 1
    26   12   33 1
    27   13   14 1
    28   13   34 1
    29   13   35 1
    30   14   15 1
    31   14   49 1
    32   15   16 1
    33   15   36 1
    34   15   37 1
    35   16   18 1
    36   16   17 1
    37   16   38 1
    38   17   18 1
    39   17   39 1
    40   17   40 1
    41   18   41 1
    42   18   42 1
    43   19   20 1
    44   19   21 1
    45   19   22 1
    46   22   23 2
    47   22   24 1
    48   24   25 1
    49   24   43 1
    50   24   44 1
    51   25   45 1
    52   25   46 1
    53   26   47 1
    54   27   48 1
@<TRIPOS>MOLECULE
ZINC22924834
   35    35     0     0     0
SMALL
USER_CHARGES

@<TRIPOS>ATOM
      1 C1         -0.0178    1.4648    0.0101 C.3       1 <0>        -0.0456
      2 N1          0.0021   -0.0041    0.0020 N.4       1 <0>        -0.5082
      3 C2          0.6897   -0.4778   -1.2066 C.3       1 <0>        -0.0118
      4 C3          0.7104   -2.0077   -1.2150 C.3       1 <0>         0.0242
      5 N2          1.3980   -2.4814   -2.4236 N.3       1 <0>        -0.5340
      6 C4          0.6373   -2.1356   -3.6318 C.3       1 <0>         0.0045
      7 C5          1.6477   -3.9274   -2.3547 C.3       1 <0>         0.0593
      8 C6          2.5753   -4.3399   -3.4993 C.3       1 <0>        -0.0766
      9 C7          2.8314   -5.8233   -3.4286 C.ar      1 <0>        -0.0756
     10 C8          3.8971   -6.3061   -2.6917 C.ar      1 <0>        -0.0981
     11 C9          4.1333   -7.6662   -2.6263 C.ar      1 <0>        -0.0945
     12 C10         3.3031   -8.5456   -3.2981 C.ar      1 <0>        -0.0321
     13 C11         2.2358   -8.0622   -4.0356 C.ar      1 <0>        -0.0294
     14 C12         1.9976   -6.7007   -4.0957 C.ar      1 <0>        -0.0965
     15 Cl1         1.1933   -9.1643   -4.8796 Cl        1 <0>        -0.0402
     16 Cl2         3.5997  -10.2541   -3.2169 Cl        1 <0>        -0.0389
     17 H1          1.0047    1.8421    0.0024 H         1 <0>         0.1251
     18 H2         -0.5450    1.8259   -0.8730 H         1 <0>         0.1234
     19 H3         -0.5280    1.8163    0.9069 H         1 <0>         0.1278
     20 H4          0.4901   -0.3383    0.8195 H         1 <0>         0.4313
     21 H5          0.1625   -0.1167   -2.0897 H         1 <0>         0.1316
     22 H6          1.7123   -0.1005   -1.2143 H         1 <0>         0.1419
     23 H7          1.2376   -2.3687   -0.3319 H         1 <0>         0.0981
     24 H8         -0.3122   -2.3849   -1.2073 H         1 <0>         0.0584
     25 H9          0.5269   -1.0530   -3.6942 H         1 <0>         0.0711
     26 H10         1.1687   -2.4979   -4.5118 H         1 <0>         0.0873
     27 H11        -0.3481   -2.5992   -3.5859 H         1 <0>         0.0379
     28 H12         2.1170   -4.1700   -1.4013 H         1 <0>         0.0847
     29 H13         0.7028   -4.4638   -2.4414 H         1 <0>         0.0476
     30 H14         2.1059   -4.0973   -4.4527 H         1 <0>         0.0808
     31 H15         3.5202   -3.8035   -3.4126 H         1 <0>         0.0909
     32 H16         4.5454   -5.6199   -2.1671 H         1 <0>         0.1394
     33 H17         4.9663   -8.0426   -2.0511 H         1 <0>         0.1460
     34 H18         1.1628   -6.3232   -4.6675 H         1 <0>         0.1404
     35 H19        -0.9445   -0.3533    0.0092 H         1 <0>         0.4296
@<TRIPOS>BOND
     1    1    2 1
     2    1   17 1
     3    1   18 1
     4    1   19 1
     5    2    3 1
     6    2   20 1
     7    2   35 1
     8    3    4 1
     9    3   21 1
    10    3   22 1
    11    4    5 1
    12    4   23 1
    13    4   24 1
    14    5    6 1
    15    5    7 1
    16    6   25 1
    17    6   26 1
    18    6   27 1
    19    7    8 1
    20    7   28 1
    21    7   29 1
    22    8    9 1
    23    8   30 1
    24    8   31 1
    25    9   14 ar
    26    9   10 ar
    27   10   11 ar
    28   10   32 1
    29   11   12 ar
    30   11   33 1
    31   12   13 ar
    32   12   16 1
    33   13   14 ar
    34   13   15 1
    35   14   34 1
@<TRIPOS>MOLECULE
ZINC19367174
   47    49     0     0     0
SMALL
USER_CHARGES

@<TRIPOS>ATOM
      1 C1         -0.0167    1.3781    0.0096 C.ar      1 <0>        -0.1141
      2 C2          1.1709    2.0855    0.0021 C.ar      1 <0>        -0.1191
      3 C3          2.3773    1.4107   -0.0130 C.ar      1 <0>        -0.1102
      4 C4          2.3960    0.0285   -0.0201 C.ar      1 <0>        -0.0837
      5 C5          1.2084   -0.6789   -0.0117 C.ar      1 <0>        -0.0871
      6 C6          0.0021   -0.0041    0.0020 C.ar      1 <0>        -0.1234
      7 C7          3.7112   -0.7071   -0.0376 C.3       1 <0>         0.1791
      8 C8          4.0438   -1.1746    1.3559 C.ar      1 <0>        -0.1165
      9 C9          3.5369   -2.3732    1.8222 C.ar      1 <0>        -0.0931
     10 C10         3.8420   -2.8021    3.1005 C.ar      1 <0>        -0.1219
     11 C11         4.6543   -2.0326    3.9122 C.ar      1 <0>        -0.1127
     12 C12         5.1619   -0.8345    3.4456 C.ar      1 <0>        -0.1184
     13 C13         4.8603   -0.4077    2.1658 C.ar      1 <0>        -0.1101
     14 O1          3.6140   -1.8361   -0.9083 O.3       1 <0>        -0.3556
     15 C14         4.8476   -2.1962   -1.5330 C.3       1 <0>         0.0616
     16 C15         4.6260   -3.4103   -2.4373 C.3       1 <0>         0.0585
     17 N1          3.7255   -3.0430   -3.5383 N.3       1 <0>        -0.5290
     18 C16         4.3573   -2.0602   -4.4300 C.3       1 <0>         0.0191
     19 C17         3.3675   -1.6603   -5.5263 C.3       1 <0>        -0.0019
     20 N2          2.9706   -2.8527   -6.2866 N.4       1 <0>        -0.5081
     21 C18         2.3192   -3.8144   -5.3875 C.3       1 <0>        -0.0023
     22 C19         3.3003   -4.2322   -4.2900 C.3       1 <0>         0.0245
     23 H1         -0.9591    1.9053    0.0259 H         1 <0>         0.1236
     24 H2          1.1563    3.1654    0.0076 H         1 <0>         0.1249
     25 H3          3.3051    1.9634   -0.0196 H         1 <0>         0.1203
     26 H4          1.2231   -1.7588   -0.0179 H         1 <0>         0.1238
     27 H5         -0.9258   -0.5567    0.0082 H         1 <0>         0.1227
     28 H6          4.4960   -0.0399   -0.3940 H         1 <0>         0.0742
     29 H7          2.9023   -2.9744    1.1880 H         1 <0>         0.1242
     30 H8          3.4455   -3.7381    3.4650 H         1 <0>         0.1235
     31 H9          4.8921   -2.3673    4.9112 H         1 <0>         0.1243
     32 H10         5.7962   -0.2331    4.0800 H         1 <0>         0.1250
     33 H11         5.2599    0.5266    1.7999 H         1 <0>         0.1200
     34 H12         5.2102   -1.3596   -2.1304 H         1 <0>         0.0503
     35 H13         5.5840   -2.4424   -0.7681 H         1 <0>         0.0642
     36 H14         5.5821   -3.7395   -2.8443 H         1 <0>         0.0621
     37 H15         4.1803   -4.2186   -1.8576 H         1 <0>         0.0990
     38 H16         4.6406   -1.1778   -3.8562 H         1 <0>         0.1228
     39 H17         5.2454   -2.4995   -4.8843 H         1 <0>         0.0600
     40 H18         2.4855   -1.2086   -5.0724 H         1 <0>         0.1404
     41 H19         3.8390   -0.9420   -6.1971 H         1 <0>         0.1375
     42 H20         2.3276   -2.5869   -7.0173 H         1 <0>         0.4341
     43 H21         1.4425   -3.3517   -4.9343 H         1 <0>         0.1403
     44 H22         2.0135   -4.6931   -5.9554 H         1 <0>         0.1381
     45 H23         4.1710   -4.7073   -4.7420 H         1 <0>         0.0596
     46 H24         2.8123   -4.9344   -3.6141 H         1 <0>         0.1239
     47 H25         3.7887   -3.2773   -6.6972 H         1 <0>         0.4254
@<TRIPOS>BOND
     1    1    6 ar
     2    1    2 ar
     3    1   23 1
     4    2    3 ar
     5    2   24 1
     6    3    4 ar
     7    3   25 1
     8    4    5 ar
     9    4    7 1
    10    5    6 ar
    11    5   26 1
    12    6   27 1
    13    7    8 1
    14    7   14 1
    15    7   28 1
    16    8   13 ar
    17    8    9 ar
    18    9   10 ar
    19    9   29 1
    20   10   11 ar
    21   10   30 1
    22   11   12 ar
    23   11   31 1
    24   12   13 ar
    25   12   32 1
    26   13   33 1
    27   14   15 1
    28   15   16 1
    29   15   34 1
    30   15   35 1
    31   16   17 1
    32   16   36 1
    33   16   37 1
    34   17   22 1
    35   17   18 1
    36   18   19 1
    37   18   38 1
    38   18   39 1
    39   19   20 1
    40   19   40 1
    41   19   41 1
    42   20   21 1
    43   20   42 1
    44   20   47 1
    45   21   22 1
    46   21   43 1
    47   21   44 1
    48   22   45 1
    49   22   46 1
@<TRIPOS>MOLECULE
ZINC22448826
   38    38     0     0     0
SMALL
USER_CHARGES

@<TRIPOS>ATOM
      1 C1         -0.0178    1.4648    0.0101 C.3       1 <0>        -0.0523
      2 N1          0.0021   -0.0041    0.0020 N.4       1 <0>        -0.3863
      3 C2          0.6897   -0.4778   -1.2066 C.3       1 <0>        -0.0459
      4 C3          0.7126   -0.4907    1.1921 C.3       1 <0>        -0.0114
      5 C4         -0.0711   -0.1034    2.4478 C.3       1 <0>         0.0256
      6 N2          0.6394   -0.5901    3.6379 N.3       1 <0>        -0.5338
      7 C5          0.6577   -2.0584    3.6764 C.3       1 <0>         0.0047
      8 C6          0.0498   -0.0386    4.8652 C.3       1 <0>         0.0595
      9 C7          0.9558   -0.3603    6.0554 C.3       1 <0>        -0.0766
     10 C8          0.3510    0.2055    7.3145 C.ar      1 <0>        -0.0754
     11 C9          0.6633    1.4919    7.7135 C.ar      1 <0>        -0.0982
     12 C10         0.1097    2.0118    8.8682 C.ar      1 <0>        -0.0945
     13 C11        -0.7580    1.2450    9.6253 C.ar      1 <0>        -0.0322
     14 C12        -1.0711   -0.0429    9.2255 C.ar      1 <0>        -0.0293
     15 C13        -0.5201   -0.5599    8.0666 C.ar      1 <0>        -0.0965
     16 Cl1        -2.1593   -1.0066   10.1747 Cl        1 <0>        -0.0403
     17 Cl2        -1.4533    1.8973   11.0761 Cl        1 <0>        -0.0390
     18 H1          1.0047    1.8421    0.0024 H         1 <0>         0.1247
     19 H2         -0.5450    1.8259   -0.8730 H         1 <0>         0.1254
     20 H3         -0.5280    1.8163    0.9069 H         1 <0>         0.1228
     21 H4          1.7123   -0.1005   -1.2143 H         1 <0>         0.1235
     22 H5          0.7044   -1.5677   -1.2126 H         1 <0>         0.1232
     23 H6          0.1625   -0.1167   -2.0897 H         1 <0>         0.1257
     24 H7          0.8051   -1.5756    1.1418 H         1 <0>         0.1306
     25 H8          1.7055   -0.0428    1.2310 H         1 <0>         0.1399
     26 H9         -0.1636    0.9815    2.4982 H         1 <0>         0.0978
     27 H10        -1.0640   -0.5514    2.4090 H         1 <0>         0.0575
     28 H11         1.1622   -2.4389    2.7882 H         1 <0>         0.0711
     29 H12         1.1897   -2.3920    4.5674 H         1 <0>         0.0872
     30 H13        -0.3652   -2.4340    3.7021 H         1 <0>         0.0378
     31 H14        -0.0502    1.0423    4.7664 H         1 <0>         0.0840
     32 H15        -0.9331   -0.4811    5.0268 H         1 <0>         0.0473
     33 H16         1.0558   -1.4412    6.1543 H         1 <0>         0.0809
     34 H17         1.9387    0.0823    5.8939 H         1 <0>         0.0908
     35 H18         1.3407    2.0907    7.1227 H         1 <0>         0.1393
     36 H19         0.3547    3.0164    9.1797 H         1 <0>         0.1460
     37 H20        -0.7670   -1.5631    7.7520 H         1 <0>         0.1404
     38 H21        -0.9445   -0.3533    0.0092 H         1 <0>         0.4259
@<TRIPOS>BOND
     1    1    2 1
     2    1   18 1
     3    1   19 1
     4    1   20 1
     5    2    3 1
     6    2    4 1
     7    2   38 1
     8    3   21 1
     9    3   22 1
    10    3   23 1
    11    4    5 1
    12    4   24 1
    13    4   25 1
    14    5    6 1
    15    5   26 1
    16    5   27 1
    17    6    7 1
    18    6    8 1
    19    7   28 1
    20    7   29 1
    21    7   30 1
    22    8    9 1
    23    8   31 1
    24    8   32 1
    25    9   10 1
    26    9   33 1
    27    9   34 1
    28   10   15 ar
    29   10   11 ar
    30   11   12 ar
    31   11   35 1
    32   12   13 ar
    33   12   36 1
    34   13   14 ar
    35   13   17 1
    36   14   15 ar
    37   14   16 1
    38   15   37 1
@<TRIPOS>MOLECULE
ZINC22448826
   38    38     0     0     0
SMALL
USER_CHARGES

@<TRIPOS>ATOM
      1 C1         -0.0178    1.4648    0.0101 C.3       1 <0>         0.0198
      2 N1          0.0021   -0.0041    0.0020 N.3       1 <0>        -0.5388
      3 C2          0.7859   -0.5261    1.1294 C.3       1 <0>         0.0094
      4 C3         -1.3620   -0.5491    0.0121 C.3       1 <0>         0.0253
      5 C4         -1.3110   -2.0562   -0.2470 C.3       1 <0>        -0.0107
      6 N2         -2.6751   -2.6012   -0.2369 N.4       1 <0>        -0.3840
      7 C5         -3.2500   -2.4572    1.1073 C.3       1 <0>        -0.0589
      8 C6         -2.6369   -4.0233   -0.6034 C.3       1 <0>        -0.0068
      9 C7         -4.0654   -4.5598   -0.7145 C.3       1 <0>        -0.1004
     10 C8         -4.0263   -6.0186   -1.0905 C.ar      1 <0>        -0.0923
     11 C9         -4.0244   -6.3890   -2.4226 C.ar      1 <0>        -0.0926
     12 C10        -3.9890   -7.7265   -2.7688 C.ar      1 <0>        -0.0924
     13 C11        -3.9549   -8.6957   -1.7821 C.ar      1 <0>        -0.0222
     14 C12        -3.9563   -8.3248   -0.4483 C.ar      1 <0>        -0.0310
     15 C13        -3.9866   -6.9853   -0.1036 C.ar      1 <0>        -0.0904
     16 Cl1        -3.9141   -9.5398    0.7910 Cl        1 <0>        -0.0304
     17 Cl2        -3.9110  -10.3759   -2.2163 Cl        1 <0>        -0.0278
     18 H1          1.0047    1.8421    0.0024 H         1 <0>         0.0838
     19 H2         -0.5450    1.8259   -0.8730 H         1 <0>         0.0769
     20 H3         -0.5280    1.8163    0.9069 H         1 <0>         0.0360
     21 H4          0.3442   -0.1877    2.0667 H         1 <0>         0.0368
     22 H5          0.7843   -1.6157    1.0994 H         1 <0>         0.0688
     23 H6          1.8110   -0.1623    1.0586 H         1 <0>         0.0849
     24 H7         -1.8206   -0.3627    0.9832 H         1 <0>         0.0580
     25 H8         -1.9520   -0.0663   -0.7669 H         1 <0>         0.0969
     26 H9         -0.8524   -2.2426   -1.2181 H         1 <0>         0.1410
     27 H10        -0.7210   -2.5390    0.5321 H         1 <0>         0.1304
     28 H11        -3.2783   -1.4021    1.3792 H         1 <0>         0.1249
     29 H12        -4.2622   -2.8617    1.1148 H         1 <0>         0.1276
     30 H13        -2.6361   -3.0011    1.8252 H         1 <0>         0.1240
     31 H14        -2.1301   -4.1380   -1.5615 H         1 <0>         0.1357
     32 H15        -2.0977   -4.5814    0.1621 H         1 <0>         0.1330
     33 H16        -4.5723   -4.4450    0.2436 H         1 <0>         0.1005
     34 H17        -4.6047   -4.0017   -1.4799 H         1 <0>         0.1023
     35 H18        -4.0510   -5.6326   -3.1931 H         1 <0>         0.1420
     36 H19        -3.9883   -8.0151   -3.8095 H         1 <0>         0.1506
     37 H20        -3.9836   -6.6952    0.9367 H         1 <0>         0.1441
     38 H21        -3.2434   -2.0978   -0.9014 H         1 <0>         0.4260
@<TRIPOS>BOND
     1    1    2 1
     2    1   18 1
     3    1   19 1
     4    1   20 1
     5    2    3 1
     6    2    4 1
     7    3   21 1
     8    3   22 1
     9    3   23 1
    10    4    5 1
    11    4   24 1
    12    4   25 1
    13    5    6 1
    14    5   26 1
    15    5   27 1
    16    6    7 1
    17    6    8 1
    18    6   38 1
    19    7   28 1
    20    7   29 1
    21    7   30 1
    22    8    9 1
    23    8   31 1
    24    8   32 1
    25    9   10 1
    26    9   33 1
    27    9   34 1
    28   10   15 ar
    29   10   11 ar
    30   11   12 ar
    31   11   35 1
    32   12   13 ar
    33   12   36 1
    34   13   14 ar
    35   13   17 1
    36   14   15 ar
    37   14   16 1
    38   15   37 1
@<TRIPOS>MOLECULE
ZINC22938521
   42    43     0     0     0
SMALL
USER_CHARGES
(2S,5R)-2,5-dimethyl-1-(3-phenylpropyl)piperazine
@<TRIPOS>ATOM
      1 C1         -2.0359    1.4864    3.7893 C.3       1 <0>        -0.1544
      2 C2         -0.5306    1.7349    3.6754 C.3       1 <0>         0.0580
      3 H1         -0.3239    2.8120    3.5905 H         1 <0>         0.0642
      4 C3          0.1783    1.1445    4.8967 C.3       1 <0>         0.0063
      5 N1          1.6274    1.3502    4.7657 N.4       1 <0>        -0.5392
      6 C4          2.1396    0.7079    3.5472 C.3       1 <0>         0.0391
      7 H2          1.9327   -0.3691    3.6319 H         1 <0>         0.1404
      8 C5          1.4308    1.2983    2.3259 C.3       1 <0>         0.0217
      9 N2         -0.0184    1.0926    2.4569 N.3       1 <0>        -0.5388
     10 C6         -0.7288    1.5792    1.2668 C.3       1 <0>         0.0521
     11 C7         -0.0127    1.0858    0.0080 C.3       1 <0>        -0.1193
     12 C8         -0.7527    1.5927   -1.2315 C.3       1 <0>        -0.0801
     13 C9         -0.0473    1.1067   -2.4714 C.ar      1 <0>        -0.0895
     14 C10         0.9501    1.8732   -3.0445 C.ar      1 <0>        -0.1195
     15 C11         1.6005    1.4251   -4.1790 C.ar      1 <0>        -0.1170
     16 C12         1.2465    0.2152   -4.7462 C.ar      1 <0>        -0.1197
     17 C13         0.2451   -0.5486   -4.1764 C.ar      1 <0>        -0.1156
     18 C14        -0.4016   -0.1030   -3.0389 C.ar      1 <0>        -0.1167
     19 C15         3.6451    0.9560    3.4336 C.3       1 <0>        -0.1833
     20 H3         -2.4189    1.9673    4.7015 H         1 <0>         0.0754
     21 H4         -2.2262    0.4041    3.8378 H         1 <0>         0.0781
     22 H5         -2.5448    1.9092    2.9105 H         1 <0>         0.0780
     23 H6         -0.1831    1.6442    5.8076 H         1 <0>         0.1377
     24 H7         -0.0359    0.0674    4.9599 H         1 <0>         0.1368
     25 H8          1.8416    2.4279    4.7143 H         1 <0>         0.4429
     26 H9          1.6450    2.3754    2.2628 H         1 <0>         0.0596
     27 H10         1.7922    0.7986    1.4150 H         1 <0>         0.1276
     28 H11        -1.7608    1.1985    1.2746 H         1 <0>         0.0943
     29 H12        -0.7437    2.6791    1.2728 H         1 <0>         0.0463
     30 H13         1.0193    1.4665    0.0002 H         1 <0>         0.0662
     31 H14         0.0022   -0.0141    0.0019 H         1 <0>         0.0785
     32 H15        -1.7847    1.2120   -1.2237 H         1 <0>         0.0775
     33 H16        -0.7676    2.6926   -1.2254 H         1 <0>         0.0733
     34 H17         1.2239    2.8203   -2.6037 H         1 <0>         0.1183
     35 H18         2.3826    2.0221   -4.6244 H         1 <0>         0.1233
     36 H19         1.7520   -0.1331   -5.6348 H         1 <0>         0.1242
     37 H20        -0.0317   -1.4937   -4.6198 H         1 <0>         0.1243
     38 H21        -1.1840   -0.6998   -2.5937 H         1 <0>         0.1212
     39 H22         4.0281    0.4751    2.5215 H         1 <0>         0.1072
     40 H23         4.1537    0.5330    4.3124 H         1 <0>         0.0859
     41 H24         3.8357    2.0383    3.3853 H         1 <0>         0.0810
     42 H25         2.1397    0.9157    5.6368 H         1 <0>         0.4536
@<TRIPOS>BOND
     1    1    2 1
     2    1   20 1
     3    1   21 1
     4    1   22 1
     5    2    3 1
     6    2    9 1
     7    2    4 1
     8    4    5 1
     9    4   23 1
    10    4   24 1
    11    5    6 1
    12    5   25 1
    13    5   42 1
    14    6    7 1
    15    6    8 1
    16    6   19 1
    17    8    9 1
    18    8   26 1
    19    8   27 1
    20    9   10 1
    21   10   11 1
    22   10   28 1
    23   10   29 1
    24   11   12 1
    25   11   30 1
    26   11   31 1
    27   12   13 1
    28   12   32 1
    29   12   33 1
    30   13   18 ar
    31   13   14 ar
    32   14   15 ar
    33   14   34 1
    34   15   16 ar
    35   15   35 1
    36   16   17 ar
    37   16   36 1
    38   17   18 ar
    39   17   37 1
    40   18   38 1
    41   19   39 1
    42   19   40 1
    43   19   41 1
@<TRIPOS>MOLECULE
ZINC22916571
   36    37     0     0     0
SMALL
USER_CHARGES

@<TRIPOS>ATOM
      1 C1         -0.0167    1.3781    0.0096 C.ar      1 <0>        -0.1197
      2 C2          1.1709    2.0855    0.0021 C.ar      1 <0>        -0.1159
      3 C3          2.3773    1.4107   -0.0130 C.ar      1 <0>        -0.1167
      4 C4          2.3960    0.0285   -0.0201 C.ar      1 <0>        -0.0898
      5 C5          1.2084   -0.6789   -0.0117 C.ar      1 <0>        -0.1193
      6 C6          0.0021   -0.0041    0.0020 C.ar      1 <0>        -0.1170
      7 C7          3.7112   -0.7071   -0.0376 C.3       1 <0>        -0.0794
      8 C8          4.1714   -0.9633    1.3989 C.3       1 <0>        -0.1112
      9 C9          5.5066   -1.7102    1.3812 C.3       1 <0>         0.0534
     10 N1          5.9484   -1.9561    2.7604 N.3       1 <0>        -0.5401
     11 C10         5.0416   -2.8879    3.4457 C.3       1 <0>         0.0185
     12 C11         5.5018   -3.0706    4.8937 C.3       1 <0>        -0.0030
     13 N2          6.8737   -3.5950    4.9091 N.4       1 <0>        -0.5082
     14 C12         7.7715   -2.6423    4.2430 C.3       1 <0>        -0.0027
     15 C13         7.3302   -2.4560    2.7896 C.3       1 <0>         0.0230
     16 H1         -0.9591    1.9053    0.0259 H         1 <0>         0.1241
     17 H2          1.1563    3.1654    0.0076 H         1 <0>         0.1242
     18 H3          3.3051    1.9634   -0.0196 H         1 <0>         0.1211
     19 H4          1.2231   -1.7588   -0.0176 H         1 <0>         0.1187
     20 H5         -0.9258   -0.5567    0.0082 H         1 <0>         0.1234
     21 H6          3.5884   -1.6586   -0.5549 H         1 <0>         0.0725
     22 H7          4.4573   -0.1052   -0.5563 H         1 <0>         0.0760
     23 H8          4.2941   -0.0118    1.9163 H         1 <0>         0.0778
     24 H9          3.4252   -1.5652    1.9176 H         1 <0>         0.0644
     25 H10         5.3838   -2.6617    0.8639 H         1 <0>         0.0478
     26 H11         6.2527   -1.1082    0.8625 H         1 <0>         0.0900
     27 H12         4.0290   -2.4847    3.4341 H         1 <0>         0.1256
     28 H13         5.0560   -3.8509    2.9353 H         1 <0>         0.0612
     29 H14         5.4743   -2.1098    5.4076 H         1 <0>         0.1397
     30 H15         4.8389   -3.7724    5.3998 H         1 <0>         0.1384
     31 H16         7.1724   -3.7271    5.8638 H         1 <0>         0.4343
     32 H17         7.7324   -1.6836    4.7602 H         1 <0>         0.1397
     33 H18         8.7913   -3.0265    4.2666 H         1 <0>         0.1386
     34 H19         7.3822   -3.4119    2.2684 H         1 <0>         0.0609
     35 H20         7.9872   -1.7377    2.2992 H         1 <0>         0.1237
     36 H21         6.9012   -4.4789    4.4232 H         1 <0>         0.4260
@<TRIPOS>BOND
     1    1    6 ar
     2    1    2 ar
     3    1   16 1
     4    2    3 ar
     5    2   17 1
     6    3    4 ar
     7    3   18 1
     8    4    5 ar
     9    4    7 1
    10    5    6 ar
    11    5   19 1
    12    6   20 1
    13    7    8 1
    14    7   21 1
    15    7   22 1
    16    8    9 1
    17    8   23 1
    18    8   24 1
    19    9   10 1
    20    9   25 1
    21    9   26 1
    22   10   15 1
    23   10   11 1
    24   11   12 1
    25   11   27 1
    26   11   28 1
    27   12   13 1
    28   12   29 1
    29   12   30 1
    30   13   14 1
    31   13   31 1
    32   13   36 1
    33   14   15 1
    34   14   32 1
    35   14   33 1
    36   15   34 1
    37   15   35 1
@<TRIPOS>MOLECULE
ZINC01548097
   59    62     0     0     0
SMALL
USER_CHARGES
1-[4-[3-[4-(6-fluorobenzo[d]isoxazol-3-yl)-1-piperidyl]propoxy]-3-methoxy-phenyl]ethanone
@<TRIPOS>ATOM
      1 C1          5.4534   19.1223    1.8869 C.3       1 <0>        -0.1922
      2 C2          4.3501   18.7399    2.8395 C.2       1 <0>         0.3932
      3 O1          4.0275   19.4980    3.7297 O.2       1 <0>        -0.4508
      4 C3          3.6653   17.4493    2.6899 C.ar      1 <0>        -0.1605
      5 C4          4.0360   16.5727    1.6630 C.ar      1 <0>        -0.0670
      6 C5          3.3928   15.3632    1.5254 C.ar      1 <0>        -0.1853
      7 C6          2.3755   15.0095    2.4028 C.ar      1 <0>         0.1243
      8 C7          1.9965   15.8797    3.4249 C.ar      1 <0>         0.0954
      9 C8          2.6401   17.0916    3.5742 C.ar      1 <0>        -0.1155
     10 O2          0.9963   15.5315    4.2781 O.3       1 <0>        -0.3070
     11 C9          0.6601   16.4707    5.3013 C.3       1 <0>         0.0217
     12 O3          1.7447   13.8158    2.2616 O.3       1 <0>        -0.2975
     13 C10         2.1786   12.9754    1.1904 C.3       1 <0>         0.0594
     14 C11         1.3580   11.6841    1.1907 C.3       1 <0>        -0.1527
     15 C12         1.8225   10.7843    0.0437 C.3       1 <0>        -0.0007
     16 C13         1.2834    8.7626   -1.1738 C.3       1 <0>         0.0027
     17 C14         0.3423    7.5563   -1.2082 C.3       1 <0>        -0.1449
     18 C15         0.5821    6.6925    0.0332 C.3       1 <0>        -0.0235
     19 C16         0.3647    7.5425    1.2881 C.3       1 <0>        -0.1441
     20 C17         1.3040    8.7501    1.2493 C.3       1 <0>        -0.0044
     21 C18        -0.3830    5.5351    0.0354 C.2       1 <0>         0.1306
     22 C19        -0.0312    4.1126    0.0244 C.ar      1 <0>        -0.2138
     23 C20         1.1811    3.4182    0.0091 C.ar      1 <0>        -0.0102
     24 C21         1.1816    2.0526    0.0018 C.ar      1 <0>        -0.1747
     25 C22        -0.0162    1.3468    0.0094 C.ar      1 <0>         0.1754
     26 C23        -1.2242    2.0150    0.0188 C.ar      1 <0>        -0.1636
     27 C24        -1.2442    3.4039    0.0322 C.ar      1 <0>         0.1189
     28 O4         -2.2366    4.3165    0.0466 O.3       1 <0>        -0.0742
     29 N1         -1.6781    5.6150    0.0482 N.2       1 <0>        -0.2747
     30 F1          0.0021   -0.0041    0.0020 F         1 <0>        -0.1150
     31 H1          5.0645   19.6089    1.1046 H         1 <0>         0.0900
     32 H2          6.1673   19.7681    2.3983 H         1 <0>         0.0928
     33 H3          5.9614   18.2228    1.5394 H         1 <0>         0.0866
     34 H4          4.8261   16.8453    0.9790 H         1 <0>         0.1431
     35 H5          3.6796   14.6878    0.7329 H         1 <0>         0.1405
     36 H6          2.3502   17.7645    4.3677 H         1 <0>         0.1507
     37 H7         -0.1505   16.0700    5.9101 H         1 <0>         0.1071
     38 H8          1.5320   16.6506    5.9301 H         1 <0>         0.0600
     39 H9          0.3422   17.4077    4.8442 H         1 <0>         0.0600
     40 H10         3.2338   12.7354    1.3213 H         1 <0>         0.0747
     41 H11         2.0390   13.4944    0.2421 H         1 <0>         0.0748
     42 H12         0.3028   11.9241    1.0598 H         1 <0>         0.1006
     43 H13         1.4976   11.1651    2.1390 H         1 <0>         0.1001
     44 H14         2.8777   10.5443    0.1746 H         1 <0>         0.1370
     45 H15         1.6829   11.3033   -0.9046 H         1 <0>         0.1353
     46 H16         2.3172    8.4170   -1.1787 H         1 <0>         0.1364
     47 H17         1.1053    9.3872   -2.0491 H         1 <0>         0.1367
     48 H18         0.5379    6.9676   -2.1045 H         1 <0>         0.1205
     49 H19        -0.6917    7.9008   -1.2176 H         1 <0>         0.0993
     50 H20         1.6044    6.3144    0.0219 H         1 <0>         0.1178
     51 H21        -0.6688    7.8874    1.3195 H         1 <0>         0.0992
     52 H22         0.5762    6.9440    2.1742 H         1 <0>         0.1203
     53 H23         2.3377    8.4046    1.2331 H         1 <0>         0.1369
     54 H24         1.1407    9.3656    2.1340 H         1 <0>         0.1376
     55 H25         2.1154    3.9600    0.0035 H         1 <0>         0.1452
     56 H26         2.1193    1.5169   -0.0097 H         1 <0>         0.1544
     57 H27        -2.1505    1.4597    0.0202 H         1 <0>         0.1585
     58 N2          1.0059    9.5530    0.0442 N.4       1 <0>        -0.3961
     59 H28         0.0123    9.8119    0.0539 H         1 <0>         0.4307
@<TRIPOS>BOND
     1    1    2 1
     2    1   31 1
     3    1   32 1
     4    1   33 1
     5    2    3 2
     6    2    4 1
     7    4    9 ar
     8    4    5 ar
     9    5    6 ar
    10    5   34 1
    11    6    7 ar
    12    6   35 1
    13    7    8 ar
    14    7   12 1
    15    8    9 ar
    16    8   10 1
    17    9   36 1
    18   10   11 1
    19   11   37 1
    20   11   38 1
    21   11   39 1
    22   12   13 1
    23   13   14 1
    24   13   40 1
    25   13   41 1
    26   14   15 1
    27   14   42 1
    28   14   43 1
    29   15   44 1
    30   15   45 1
    31   15   58 1
    32   16   17 1
    33   16   46 1
    34   16   47 1
    35   16   58 1
    36   17   18 1
    37   17   48 1
    38   17   49 1
    39   18   19 1
    40   18   21 1
    41   18   50 1
    42   19   20 1
    43   19   51 1
    44   19   52 1
    45   20   53 1
    46   20   54 1
    47   20   58 1
    48   21   29 2
    49   21   22 1
    50   22   27 ar
    51   22   23 ar
    52   23   24 ar
    53   23   55 1
    54   24   25 ar
    55   24   56 1
    56   25   26 ar
    57   25   30 1
    58   26   27 ar
    59   26   57 1
    60   27   28 1
    61   28   29 1
    62   58   59 1
@<TRIPOS>MOLECULE
ZINC19852856
   51    52     0     0     0
SMALL
USER_CHARGES

@<TRIPOS>ATOM
      1 C1         -0.0167    1.3781    0.0096 C.ar      1 <0>        -0.1111
      2 C2          1.1709    2.0855    0.0021 C.ar      1 <0>        -0.1149
      3 C3          2.3773    1.4107   -0.0130 C.ar      1 <0>        -0.1161
      4 C4          2.3960    0.0285   -0.0201 C.ar      1 <0>        -0.1040
      5 C5          1.2084   -0.6789   -0.0117 C.ar      1 <0>        -0.1157
      6 C6          0.0021   -0.0041    0.0020 C.ar      1 <0>        -0.1145
      7 C7          3.7112   -0.7071   -0.0376 C.3       1 <0>        -0.0720
      8 C8          4.1714   -0.9633    1.3989 C.3       1 <0>        -0.1437
      9 C9          5.5066   -1.7102    1.3812 C.3       1 <0>        -0.0100
     10 N1          5.9484   -1.9561    2.7604 N.4       1 <0>        -0.3870
     11 C10         6.2271   -0.6741    3.4209 C.3       1 <0>        -0.0074
     12 C11         6.6694   -0.9289    4.8636 C.3       1 <0>         0.0272
     13 N2          7.8739   -1.7710    4.8622 N.3       1 <0>        -0.5399
     14 C12         7.6170   -3.0483    4.1820 C.3       1 <0>         0.0218
     15 C13         7.1670   -2.7761    2.7450 C.3       1 <0>        -0.0030
     16 C14         8.3634   -1.9918    6.2295 C.3       1 <0>         0.0528
     17 C15         9.7419   -2.6536    6.1771 C.3       1 <0>        -0.1182
     18 C16        10.2517   -2.8836    7.6012 C.3       1 <0>        -0.1536
     19 C17        11.6302   -3.5454    7.5488 C.3       1 <0>        -0.0080
     20 N3         12.1197   -3.7662    8.9161 N.4       1 <0>        -0.6392
     21 H1         -0.9591    1.9053    0.0259 H         1 <0>         0.1279
     22 H2          1.1563    3.1654    0.0076 H         1 <0>         0.1270
     23 H3          3.3051    1.9634   -0.0196 H         1 <0>         0.1209
     24 H4          1.2231   -1.7588   -0.0176 H         1 <0>         0.1210
     25 H5         -0.9258   -0.5567    0.0082 H         1 <0>         0.1271
     26 H6          3.5884   -1.6586   -0.5549 H         1 <0>         0.0834
     27 H7          4.4573   -0.1052   -0.5563 H         1 <0>         0.0833
     28 H8          4.2941   -0.0118    1.9163 H         1 <0>         0.0882
     29 H9          3.4252   -1.5652    1.9176 H         1 <0>         0.0881
     30 H10         5.3838   -2.6617    0.8639 H         1 <0>         0.1340
     31 H11         6.2527   -1.1082    0.8625 H         1 <0>         0.1330
     32 H12         7.0204   -0.1538    2.8842 H         1 <0>         0.1395
     33 H13         5.3256   -0.0614    3.4201 H         1 <0>         0.1400
     34 H14         6.8906    0.0215    5.3494 H         1 <0>         0.1250
     35 H15         5.8710   -1.4370    5.4044 H         1 <0>         0.0630
     36 H16         8.5296   -3.6442    4.1706 H         1 <0>         0.1220
     37 H17         6.8343   -3.5914    4.7116 H         1 <0>         0.0621
     38 H18         6.9623   -3.7217    2.2431 H         1 <0>         0.1376
     39 H19         7.9555   -2.2450    2.2118 H         1 <0>         0.1386
     40 H20         8.4389   -1.0356    6.7473 H         1 <0>         0.0923
     41 H21         7.6691   -2.6404    6.7637 H         1 <0>         0.0501
     42 H22         9.6664   -3.6098    5.6594 H         1 <0>         0.0753
     43 H23        10.4362   -2.0050    5.6429 H         1 <0>         0.0890
     44 H24        10.3272   -1.9274    8.1189 H         1 <0>         0.0926
     45 H25         9.5574   -3.5322    8.1354 H         1 <0>         0.0890
     46 H26        11.5547   -4.5016    7.0310 H         1 <0>         0.1335
     47 H27        12.3245   -2.8968    7.0146 H         1 <0>         0.1358
     48 H28        12.1896   -2.8811    9.3953 H         1 <0>         0.4373
     49 H29        11.4769   -4.3666    9.4106 H         1 <0>         0.4364
     50 H30        13.0287   -4.2027    8.8815 H         1 <0>         0.4424
     51 H31         5.2222   -2.4427    3.2643 H         1 <0>         0.4210
@<TRIPOS>BOND
     1    1    6 ar
     2    1    2 ar
     3    1   21 1
     4    2    3 ar
     5    2   22 1
     6    3    4 ar
     7    3   23 1
     8    4    5 ar
     9    4    7 1
    10    5    6 ar
    11    5   24 1
    12    6   25 1
    13    7    8 1
    14    7   26 1
    15    7   27 1
    16    8    9 1
    17    8   28 1
    18    8   29 1
    19    9   10 1
    20    9   30 1
    21    9   31 1
    22   10   15 1
    23   10   11 1
    24   10   51 1
    25   11   12 1
    26   11   32 1
    27   11   33 1
    28   12   13 1
    29   12   34 1
    30   12   35 1
    31   13   14 1
    32   13   16 1
    33   14   15 1
    34   14   36 1
    35   14   37 1
    36   15   38 1
    37   15   39 1
    38   16   17 1
    39   16   40 1
    40   16   41 1
    41   17   18 1
    42   17   42 1
    43   17   43 1
    44   18   19 1
    45   18   44 1
    46   18   45 1
    47   19   20 1
    48   19   46 1
    49   19   47 1
    50   20   48 1
    51   20   49 1
    52   20   50 1
@<TRIPOS>MOLECULE
ZINC13491909
   44    47     0     0     0
SMALL
USER_CHARGES
(1R)-1'-benzylspiro[1H-isobenzofuran-3,4'-piperidine]-1-carbonitrile
@<TRIPOS>ATOM
      1 C1         -0.2442    0.4696    5.8058 C.ar      1 <0>        -0.0842
      2 C2         -0.1926    1.7274    5.2347 C.ar      1 <0>        -0.1140
      3 C3         -1.0192    2.0380    4.1711 C.ar      1 <0>        -0.0965
      4 C4         -1.8967    1.0905    3.6781 C.ar      1 <0>        -0.1617
      5 C5         -1.9517   -0.1657    4.2522 C.ar      1 <0>        -0.0944
      6 C6         -1.1220   -0.4777    5.3130 C.ar      1 <0>        -0.1137
      7 C7         -2.7978    1.4291    2.5186 C.3       1 <0>         0.0493
      8 C8         -0.7308    1.5803    1.2665 C.3       1 <0>        -0.0017
      9 C9         -0.0127    1.0858    0.0080 C.3       1 <0>        -0.1579
     10 C10        -0.7531    1.5927   -1.2286 C.3       1 <0>         0.1379
     11 C11        -2.2108    1.1370   -1.1893 C.3       1 <0>        -0.1323
     12 C12        -2.8604    1.6292    0.1068 C.3       1 <0>         0.0000
     13 C13        -0.0823    1.0893   -2.4817 C.ar      1 <0>        -0.1240
     14 C14        -0.1030   -0.1262   -3.1346 C.ar      1 <0>        -0.0847
     15 C15         0.6304   -0.2996   -4.2940 C.ar      1 <0>        -0.0974
     16 C16         1.3839    0.7437   -4.7994 C.ar      1 <0>        -0.0981
     17 C17         1.4056    1.9618   -4.1451 C.ar      1 <0>        -0.0732
     18 C18         0.6737    2.1356   -2.9887 C.ar      1 <0>        -0.1271
     19 C19         0.4896    3.3135   -2.0602 C.3       1 <0>         0.2275
     20 H1          0.3463    4.2279   -2.6359 H         1 <0>         0.1593
     21 O1         -0.6890    3.0263   -1.2839 O.3       1 <0>        -0.3223
     22 C20         1.6585    3.4496   -1.1759 C.1       1 <0>         0.1748
     23 N1          2.5606    3.5547   -0.4935 N.1       1 <0>        -0.3789
     24 H2          0.4016    0.2270    6.6367 H         1 <0>         0.1358
     25 H3          0.4932    2.4676    5.6196 H         1 <0>         0.1359
     26 H4         -0.9791    3.0208    3.7252 H         1 <0>         0.1304
     27 H5         -2.6404   -0.9046    3.8699 H         1 <0>         0.1314
     28 H6         -1.1621   -1.4605    5.7590 H         1 <0>         0.1360
     29 H7         -3.0304    2.4939    2.5380 H         1 <0>         0.1376
     30 H8         -3.7206    0.8542    2.5956 H         1 <0>         0.1363
     31 H9         -0.2187    1.1998    2.1503 H         1 <0>         0.1353
     32 H10        -0.7244    2.6702    1.2840 H         1 <0>         0.1346
     33 H11         0.0021   -0.0041    0.0020 H         1 <0>         0.1048
     34 H12         1.0097    1.4636    0.0003 H         1 <0>         0.1101
     35 H13        -2.7448    1.5517   -2.0442 H         1 <0>         0.1271
     36 H14        -2.2528    0.0484   -1.2272 H         1 <0>         0.1055
     37 H15        -2.8404    2.7187    0.1322 H         1 <0>         0.1389
     38 H16        -3.8933    1.2836    0.1495 H         1 <0>         0.1357
     39 H17        -0.6911   -0.9415   -2.7401 H         1 <0>         0.1300
     40 H18         0.6143   -1.2507   -4.8055 H         1 <0>         0.1389
     41 H19         1.9562    0.6071   -5.7051 H         1 <0>         0.1404
     42 H20         1.9942    2.7769   -4.5396 H         1 <0>         0.1367
     43 N2         -2.1189    1.0686    1.2570 N.4       1 <0>        -0.3926
     44 H21        -2.0958    0.0456    1.1714 H         1 <0>         0.4246
@<TRIPOS>BOND
     1    1    6 ar
     2    1    2 ar
     3    1   24 1
     4    2    3 ar
     5    2   25 1
     6    3    4 ar
     7    3   26 1
     8    4    5 ar
     9    4    7 1
    10    5    6 ar
    11    5   27 1
    12    6   28 1
    13    7   29 1
    14    7   30 1
    15    7   43 1
    16    8    9 1
    17    8   31 1
    18    8   32 1
    19    8   43 1
    20    9   10 1
    21    9   33 1
    22    9   34 1
    23   10   21 1
    24   10   11 1
    25   10   13 1
    26   11   12 1
    27   11   35 1
    28   11   36 1
    29   12   37 1
    30   12   38 1
    31   12   43 1
    32   13   18 ar
    33   13   14 ar
    34   14   15 ar
    35   14   39 1
    36   15   16 ar
    37   15   40 1
    38   16   17 ar
    39   16   41 1
    40   17   18 ar
    41   17   42 1
    42   18   19 1
    43   19   20 1
    44   19   21 1
    45   19   22 1
    46   22   23 3
    47   43   44 1
@<TRIPOS>MOLECULE
ZINC13491910
   44    47     0     0     0
SMALL
USER_CHARGES
(1S)-1'-benzylspiro[1H-isobenzofuran-3,4'-piperidine]-1-carbonitrile
@<TRIPOS>ATOM
      1 C1          3.7849    8.4488   -3.2085 C.ar      1 <0>        -0.0839
      2 C2          4.4563    8.4145   -2.0006 C.ar      1 <0>        -0.1132
      3 C3          4.6919    7.2046   -1.3749 C.ar      1 <0>        -0.0943
      4 C4          4.2557    6.0291   -1.9568 C.ar      1 <0>        -0.1635
      5 C5          3.5889    6.0629   -3.1672 C.ar      1 <0>        -0.0970
      6 C6          3.3495    7.2732   -3.7908 C.ar      1 <0>        -0.1135
      7 C7          4.5125    4.7101   -1.2746 C.3       1 <0>         0.0495
      8 C8          3.7080    3.2448    0.4765 C.3       1 <0>        -0.0011
      9 C9          2.5844    3.0420    1.4966 C.3       1 <0>        -0.1322
     10 C10         1.2666    2.8179    0.7566 C.3       1 <0>         0.1379
     11 C11         0.9829    3.9959   -0.1742 C.3       1 <0>        -0.1579
     12 C12         2.1568    4.1686   -1.1419 C.3       1 <0>        -0.0014
     13 C13         0.1369    2.6448    1.7400 C.ar      1 <0>        -0.1239
     14 C14        -0.2069    3.3050    2.9018 C.ar      1 <0>        -0.0846
     15 C15        -1.3273    2.9148    3.6122 C.ar      1 <0>        -0.0974
     16 C16        -2.1034    1.8640    3.1590 C.ar      1 <0>        -0.0981
     17 C17        -1.7596    1.2021    1.9946 C.ar      1 <0>        -0.0732
     18 C18        -0.6418    1.5909    1.2858 C.ar      1 <0>        -0.1270
     19 C19        -0.0127    1.0858    0.0080 C.3       1 <0>         0.2275
     20 H1          0.0021   -0.0041    0.0020 H         1 <0>         0.1594
     21 O1          1.3323    1.6002   -0.0021 O.3       1 <0>        -0.3223
     22 C20        -0.7567    1.5887   -1.1584 C.1       1 <0>         0.1749
     23 N1         -1.3308    1.9768   -2.0585 N.1       1 <0>        -0.3790
     24 H2          3.6002    9.3941   -3.6970 H         1 <0>         0.1358
     25 H3          4.7965    9.3330   -1.5457 H         1 <0>         0.1362
     26 H4          5.2165    7.1779   -0.4313 H         1 <0>         0.1316
     27 H5          3.2519    5.1441   -3.6240 H         1 <0>         0.1305
     28 H6          2.8246    7.3000   -4.7343 H         1 <0>         0.1358
     29 H7          5.4333    4.7741   -0.6948 H         1 <0>         0.1372
     30 H8          4.6096    3.9256   -2.0252 H         1 <0>         0.1375
     31 H9          4.6456    3.4295    1.0008 H         1 <0>         0.1353
     32 H10         3.8059    2.3503   -0.1387 H         1 <0>         0.1395
     33 H11         2.5016    3.9268    2.1277 H         1 <0>         0.1053
     34 H12         2.8065    2.1728    2.1157 H         1 <0>         0.1272
     35 H13         0.0710    3.8022   -0.7390 H         1 <0>         0.1106
     36 H14         0.8606    4.9045    0.4154 H         1 <0>         0.1051
     37 H15         1.9691    5.0233   -1.7918 H         1 <0>         0.1325
     38 H16         2.2639    3.2686   -1.7474 H         1 <0>         0.1359
     39 H17         0.3985    4.1263    3.2559 H         1 <0>         0.1300
     40 H18        -1.5965    3.4314    4.5216 H         1 <0>         0.1389
     41 H19        -2.9786    1.5605    3.7143 H         1 <0>         0.1405
     42 H20        -2.3659    0.3816    1.6402 H         1 <0>         0.1367
     43 N2          3.3877    4.4200   -0.3618 N.4       1 <0>        -0.3924
     44 H21         3.2353    5.2320    0.2478 H         1 <0>         0.4246
@<TRIPOS>BOND
     1    1    6 ar
     2    1    2 ar
     3    1   24 1
     4    2    3 ar
     5    2   25 1
     6    3    4 ar
     7    3   26 1
     8    4    5 ar
     9    4    7 1
    10    5    6 ar
    11    5   27 1
    12    6   28 1
    13    7   29 1
    14    7   30 1
    15    7   43 1
    16    8    9 1
    17    8   31 1
    18    8   32 1
    19    8   43 1
    20    9   10 1
    21    9   33 1
    22    9   34 1
    23   10   21 1
    24   10   11 1
    25   10   13 1
    26   11   12 1
    27   11   35 1
    28   11   36 1
    29   12   37 1
    30   12   38 1
    31   12   43 1
    32   13   18 ar
    33   13   14 ar
    34   14   15 ar
    35   14   39 1
    36   15   16 ar
    37   15   40 1
    38   16   17 ar
    39   16   41 1
    40   17   18 ar
    41   17   42 1
    42   18   19 1
    43   19   20 1
    44   19   21 1
    45   19   22 1
    46   22   23 3
    47   43   44 1
