@<TRIPOS>MOLECULE
ZINC00000596
   49    51     0     0     0
SMALL
USER_CHARGES
dimethyl-(3-methylbut-2-enyl)BLAHol
@<TRIPOS>ATOM
      1 C1          1.1810    0.6734   -0.4602 C.3       1 <0>        -0.1552
      2 C2         -0.3103    0.3734   -0.2964 C.3       1 <0>        -0.0889
      3 H1         -0.4566   -0.6974   -0.1546 H         1 <0>         0.1007
      4 C3         -0.8596    1.1333    0.9106 C.3       1 <0>         0.0339
      5 H2         -0.3716    0.7400    1.8024 H         1 <0>         0.1315
      6 C4         -0.4886    2.6026    0.8088 C.3       1 <0>        -0.0890
      7 C5         -0.7124    3.1461   -0.5773 C.ar      1 <0>        -0.1105
      8 C6         -0.6417    4.5245   -0.7476 C.ar      1 <0>        -0.0947
      9 C7         -0.8037    5.0868   -1.9953 C.ar      1 <0>        -0.1368
     10 C8         -1.0399    4.2730   -3.0941 C.ar      1 <0>         0.1240
     11 C9         -1.1181    2.9007   -2.9238 C.ar      1 <0>        -0.1397
     12 C10        -0.9596    2.3404   -1.6653 C.ar      1 <0>        -0.0583
     13 C11        -1.0712    0.8387   -1.5424 C.3       1 <0>        -0.0213
     14 C12        -2.5604    0.5047   -1.3358 C.3       1 <0>        -0.1334
     15 C13        -3.0578    1.3124   -0.1317 C.3       1 <0>        -0.0053
     16 C14        -2.8018    1.6243    2.2533 C.3       1 <0>         0.0259
     17 C15        -4.2991    1.4695    2.3258 C.2       1 <0>        -0.2563
     18 C16        -5.0630    2.5289    2.4263 C.2       1 <0>        -0.0381
     19 C17        -4.4429    3.8911    2.6019 C.3       1 <0>        -0.1488
     20 C18        -6.5620    2.3854    2.3663 C.3       1 <0>        -0.1379
     21 C19        -0.5306    0.1432   -2.7933 C.3       1 <0>        -0.1469
     22 O1         -1.1938    4.8189   -4.3291 O.3       1 <0>        -0.4948
     23 H3          1.7168    0.3508    0.4325 H         1 <0>         0.0686
     24 H4          1.5661    0.1382   -1.3282 H         1 <0>         0.0801
     25 H5          1.3227    1.7449   -0.6017 H         1 <0>         0.0720
     26 H6         -1.0945    3.1709    1.5146 H         1 <0>         0.0928
     27 H7          0.5628    2.7216    1.0708 H         1 <0>         0.1221
     28 H8         -0.4582    5.1602    0.1059 H         1 <0>         0.1313
     29 H9         -0.7465    6.1583   -2.1177 H         1 <0>         0.1363
     30 H10        -1.3033    2.2635   -3.7759 H         1 <0>         0.1374
     31 H11        -2.6758   -0.5611   -1.1388 H         1 <0>         0.0935
     32 H12        -3.1280    0.7795   -2.2249 H         1 <0>         0.1121
     33 H13        -4.1155    1.1061    0.0322 H         1 <0>         0.1284
     34 H14        -2.9211    2.3761   -0.3263 H         1 <0>         0.1309
     35 H15        -2.3482    1.1918    3.1451 H         1 <0>         0.1302
     36 H16        -2.5484    2.6828    2.1938 H         1 <0>         0.1348
     37 H17        -4.7423    0.4851    2.2948 H         1 <0>         0.1345
     38 H18        -4.1823    4.3003    1.6258 H         1 <0>         0.0808
     39 H19        -5.1543    4.5533    3.0953 H         1 <0>         0.0842
     40 H20        -3.5435    3.8050    3.2116 H         1 <0>         0.0726
     41 H21        -6.8215    1.3347    2.2372 H         1 <0>         0.0712
     42 H22        -6.9998    2.7566    3.2929 H         1 <0>         0.0829
     43 H23        -6.9487    2.9612    1.5255 H         1 <0>         0.0838
     44 H24        -0.6488   -0.9354   -2.6891 H         1 <0>         0.0700
     45 H25        -1.0835    0.4866   -3.6676 H         1 <0>         0.0708
     46 H26         0.5259    0.3828   -2.9143 H         1 <0>         0.0738
     47 H27        -2.1084    5.0436   -4.5486 H         1 <0>         0.3984
     48 N1         -2.3079    0.8926    1.0783 N.4       1 <0>        -0.3801
     49 H28        -2.4589   -0.1122    1.2258 H         1 <0>         0.4267
@<TRIPOS>BOND
     1    1    2 1
     2    1   23 1
     3    1   24 1
     4    1   25 1
     5    2    3 1
     6    2   13 1
     7    2    4 1
     8    4    5 1
     9    4    6 1
    10    4   48 1
    11    6    7 1
    12    6   26 1
    13    6   27 1
    14    7   12 ar
    15    7    8 ar
    16    8    9 ar
    17    8   28 1
    18    9   10 ar
    19    9   29 1
    20   10   11 ar
    21   10   22 1
    22   11   12 ar
    23   11   30 1
    24   12   13 1
    25   13   14 1
    26   13   21 1
    27   14   15 1
    28   14   31 1
    29   14   32 1
    30   15   33 1
    31   15   34 1
    32   15   48 1
    33   16   17 1
    34   16   35 1
    35   16   36 1
    36   16   48 1
    37   17   18 2
    38   17   37 1
    39   18   19 1
    40   18   20 1
    41   19   38 1
    42   19   39 1
    43   19   40 1
    44   20   41 1
    45   20   42 1
    46   20   43 1
    47   21   44 1
    48   21   45 1
    49   21   46 1
    50   22   47 1
    51   48   49 1
@<TRIPOS>MOLECULE
ZINC00020242
   49    51     0     0     0
SMALL
USER_CHARGES
dimethyl-(3-methylbut-2-enyl)BLAHol
@<TRIPOS>ATOM
      1 C1          2.8748   -2.7998    3.4003 C.3       1 <0>        -0.1737
      2 C2          2.5408   -3.5945    2.1363 C.3       1 <0>        -0.0925
      3 H1          3.3163   -4.3382    1.9531 H         1 <0>         0.1211
      4 C3          2.4432   -2.6461    0.9416 C.3       1 <0>         0.0366
      5 H2          3.3814   -2.0951    0.8759 H         1 <0>         0.1324
      6 C4          2.2913   -3.4593   -0.3321 C.3       1 <0>        -0.0887
      7 C5          1.3040   -4.5835   -0.1696 C.ar      1 <0>        -0.1114
      8 C6          0.8805   -5.2403   -1.3201 C.ar      1 <0>        -0.0941
      9 C7         -0.0116   -6.2878   -1.2424 C.ar      1 <0>        -0.1365
     10 C8         -0.4923   -6.6949   -0.0060 C.ar      1 <0>         0.1235
     11 C9         -0.0749   -6.0379    1.1396 C.ar      1 <0>        -0.1393
     12 C10         0.8163   -4.9790    1.0549 C.ar      1 <0>        -0.0634
     13 C11         1.2029   -4.2779    2.3364 C.3       1 <0>        -0.0189
     14 C12         0.1456   -3.1917    2.6027 C.3       1 <0>        -0.1361
     15 C13         0.0605   -2.3041    1.3361 C.3       1 <0>        -0.0094
     16 C14         1.3172   -0.7397   -0.0145 C.3       1 <0>         0.0286
     17 C15         0.1425    0.1888    0.1560 C.2       1 <0>        -0.2623
     18 C16         0.3257    1.4858    0.1437 C.2       1 <0>        -0.0336
     19 C17         1.7110    2.0495   -0.0411 C.3       1 <0>        -0.1494
     20 C18        -0.8499    2.4144    0.3080 C.3       1 <0>        -0.1391
     21 C19         1.2570   -5.2724    3.4979 C.3       1 <0>        -0.1466
     22 O1         -1.3672   -7.7313    0.0802 O.3       1 <0>        -0.4949
     23 H3          2.0911   -2.0653    3.5854 H         1 <0>         0.0560
     24 H4          2.9434   -3.4798    4.2494 H         1 <0>         0.0886
     25 H5          3.8280   -2.2883    3.2666 H         1 <0>         0.0738
     26 H6          1.9520   -2.8027   -1.1333 H         1 <0>         0.0954
     27 H7          3.2608   -3.8771   -0.6035 H         1 <0>         0.1212
     28 H8          1.2539   -4.9261   -2.2835 H         1 <0>         0.1318
     29 H9         -0.3361   -6.7904   -2.1416 H         1 <0>         0.1365
     30 H10        -0.4454   -6.3523    2.1042 H         1 <0>         0.1376
     31 H11        -0.8225   -3.6565    2.7893 H         1 <0>         0.1108
     32 H12         0.4406   -2.5925    3.4641 H         1 <0>         0.0984
     33 H13        -0.6913   -1.5303    1.4912 H         1 <0>         0.1285
     34 H14        -0.2082   -2.9023    0.4654 H         1 <0>         0.1342
     35 H15         1.2081   -1.2965   -0.9452 H         1 <0>         0.1358
     36 H16         2.2386   -0.1582   -0.0449 H         1 <0>         0.1290
     37 H17        -0.8503   -0.2152    0.2884 H         1 <0>         0.1344
     38 H18         2.1137    1.7176   -0.9981 H         1 <0>         0.0817
     39 H19         1.6655    3.1384   -0.0241 H         1 <0>         0.0817
     40 H20         2.3559    1.7002    0.7652 H         1 <0>         0.0757
     41 H21        -0.9983    2.6289    1.3663 H         1 <0>         0.0852
     42 H22        -0.6563    3.3439   -0.2275 H         1 <0>         0.0794
     43 H23        -1.7453    1.9420   -0.0961 H         1 <0>         0.0751
     44 H24         1.9950   -6.0446    3.2810 H         1 <0>         0.0711
     45 H25         1.5370   -4.7486    4.4119 H         1 <0>         0.0722
     46 H26         0.2774   -5.7323    3.6283 H         1 <0>         0.0715
     47 H27        -2.2959   -7.4673    0.0279 H         1 <0>         0.3984
     48 N1          1.3757   -1.6443    1.1423 N.4       1 <0>        -0.3817
     49 H28         1.5942   -1.0952    1.9820 H         1 <0>         0.4253
@<TRIPOS>BOND
     1    1    2 1
     2    1   23 1
     3    1   24 1
     4    1   25 1
     5    2    3 1
     6    2   13 1
     7    2    4 1
     8    4    5 1
     9    4    6 1
    10    4   48 1
    11    6    7 1
    12    6   26 1
    13    6   27 1
    14    7   12 ar
    15    7    8 ar
    16    8    9 ar
    17    8   28 1
    18    9   10 ar
    19    9   29 1
    20   10   11 ar
    21   10   22 1
    22   11   12 ar
    23   11   30 1
    24   12   13 1
    25   13   14 1
    26   13   21 1
    27   14   15 1
    28   14   31 1
    29   14   32 1
    30   15   33 1
    31   15   34 1
    32   15   48 1
    33   16   17 1
    34   16   35 1
    35   16   36 1
    36   16   48 1
    37   17   18 2
    38   17   37 1
    39   18   19 1
    40   18   20 1
    41   19   38 1
    42   19   39 1
    43   19   40 1
    44   20   41 1
    45   20   42 1
    46   20   43 1
    47   21   44 1
    48   21   45 1
    49   21   46 1
    50   22   47 1
    51   48   49 1
@<TRIPOS>MOLECULE
ZINC03785159
   38    39     0     0     0
SMALL
USER_CHARGES

@<TRIPOS>ATOM
      1 C1         -0.0187    1.5258    0.0104 C.3       1 <0>        -0.1566
      2 C2          0.0021   -0.0041    0.0020 C.3       1 <0>        -0.1507
      3 C3          0.7421   -0.5109    1.2415 C.3       1 <0>        -0.0110
      4 N1          0.7620   -1.9797    1.2335 N.4       1 <0>        -0.3831
      5 C4          1.5443   -2.4507    0.0842 C.3       1 <0>        -0.0135
      6 C5          1.5009   -3.9791    0.0247 C.3       1 <0>        -0.1453
      7 C6          2.0923   -4.5518    1.3160 C.3       1 <0>        -0.1318
      8 C7          1.3153   -3.9953    2.5125 C.3       1 <0>        -0.0601
      9 H1          0.2782   -4.3266    2.4589 H         1 <0>         0.1042
     10 C8          1.3656   -2.4663    2.4799 C.3       1 <0>        -0.0041
     11 C9          1.9371   -4.4929    3.7918 C.ar      1 <0>        -0.0999
     12 C10         3.2550   -4.1875    4.0833 C.ar      1 <0>        -0.0864
     13 C11         3.8337   -4.6403    5.2554 C.ar      1 <0>        -0.1095
     14 C12         3.0992   -5.3998    6.1426 C.ar      1 <0>        -0.0579
     15 C13         1.7690   -5.7113    5.8551 C.ar      1 <0>        -0.0108
     16 C14         1.1897   -5.2470    4.6723 C.ar      1 <0>        -0.0597
     17 C15         1.0006   -6.4993    6.7713 C.1       1 <0>         0.2349
     18 N2          0.3911   -7.1243    7.4981 N.1       1 <0>        -0.3886
     19 H2          1.0039    1.9031    0.0027 H         1 <0>         0.0669
     20 H3         -0.5459    1.8868   -0.8726 H         1 <0>         0.0774
     21 H4         -0.5289    1.8773    0.9072 H         1 <0>         0.0673
     22 H5         -1.0205   -0.3814    0.0098 H         1 <0>         0.0859
     23 H6          0.5123   -0.3556   -0.8948 H         1 <0>         0.0861
     24 H7          1.7647   -0.1336    1.2338 H         1 <0>         0.1296
     25 H8          0.2319   -0.1594    2.1383 H         1 <0>         0.1311
     26 H9          1.1241   -2.0397   -0.8337 H         1 <0>         0.1326
     27 H10         2.5779   -2.1208    0.1892 H         1 <0>         0.1291
     28 H11         0.4677   -4.3100   -0.0805 H         1 <0>         0.0890
     29 H12         2.0838   -4.3268   -0.8282 H         1 <0>         0.1149
     30 H13         2.0121   -5.6388    1.3029 H         1 <0>         0.0982
     31 H14         3.1404   -4.2635    1.3960 H         1 <0>         0.0856
     32 H15         2.4030   -2.1361    2.5337 H         1 <0>         0.1312
     33 H16         0.8134   -2.0668    3.3305 H         1 <0>         0.1336
     34 H17         3.8345   -3.5933    3.3923 H         1 <0>         0.1298
     35 H18         4.8629   -4.3989    5.4763 H         1 <0>         0.1417
     36 H19         3.5523   -5.7530    7.0571 H         1 <0>         0.1409
     37 H20         0.1600   -5.4811    4.4456 H         1 <0>         0.1364
     38 H21        -0.1823   -2.3275    1.1601 H         1 <0>         0.4227
@<TRIPOS>BOND
     1    1    2 1
     2    1   19 1
     3    1   20 1
     4    1   21 1
     5    2    3 1
     6    2   22 1
     7    2   23 1
     8    3    4 1
     9    3   24 1
    10    3   25 1
    11    4   10 1
    12    4    5 1
    13    4   38 1
    14    5    6 1
    15    5   26 1
    16    5   27 1
    17    6    7 1
    18    6   28 1
    19    6   29 1
    20    7    8 1
    21    7   30 1
    22    7   31 1
    23    8    9 1
    24    8   10 1
    25    8   11 1
    26   10   32 1
    27   10   33 1
    28   11   16 ar
    29   11   12 ar
    30   12   13 ar
    31   12   34 1
    32   13   14 ar
    33   13   35 1
    34   14   15 ar
    35   14   36 1
    36   15   16 ar
    37   15   17 1
    38   16   37 1
    39   17   18 3
@<TRIPOS>MOLECULE
ZINC49072985
   42    44     0     0     0
SMALL
USER_CHARGES

@<TRIPOS>ATOM
      1 C1         -0.0196    1.3549   -0.0390 C.ar      1 <0>        -0.1034
      2 C2          1.1650    2.0675   -0.0323 C.ar      1 <0>        -0.1136
      3 C3          2.3744    1.3979   -0.0386 C.ar      1 <0>        -0.1098
      4 C4          2.3992    0.0158   -0.0512 C.ar      1 <0>        -0.1096
      5 C5          1.2146   -0.6967   -0.0570 C.ar      1 <0>        -0.1102
      6 C6          0.0053   -0.0271   -0.0521 C.ar      1 <0>        -0.1138
      7 C7          3.7176   -0.7141   -0.0590 C.3       1 <0>        -0.0990
      8 C8          4.1651   -0.9742    1.3807 C.3       1 <0>        -0.0064
      9 N1          5.4503   -1.6857    1.3731 N.4       1 <0>        -0.3825
     10 C9          5.2706   -3.0106    0.7660 C.3       1 <0>        -0.0278
     11 C10         6.6302   -3.7081    0.6529 C.3       1 <0>         0.0997
     12 N2          7.2552   -3.7300    1.9844 N.pl3     1 <0>        -0.6401
     13 C11         7.3293   -2.4678    2.7363 C.3       1 <0>         0.0997
     14 C12         5.9367   -1.8288    2.7511 C.3       1 <0>        -0.0218
     15 C13         7.7637   -4.9160    2.5199 C.ar      1 <0>         0.1452
     16 C14         7.5898   -6.1254    1.8506 C.ar      1 <0>        -0.1434
     17 C15         8.1119   -7.2741    2.4215 C.ar      1 <0>        -0.1203
     18 C16         8.7833   -7.1843    3.6269 C.ar      1 <0>         0.0629
     19 N3          8.9311   -6.0239    4.2355 N.ar      1 <0>        -0.4431
     20 C17         8.4551   -4.9060    3.7244 C.ar      1 <0>         0.0413
     21 H1         -0.9644    1.8780   -0.0296 H         1 <0>         0.1302
     22 H2          1.1456    3.1472   -0.0225 H         1 <0>         0.1299
     23 H3          3.2998    1.9546   -0.0341 H         1 <0>         0.1243
     24 H4          1.2340   -1.7765   -0.0671 H         1 <0>         0.1232
     25 H5         -0.9202   -0.5838   -0.0570 H         1 <0>         0.1296
     26 H6          3.6039   -1.6640   -0.5814 H         1 <0>         0.0942
     27 H7          4.4660   -0.1068   -0.5681 H         1 <0>         0.0955
     28 H8          4.2788   -0.0243    1.9031 H         1 <0>         0.1343
     29 H9          3.4167   -1.5814    1.8898 H         1 <0>         0.1311
     30 H10         4.6059   -3.6088    1.3892 H         1 <0>         0.1335
     31 H11         4.8355   -2.8993   -0.2271 H         1 <0>         0.1430
     32 H12         6.4897   -4.7289    0.2974 H         1 <0>         0.1255
     33 H13         7.2666   -3.1596   -0.0415 H         1 <0>         0.0906
     34 H14         7.6510   -2.6685    3.7583 H         1 <0>         0.1274
     35 H15         8.0363   -1.7940    2.2523 H         1 <0>         0.0916
     36 H16         5.9924   -0.8467    3.2207 H         1 <0>         0.1432
     37 H17         5.2519   -2.4628    3.3143 H         1 <0>         0.1333
     38 H18         7.0605   -6.1662    0.9101 H         1 <0>         0.1350
     39 H19         7.9958   -8.2292    1.9309 H         1 <0>         0.1430
     40 H20         9.1922   -8.0771    4.0765 H         1 <0>         0.1620
     41 H21         8.5999   -3.9737    4.2500 H         1 <0>         0.1526
     42 H22         6.1214   -1.1595    0.8337 H         1 <0>         0.4230
@<TRIPOS>BOND
     1    1    6 ar
     2    1    2 ar
     3    1   21 1
     4    2    3 ar
     5    2   22 1
     6    3    4 ar
     7    3   23 1
     8    4    5 ar
     9    4    7 1
    10    5    6 ar
    11    5   24 1
    12    6   25 1
    13    7    8 1
    14    7   26 1
    15    7   27 1
    16    8    9 1
    17    8   28 1
    18    8   29 1
    19    9   14 1
    20    9   10 1
    21    9   42 1
    22   10   11 1
    23   10   30 1
    24   10   31 1
    25   11   12 1
    26   11   32 1
    27   11   33 1
    28   12   13 1
    29   12   15 1
    30   13   14 1
    31   13   34 1
    32   13   35 1
    33   14   36 1
    34   14   37 1
    35   15   20 ar
    36   15   16 ar
    37   16   17 ar
    38   16   38 1
    39   17   18 ar
    40   17   39 1
    41   18   19 ar
    42   18   40 1
    43   19   20 ar
    44   20   41 1
@<TRIPOS>MOLECULE
ZINC49072985
   41    43     0     0     0
SMALL
USER_CHARGES

@<TRIPOS>ATOM
      1 C1         -0.0207    1.3546   -0.0354 C.ar      1 <0>        -0.1234
      2 C2          1.1638    2.0672   -0.0288 C.ar      1 <0>        -0.1180
      3 C3          2.3732    1.3978   -0.0359 C.ar      1 <0>        -0.1154
      4 C4          2.3982    0.0157   -0.0491 C.ar      1 <0>        -0.0838
      5 C5          1.2137   -0.6969   -0.0548 C.ar      1 <0>        -0.1176
      6 C6          0.0042   -0.0274   -0.0491 C.ar      1 <0>        -0.1182
      7 C7          3.7166   -0.7141   -0.0578 C.3       1 <0>        -0.0771
      8 C8          4.1647   -0.9749    1.3816 C.3       1 <0>         0.0626
      9 N1          5.4500   -1.6863    1.3731 N.3       1 <0>        -0.5368
     10 C9          5.3045   -3.0293    0.7961 C.3       1 <0>         0.0351
     11 C10         6.6891   -3.6666    0.6383 C.3       1 <0>         0.1246
     12 N2          7.3760   -3.6192    1.9379 N.pl3     1 <0>        -0.6245
     13 C11         7.4420   -2.3305    2.6436 C.3       1 <0>         0.1256
     14 C12         6.0277   -1.7458    2.7224 C.3       1 <0>         0.0404
     15 C13         7.9503   -4.7680    2.4878 C.ar      1 <0>         0.1722
     16 C14         8.6942   -4.6932    3.6633 C.ar      1 <0>        -0.1613
     17 C15         9.2437   -5.8594    4.1694 C.ar      1 <0>        -0.1193
     18 C16         9.0380   -7.0502    3.4973 C.ar      1 <0>         0.0328
     19 N3          8.3286   -7.0876    2.3864 N.ar      1 <0>        -0.4447
     20 C17         7.7833   -6.0025    1.8736 C.ar      1 <0>         0.0225
     21 H1         -0.9655    1.8776   -0.0253 H         1 <0>         0.1215
     22 H2          1.1444    3.1470   -0.0184 H         1 <0>         0.1223
     23 H3          3.2987    1.9545   -0.0314 H         1 <0>         0.1222
     24 H4          1.2331   -1.7767   -0.0655 H         1 <0>         0.1193
     25 H5         -0.9212   -0.5842   -0.0539 H         1 <0>         0.1217
     26 H6          3.6028   -1.6638   -0.5806 H         1 <0>         0.0726
     27 H7          4.4648   -0.1065   -0.5669 H         1 <0>         0.0824
     28 H8          4.2786   -0.0252    1.9044 H         1 <0>         0.0781
     29 H9          3.4165   -1.5824    1.8907 H         1 <0>         0.0363
     30 H10         4.6939   -3.6448    1.4567 H         1 <0>         0.0395
     31 H11         4.8245   -2.9558   -0.1798 H         1 <0>         0.0909
     32 H12         6.5808   -4.7031    0.3189 H         1 <0>         0.0873
     33 H13         7.2658   -3.1110   -0.1012 H         1 <0>         0.0744
     34 H14         7.8315   -2.4836    3.6501 H         1 <0>         0.0854
     35 H15         8.0910   -1.6464    2.0969 H         1 <0>         0.0733
     36 H16         6.0723   -0.7414    3.1436 H         1 <0>         0.0876
     37 H17         5.4070   -2.3792    3.3562 H         1 <0>         0.0389
     38 H18         8.8391   -3.7491    4.1673 H         1 <0>         0.1327
     39 H19         9.8265   -5.8389    5.0784 H         1 <0>         0.1339
     40 H20         9.4646   -7.9624    3.8875 H         1 <0>         0.1524
     41 H21         7.2049   -6.0734    0.9643 H         1 <0>         0.1516
@<TRIPOS>BOND
     1    1    6 ar
     2    1    2 ar
     3    1   21 1
     4    2    3 ar
     5    2   22 1
     6    3    4 ar
     7    3   23 1
     8    4    5 ar
     9    4    7 1
    10    5    6 ar
    11    5   24 1
    12    6   25 1
    13    7    8 1
    14    7   26 1
    15    7   27 1
    16    8    9 1
    17    8   28 1
    18    8   29 1
    19    9   14 1
    20    9   10 1
    21   10   11 1
    22   10   30 1
    23   10   31 1
    24   11   12 1
    25   11   32 1
    26   11   33 1
    27   12   13 1
    28   12   15 1
    29   13   14 1
    30   13   34 1
    31   13   35 1
    32   14   36 1
    33   14   37 1
    34   15   20 ar
    35   15   16 ar
    36   16   17 ar
    37   16   38 1
    38   17   18 ar
    39   17   39 1
    40   18   19 ar
    41   18   40 1
    42   19   20 ar
    43   20   41 1
@<TRIPOS>MOLECULE
ZINC03616630
   52    54     0     0     0
SMALL
USER_CHARGES

@<TRIPOS>ATOM
      1 C1         -0.0187    1.5258    0.0104 C.3       1 <0>        -0.1979
      2 C2          0.0021   -0.0041    0.0020 C.3       1 <0>        -0.0083
      3 H1         -1.0205   -0.3814    0.0098 H         1 <0>         0.1467
      4 C3          0.7421   -0.5109    1.2415 C.3       1 <0>         0.1398
      5 H2          0.8346   -1.5958    1.1912 H         1 <0>         0.1306
      6 C4         -0.0298   -0.1295    2.4784 C.ar      1 <0>        -0.1506
      7 C5          0.0648    1.1546    2.9823 C.ar      1 <0>        -0.0917
      8 C6         -0.6414    1.5067    4.1162 C.ar      1 <0>        -0.1399
      9 C7         -1.4464    0.5707    4.7491 C.ar      1 <0>         0.1318
     10 C8         -1.5399   -0.7170    4.2412 C.ar      1 <0>        -0.1399
     11 C9         -0.8358   -1.0625    3.1041 C.ar      1 <0>        -0.0825
     12 O1         -2.1418    0.9144    5.8650 O.3       1 <0>        -0.4954
     13 O2          2.0438    0.0763    1.2925 O.3       1 <0>        -0.5446
     14 N1          0.6897   -0.4778   -1.2066 N.4       1 <0>        -0.3762
     15 C10        -0.0162    0.0165   -2.3948 C.3       1 <0>        -0.0111
     16 C11         0.7414   -0.4060   -3.6554 C.3       1 <0>        -0.1418
     17 C12         0.8228   -1.9344   -3.7071 C.3       1 <0>        -0.0939
     18 C13         1.4942   -2.4436   -2.4284 C.3       1 <0>        -0.1436
     19 C14         0.7088   -1.9455   -1.2133 C.3       1 <0>        -0.0127
     20 C15         1.6472   -2.3620   -4.9230 C.3       1 <0>        -0.0744
     21 C16         1.6242   -3.8640   -5.0426 C.ar      1 <0>        -0.0948
     22 C17         2.5880   -4.6230   -4.4053 C.ar      1 <0>        -0.1212
     23 C18         2.5668   -6.0008   -4.5150 C.ar      1 <0>        -0.1159
     24 C19         1.5817   -6.6197   -5.2615 C.ar      1 <0>        -0.1163
     25 C20         0.6174   -5.8609   -5.8979 C.ar      1 <0>        -0.1139
     26 C21         0.6360   -4.4833   -5.7848 C.ar      1 <0>        -0.1163
     27 H3          1.0039    1.9031    0.0027 H         1 <0>         0.0834
     28 H4         -0.5459    1.8868   -0.8726 H         1 <0>         0.0917
     29 H5         -0.5289    1.8773    0.9072 H         1 <0>         0.1135
     30 H6          0.6915    1.8829    2.4892 H         1 <0>         0.1279
     31 H7         -0.5667    2.5096    4.5098 H         1 <0>         0.1384
     32 H8         -2.1659   -1.4474    4.7322 H         1 <0>         0.1387
     33 H9         -0.9117   -2.0635    2.7058 H         1 <0>         0.1316
     34 H10        -3.0262    1.2619    5.6858 H         1 <0>         0.4006
     35 H11         2.0381    1.0422    1.3386 H         1 <0>         0.3862
     36 H12        -1.0226   -0.4013   -2.4191 H         1 <0>         0.1283
     37 H13        -0.0762    1.1042   -2.3550 H         1 <0>         0.1325
     38 H14         0.2147   -0.0396   -4.5366 H         1 <0>         0.1136
     39 H15         1.7479    0.0115   -3.6323 H         1 <0>         0.0897
     40 H16        -0.1818   -2.3506   -3.7819 H         1 <0>         0.0907
     41 H17         1.5058   -3.5335   -2.4326 H         1 <0>         0.1159
     42 H18         2.5165   -2.0683   -2.3798 H         1 <0>         0.0897
     43 H19         1.1841   -2.3064   -0.3012 H         1 <0>         0.1315
     44 H20        -0.3131   -2.3215   -1.2627 H         1 <0>         0.1284
     45 H21         1.2224   -1.9192   -5.8239 H         1 <0>         0.0830
     46 H22         2.6760   -2.0229   -4.8019 H         1 <0>         0.0787
     47 H23         3.3577   -4.1394   -3.8221 H         1 <0>         0.1199
     48 H24         3.3202   -6.5937   -4.0177 H         1 <0>         0.1246
     49 H25         1.5656   -7.6962   -5.3477 H         1 <0>         0.1252
     50 H26        -0.1521   -6.3444   -6.4814 H         1 <0>         0.1251
     51 H27        -0.1196   -3.8906   -6.2790 H         1 <0>         0.1213
     52 H28         1.6368   -0.1301   -1.2116 H         1 <0>         0.4242
@<TRIPOS>BOND
     1    1    2 1
     2    1   27 1
     3    1   28 1
     4    1   29 1
     5    2    3 1
     6    2    4 1
     7    2   14 1
     8    4    5 1
     9    4    6 1
    10    4   13 1
    11    6   11 ar
    12    6    7 ar
    13    7    8 ar
    14    7   30 1
    15    8    9 ar
    16    8   31 1
    17    9   10 ar
    18    9   12 1
    19   10   11 ar
    20   10   32 1
    21   11   33 1
    22   12   34 1
    23   13   35 1
    24   14   19 1
    25   14   15 1
    26   14   52 1
    27   15   16 1
    28   15   36 1
    29   15   37 1
    30   16   17 1
    31   16   38 1
    32   16   39 1
    33   17   18 1
    34   17   20 1
    35   17   40 1
    36   18   19 1
    37   18   41 1
    38   18   42 1
    39   19   43 1
    40   19   44 1
    41   20   21 1
    42   20   45 1
    43   20   46 1
    44   21   26 ar
    45   21   22 ar
    46   22   23 ar
    47   22   47 1
    48   23   24 ar
    49   23   48 1
    50   24   25 ar
    51   24   49 1
    52   25   26 ar
    53   25   50 1
    54   26   51 1
@<TRIPOS>MOLECULE
ZINC03806721
   44    48     0     0     0
SMALL
USER_CHARGES
methoxy-methyl-BLAHol
@<TRIPOS>ATOM
      1 C1         -0.8103    1.9703    1.1371 C.3       1 <0>        -0.0519
      2 C2          0.0021   -0.0041    0.0020 C.3       1 <0>        -0.0053
      3 C3          0.7830   -0.5498    1.2073 C.3       1 <0>        -0.1198
      4 C4          2.1880    0.0553    1.1444 C.3       1 <0>        -0.0562
      5 C5          2.7934   -0.2869   -0.1938 C.ar      1 <0>        -0.1617
      6 C6          2.7205    0.4513   -1.3504 C.ar      1 <0>        -0.0883
      7 C7          3.3525   -0.0962   -2.4523 C.ar      1 <0>        -0.0979
      8 C8          4.0417   -1.2931   -2.3362 C.ar      1 <0>        -0.1669
      9 C9          4.1591   -1.9981   -1.1400 C.ar      1 <0>         0.1331
     10 C10         3.5186   -1.4592   -0.0199 C.ar      1 <0>         0.1444
     11 O1          3.4796   -1.8367    1.2788 O.3       1 <0>        -0.2728
     12 C11         3.1798   -0.6327    2.0762 C.3       1 <0>         0.1100
     13 H1          2.7725   -0.8462    3.0644 H         1 <0>         0.1492
     14 C12         4.5186    0.1135    2.0967 C.3       1 <0>         0.1115
     15 H2          4.9949   -0.0609    3.0615 H         1 <0>         0.0799
     16 C13         4.4208    1.5795    1.8805 C.2       1 <0>        -0.1553
     17 C14         3.3759    2.2287    1.4750 C.2       1 <0>        -0.1333
     18 C15         2.0744    1.5590    1.2318 C.3       1 <0>        -0.0459
     19 H3          1.4367    1.7792    2.0879 H         1 <0>         0.1000
     20 C16         1.3294    2.0558    0.0004 C.3       1 <0>         0.0567
     21 H4          1.2195    3.1369    0.0858 H         1 <0>         0.1381
     22 C17         2.0183    1.7703   -1.3238 C.3       1 <0>        -0.0821
     23 O2          5.3577   -0.4374    1.0796 O.3       1 <0>        -0.5362
     24 O3          4.8646   -3.1583   -1.0654 O.3       1 <0>        -0.3013
     25 C18         5.4800   -3.6219   -2.2689 C.3       1 <0>         0.0240
     26 H5         -0.3364    1.6805    2.0750 H         1 <0>         0.1238
     27 H6         -0.8670    3.0573    1.0794 H         1 <0>         0.1230
     28 H7         -1.8155    1.5512    1.0933 H         1 <0>         0.1253
     29 H8         -1.0217   -0.3763    0.0403 H         1 <0>         0.1309
     30 H9          0.4741   -0.3508   -0.9173 H         1 <0>         0.1319
     31 H10         0.2916   -0.2527    2.1338 H         1 <0>         0.0967
     32 H11         0.8436   -1.6366    1.1497 H         1 <0>         0.1203
     33 H12         3.3091    0.4103   -3.4052 H         1 <0>         0.1308
     34 H13         4.5127   -1.7003   -3.2186 H         1 <0>         0.1340
     35 H14         5.3081    2.1616    2.0814 H         1 <0>         0.1225
     36 H15         3.4547    3.2928    1.3080 H         1 <0>         0.1288
     37 H16         2.7462    2.5584   -1.5167 H         1 <0>         0.1192
     38 H17         1.2713    1.7853   -2.1174 H         1 <0>         0.0957
     39 H18         6.2292   -0.0226    1.0213 H         1 <0>         0.3842
     40 H19         6.0093   -4.5539   -2.0706 H         1 <0>         0.1070
     41 H20         4.7146   -3.7927   -3.0259 H         1 <0>         0.0577
     42 H21         6.1856   -2.8727   -2.6281 H         1 <0>         0.0589
     43 N1         -0.0435    1.4784   -0.0201 N.4       1 <0>        -0.3952
     44 H22        -0.5132    1.7795   -0.8821 H         1 <0>         0.4329
@<TRIPOS>BOND
     1    1   26 1
     2    1   27 1
     3    1   28 1
     4    1   43 1
     5    2    3 1
     6    2   29 1
     7    2   30 1
     8    2   43 1
     9    3    4 1
    10    3   31 1
    11    3   32 1
    12    4   12 1
    13    4   18 1
    14    4    5 1
    15    5   10 ar
    16    5    6 ar
    17    6   22 1
    18    6    7 ar
    19    7    8 ar
    20    7   33 1
    21    8    9 ar
    22    8   34 1
    23    9   10 ar
    24    9   24 1
    25   10   11 1
    26   11   12 1
    27   12   13 1
    28   12   14 1
    29   14   15 1
    30   14   16 1
    31   14   23 1
    32   16   17 2
    33   16   35 1
    34   17   18 1
    35   17   36 1
    36   18   19 1
    37   18   20 1
    38   20   21 1
    39   20   22 1
    40   20   43 1
    41   22   37 1
    42   22   38 1
    43   23   39 1
    44   24   25 1
    45   25   40 1
    46   25   41 1
    47   25   42 1
    48   43   44 1
@<TRIPOS>MOLECULE
ZINC22931094
   66    69     0     0     0
SMALL
USER_CHARGES

@<TRIPOS>ATOM
      1 C1         -2.1863   -5.5479   -2.4920 C.3       1 <0>         0.0258
      2 O1         -0.9501   -5.2637   -1.8340 O.3       1 <0>        -0.3143
      3 C2         -1.0155   -4.9134   -0.5225 C.ar      1 <0>         0.1285
      4 C3         -2.2445   -4.8521    0.1126 C.ar      1 <0>        -0.2102
      5 C4         -2.3093   -4.4952    1.4455 C.ar      1 <0>        -0.0819
      6 C5         -1.1505   -4.1996    2.1341 C.ar      1 <0>        -0.1604
      7 C6          0.0845   -4.2583    1.5008 C.ar      1 <0>        -0.0408
      8 C7          0.1551   -4.6239    0.1760 C.ar      1 <0>        -0.1031
      9 C8          1.4605   -4.7296   -0.5680 C.3       1 <0>        -0.0727
     10 C9          2.5657   -3.9845    0.1776 C.3       1 <0>        -0.1215
     11 C10         2.5680   -4.4560    1.6365 C.3       1 <0>        -0.1142
     12 C11         1.3058   -3.9147    2.3129 C.3       1 <0>        -0.0420
     13 H1          1.3760   -2.8318    2.4158 H         1 <0>         0.0836
     14 C12         1.1824   -4.5455    3.7013 C.3       1 <0>        -0.1148
     15 C13         2.3561   -4.0941    4.5728 C.3       1 <0>        -0.1180
     16 C14         2.1657   -4.6199    5.9970 C.3       1 <0>         0.0539
     17 N1          3.2926   -4.1864    6.8337 N.3       1 <0>        -0.5383
     18 C15         3.2922   -2.7264    7.0027 C.3       1 <0>         0.0228
     19 C16         4.5118   -2.3111    7.8283 C.3       1 <0>        -0.0060
     20 N2          4.4647   -2.9729    9.1387 N.4       1 <0>        -0.3844
     21 C17         4.4906   -4.4299    8.9546 C.3       1 <0>        -0.0056
     22 C18         3.2707   -4.8628    8.1384 C.3       1 <0>         0.0267
     23 C19         5.6262   -2.5599    9.9377 C.3       1 <0>         0.0266
     24 C20         5.5985   -1.0424   10.1312 C.3       1 <0>        -0.1406
     25 C21         6.8082   -0.6122   10.9633 C.3       1 <0>        -0.1173
     26 C22         6.7593   -1.3015   12.3284 C.3       1 <0>        -0.1316
     27 C23         6.7870   -2.8189   12.1349 C.3       1 <0>        -0.1173
     28 C24         5.5773   -3.2491   11.3028 C.3       1 <0>        -0.1406
     29 H2         -2.8280   -4.6676   -2.4557 H         1 <0>         0.0565
     30 H3         -1.9921   -5.8133   -3.5313 H         1 <0>         0.1030
     31 H4         -2.6817   -6.3796   -1.9911 H         1 <0>         0.0564
     32 H5         -3.1485   -5.0819   -0.4318 H         1 <0>         0.1289
     33 H6         -3.2644   -4.4474    1.9473 H         1 <0>         0.1243
     34 H7         -1.2043   -3.9194    3.1757 H         1 <0>         0.1212
     35 H8          1.7360   -5.7799   -0.6630 H         1 <0>         0.0744
     36 H9          1.3436   -4.2981   -1.5621 H         1 <0>         0.0775
     37 H10         3.5301   -4.2041   -0.2806 H         1 <0>         0.0697
     38 H11         2.3761   -2.9118    0.1388 H         1 <0>         0.0649
     39 H12         2.5730   -5.5454    1.6702 H         1 <0>         0.0682
     40 H13         3.4501   -4.0684    2.1462 H         1 <0>         0.0673
     41 H14         0.2459   -4.2306    4.1616 H         1 <0>         0.0680
     42 H15         1.1948   -5.6316    3.6094 H         1 <0>         0.0698
     43 H16         3.2860   -4.4869    4.1618 H         1 <0>         0.0795
     44 H17         2.3979   -3.0050    4.5902 H         1 <0>         0.0632
     45 H18         1.2358   -4.2270    6.4080 H         1 <0>         0.0460
     46 H19         2.1239   -5.7089    5.9797 H         1 <0>         0.0885
     47 H20         3.3347   -2.2471    6.0247 H         1 <0>         0.1255
     48 H21         2.3822   -2.4203    7.5189 H         1 <0>         0.0593
     49 H22         5.4218   -2.6052    7.3053 H         1 <0>         0.1371
     50 H23         4.5057   -1.2299    7.9669 H         1 <0>         0.1359
     51 H24         5.4007   -4.7132    8.4258 H         1 <0>         0.1372
     52 H25         4.4687   -4.9196    9.9281 H         1 <0>         0.1361
     53 H26         2.3604   -4.5920    8.6732 H         1 <0>         0.0592
     54 H27         3.2976   -5.9422    7.9889 H         1 <0>         0.1231
     55 H28         6.5426   -2.8434    9.4201 H         1 <0>         0.1370
     56 H29         5.6333   -0.5514    9.1587 H         1 <0>         0.0873
     57 H30         4.6821   -0.7588   10.6488 H         1 <0>         0.0853
     58 H31         7.7246   -0.8958   10.4457 H         1 <0>         0.0746
     59 H32         6.7885    0.4688   11.1012 H         1 <0>         0.0846
     60 H33         7.6212   -0.9950   12.9212 H         1 <0>         0.0795
     61 H34         5.8430   -1.0179   12.8460 H         1 <0>         0.0698
     62 H35         7.7034   -3.1025   11.6173 H         1 <0>         0.0746
     63 H36         6.7522   -3.3099   13.1074 H         1 <0>         0.0846
     64 H37         4.6609   -2.9655   11.8204 H         1 <0>         0.0853
     65 H38         5.5971   -4.3301   11.1649 H         1 <0>         0.0873
     66 H39         3.6166   -2.7097    9.6179 H         1 <0>         0.4173
@<TRIPOS>BOND
     1    1    2 1
     2    1   29 1
     3    1   30 1
     4    1   31 1
     5    2    3 1
     6    3    8 ar
     7    3    4 ar
     8    4    5 ar
     9    4   32 1
    10    5    6 ar
    11    5   33 1
    12    6    7 ar
    13    6   34 1
    14    7   12 1
    15    7    8 ar
    16    8    9 1
    17    9   10 1
    18    9   35 1
    19    9   36 1
    20   10   11 1
    21   10   37 1
    22   10   38 1
    23   11   12 1
    24   11   39 1
    25   11   40 1
    26   12   13 1
    27   12   14 1
    28   14   15 1
    29   14   41 1
    30   14   42 1
    31   15   16 1
    32   15   43 1
    33   15   44 1
    34   16   17 1
    35   16   45 1
    36   16   46 1
    37   17   22 1
    38   17   18 1
    39   18   19 1
    40   18   47 1
    41   18   48 1
    42   19   20 1
    43   19   49 1
    44   19   50 1
    45   20   21 1
    46   20   23 1
    47   20   66 1
    48   21   22 1
    49   21   51 1
    50   21   52 1
    51   22   53 1
    52   22   54 1
    53   23   28 1
    54   23   24 1
    55   23   55 1
    56   24   25 1
    57   24   56 1
    58   24   57 1
    59   25   26 1
    60   25   58 1
    61   25   59 1
    62   26   27 1
    63   26   60 1
    64   26   61 1
    65   27   28 1
    66   27   62 1
    67   27   63 1
    68   28   64 1
    69   28   65 1
@<TRIPOS>MOLECULE
ZINC22931097
   66    69     0     0     0
SMALL
USER_CHARGES

@<TRIPOS>ATOM
      1 C1         -1.3529   -6.7248   -2.5894 C.3       1 <0>         0.0258
      2 O1         -1.2856   -6.2669   -1.2374 O.3       1 <0>        -0.3143
      3 C2         -0.1182   -5.6987   -0.8358 C.ar      1 <0>         0.1286
      4 C3          0.9333   -5.5820   -1.7294 C.ar      1 <0>        -0.2102
      5 C4          2.1186   -5.0028   -1.3200 C.ar      1 <0>        -0.0819
      6 C5          2.2463   -4.5419   -0.0255 C.ar      1 <0>        -0.1604
      7 C6          1.1941   -4.6562    0.8742 C.ar      1 <0>        -0.0405
      8 C7          0.0111   -5.2319    0.4709 C.ar      1 <0>        -0.1032
      9 C8         -1.1668   -5.3976    1.3949 C.3       1 <0>        -0.0728
     10 C9         -1.0324   -4.4781    2.6070 C.3       1 <0>        -0.1206
     11 C10         0.3563   -4.6880    3.2220 C.3       1 <0>        -0.1147
     12 C11         1.4030   -4.1247    2.2682 C.3       1 <0>        -0.0421
     13 H1          1.3142   -3.0384    2.2558 H         1 <0>         0.0815
     14 C12         2.8028   -4.5103    2.7507 C.3       1 <0>        -0.1136
     15 C13         3.0678   -3.8666    4.1132 C.3       1 <0>        -0.1180
     16 C14         4.5113   -4.1454    4.5368 C.3       1 <0>         0.0539
     17 N1          4.7658   -3.5275    5.8450 N.3       1 <0>        -0.5383
     18 C15         4.7104   -2.0615    5.7547 C.3       1 <0>         0.0227
     19 C16         4.9209   -1.4595    7.1458 C.3       1 <0>        -0.0060
     20 N2          6.2243   -1.8859    7.6719 N.4       1 <0>        -0.3844
     21 C17         6.2555   -3.3505    7.7794 C.3       1 <0>        -0.0057
     22 C18         6.0561   -3.9683    6.3936 C.3       1 <0>         0.0267
     23 C19         6.4337   -1.2932    8.9996 C.3       1 <0>         0.0266
     24 C20         6.4031    0.2324    8.8876 C.3       1 <0>        -0.1406
     25 C21         6.6213    0.8497   10.2704 C.3       1 <0>        -0.1173
     26 C22         7.9789    0.4057   10.8188 C.3       1 <0>        -0.1316
     27 C23         8.0095   -1.1199   10.9307 C.3       1 <0>        -0.1173
     28 C24         7.7913   -1.7372    9.5479 C.3       1 <0>        -0.1406
     29 H2         -0.5864   -7.4819   -2.7551 H         1 <0>         0.0564
     30 H3         -2.3361   -7.1557   -2.7785 H         1 <0>         0.1030
     31 H4         -1.1875   -5.8861   -3.2657 H         1 <0>         0.0565
     32 H5          0.8271   -5.9427   -2.7418 H         1 <0>         0.1289
     33 H6          2.9434   -4.9112   -2.0112 H         1 <0>         0.1243
     34 H7          3.1737   -4.0881    0.2913 H         1 <0>         0.1212
     35 H8         -2.0826   -5.1521    0.8574 H         1 <0>         0.0776
     36 H9         -1.2156   -6.4328    1.7328 H         1 <0>         0.0743
     37 H10        -1.1420   -3.4398    2.2940 H         1 <0>         0.0649
     38 H11        -1.7998   -4.7237    3.3410 H         1 <0>         0.0702
     39 H12         0.4150   -4.1726    4.1806 H         1 <0>         0.0677
     40 H13         0.5369   -5.7533    3.3657 H         1 <0>         0.0667
     41 H14         2.8699   -5.5944    2.8418 H         1 <0>         0.0698
     42 H15         3.5440   -4.1593    2.0327 H         1 <0>         0.0687
     43 H16         2.9112   -2.7902    4.0432 H         1 <0>         0.0633
     44 H17         2.3849   -4.2859    4.8521 H         1 <0>         0.0794
     45 H18         4.6680   -5.2218    4.6068 H         1 <0>         0.0885
     46 H19         5.1942   -3.7262    3.7979 H         1 <0>         0.0461
     47 H20         5.4933   -1.7086    5.0834 H         1 <0>         0.0594
     48 H21         3.7369   -1.7574    5.3703 H         1 <0>         0.1255
     49 H22         4.8943   -0.3719    7.0787 H         1 <0>         0.1359
     50 H23         4.1300   -1.8018    7.8132 H         1 <0>         0.1371
     51 H24         7.2183   -3.6648    8.1822 H         1 <0>         0.1361
     52 H25         5.4578   -3.6831    8.4436 H         1 <0>         0.1372
     53 H26         6.0643   -5.0552    6.4754 H         1 <0>         0.1231
     54 H27         6.8612   -3.6468    5.7329 H         1 <0>         0.0592
     55 H28         5.6438   -1.6240    9.6739 H         1 <0>         0.1370
     56 H29         7.1931    0.5631    8.2133 H         1 <0>         0.0853
     57 H30         5.4360    0.5487    8.4970 H         1 <0>         0.0873
     58 H31         6.5995    1.9366   10.1907 H         1 <0>         0.0846
     59 H32         5.8313    0.5190   10.9447 H         1 <0>         0.0746
     60 H33         8.7689    0.7365   10.1445 H         1 <0>         0.0698
     61 H34         8.1343    0.8455   11.8039 H         1 <0>         0.0796
     62 H35         8.9767   -1.4362   11.3214 H         1 <0>         0.0846
     63 H36         7.2195   -1.4506   11.6050 H         1 <0>         0.0746
     64 H37         7.8131   -2.8241    9.6277 H         1 <0>         0.0873
     65 H38         8.5813   -1.4065    8.8736 H         1 <0>         0.0853
     66 H39         6.9554   -1.5791    7.0479 H         1 <0>         0.4173
@<TRIPOS>BOND
     1    1    2 1
     2    1   29 1
     3    1   30 1
     4    1   31 1
     5    2    3 1
     6    3    8 ar
     7    3    4 ar
     8    4    5 ar
     9    4   32 1
    10    5    6 ar
    11    5   33 1
    12    6    7 ar
    13    6   34 1
    14    7   12 1
    15    7    8 ar
    16    8    9 1
    17    9   10 1
    18    9   35 1
    19    9   36 1
    20   10   11 1
    21   10   37 1
    22   10   38 1
    23   11   12 1
    24   11   39 1
    25   11   40 1
    26   12   13 1
    27   12   14 1
    28   14   15 1
    29   14   41 1
    30   14   42 1
    31   15   16 1
    32   15   43 1
    33   15   44 1
    34   16   17 1
    35   16   45 1
    36   16   46 1
    37   17   22 1
    38   17   18 1
    39   18   19 1
    40   18   47 1
    41   18   48 1
    42   19   20 1
    43   19   49 1
    44   19   50 1
    45   20   21 1
    46   20   23 1
    47   20   66 1
    48   21   22 1
    49   21   51 1
    50   21   52 1
    51   22   53 1
    52   22   54 1
    53   23   28 1
    54   23   24 1
    55   23   55 1
    56   24   25 1
    57   24   56 1
    58   24   57 1
    59   25   26 1
    60   25   58 1
    61   25   59 1
    62   26   27 1
    63   26   60 1
    64   26   61 1
    65   27   28 1
    66   27   62 1
    67   27   63 1
    68   28   64 1
    69   28   65 1
@<TRIPOS>MOLECULE
ZINC03812984
   43    46     0     0     0
SMALL
USER_CHARGES
methylBLAHol
@<TRIPOS>ATOM
      1 C1         -2.7983    1.5746    2.5117 C.3       1 <0>        -0.0492
      2 C2         -2.8836    1.5590    0.0946 C.3       1 <0>        -0.0137
      3 C3         -2.1794    1.0201   -1.2058 C.3       1 <0>        -0.1260
      4 C4         -0.7576    1.5994   -1.2263 C.3       1 <0>        -0.0184
      5 C5         -0.0471    1.1494   -2.4971 C.3       1 <0>        -0.1096
      6 C6          1.3879    1.6819   -2.5009 C.3       1 <0>        -0.1248
      7 C7          2.1311    1.1511   -1.2732 C.3       1 <0>        -0.1197
      8 C8          1.4200    1.6218   -0.0028 C.3       1 <0>        -0.1140
      9 C9         -0.0127    1.0858    0.0080 C.3       1 <0>        -0.0868
     10 H1          0.0021   -0.0041    0.0020 H         1 <0>         0.1005
     11 C10        -0.7376    1.5857    1.2587 C.3       1 <0>         0.0368
     12 H2         -0.2470    1.1454    2.1268 H         1 <0>         0.1322
     13 C11        -0.6296    3.0942    1.3559 C.3       1 <0>        -0.0906
     14 C12        -0.8275    3.7825    0.0324 C.ar      1 <0>        -0.1118
     15 C13        -0.8645    3.1019   -1.1649 C.ar      1 <0>        -0.0525
     16 C14        -1.0059    3.7971   -2.3554 C.ar      1 <0>        -0.1389
     17 C15        -1.1227    5.1776   -2.3507 C.ar      1 <0>         0.1246
     18 C16        -1.1001    5.8624   -1.1445 C.ar      1 <0>        -0.1373
     19 C17        -0.9542    5.1667    0.0366 C.ar      1 <0>        -0.0934
     20 O1         -1.2582    5.8565   -3.5201 O.3       1 <0>        -0.4965
     21 H3         -2.7772    2.6625    2.5756 H         1 <0>         0.1254
     22 H4         -3.8328    1.2313    2.5006 H         1 <0>         0.1236
     23 H5         -2.2838    1.1498    3.3736 H         1 <0>         0.1231
     24 H6         -3.8977    1.1640    0.1553 H         1 <0>         0.1274
     25 H7         -2.9199    2.6475    0.0505 H         1 <0>         0.1324
     26 H8         -2.7194    1.3346   -2.0989 H         1 <0>         0.1139
     27 H9         -2.1344   -0.0682   -1.1643 H         1 <0>         0.0929
     28 H10        -0.5796    1.5352   -3.3664 H         1 <0>         0.0775
     29 H11        -0.0300    0.0602   -2.5361 H         1 <0>         0.0764
     30 H12         1.3713    2.7714   -2.4727 H         1 <0>         0.0675
     31 H13         1.8966    1.3495   -3.4057 H         1 <0>         0.0729
     32 H14         3.1542    1.5269   -1.2774 H         1 <0>         0.0739
     33 H15         2.1443    0.0615   -1.2996 H         1 <0>         0.0675
     34 H16         1.4005    2.7114    0.0201 H         1 <0>         0.0786
     35 H17         1.9539    1.2495    0.8716 H         1 <0>         0.0744
     36 H18         0.3629    3.3369    1.7355 H         1 <0>         0.1193
     37 H19        -1.3763    3.4612    2.0602 H         1 <0>         0.0962
     38 H20        -1.0247    3.2597   -3.2921 H         1 <0>         0.1368
     39 H21        -1.1963    6.9380   -1.1308 H         1 <0>         0.1364
     40 H22        -0.9386    5.7022    0.9743 H         1 <0>         0.1313
     41 H23        -0.4191    6.1273   -3.9172 H         1 <0>         0.4003
     42 N1         -2.1333    1.0997    1.2905 N.4       1 <0>        -0.3877
     43 H24        -2.1230    0.0730    1.2965 H         1 <0>         0.4294
@<TRIPOS>BOND
     1    1   21 1
     2    1   22 1
     3    1   23 1
     4    1   42 1
     5    2    3 1
     6    2   24 1
     7    2   25 1
     8    2   42 1
     9    3    4 1
    10    3   26 1
    11    3   27 1
    12    4    9 1
    13    4   15 1
    14    4    5 1
    15    5    6 1
    16    5   28 1
    17    5   29 1
    18    6    7 1
    19    6   30 1
    20    6   31 1
    21    7    8 1
    22    7   32 1
    23    7   33 1
    24    8    9 1
    25    8   34 1
    26    8   35 1
    27    9   10 1
    28    9   11 1
    29   11   12 1
    30   11   13 1
    31   11   42 1
    32   13   14 1
    33   13   36 1
    34   13   37 1
    35   14   19 ar
    36   14   15 ar
    37   15   16 ar
    38   16   17 ar
    39   16   38 1
    40   17   18 ar
    41   17   20 1
    42   18   19 ar
    43   18   39 1
    44   19   40 1
    45   20   41 1
    46   42   43 1
@<TRIPOS>MOLECULE
ZINC38321402
   76    82     0     0     0
SMALL
USER_CHARGES

@<TRIPOS>ATOM
      1 C1          0.4310    1.5076   -1.3639 C.3       1 <0>        -0.1699
      2 C2         -0.0188    0.3493   -0.4713 C.3       1 <0>         0.1576
      3 C3          0.8533    0.3050    0.7849 C.3       1 <0>        -0.1001
      4 H1          0.9533   -0.7284    1.1169 H         1 <0>         0.0974
      5 C4          2.2417    0.8672    0.4567 C.3       1 <0>        -0.1345
      6 C5          2.5263    2.0512    1.3689 C.3       1 <0>        -0.0586
      7 C6          1.4722    3.1390    1.1281 C.3       1 <0>        -0.1114
      8 C7          0.0822    2.5870    1.4447 C.3       1 <0>        -0.1498
      9 C8          0.1872    1.1290    1.8917 C.3       1 <0>         0.1392
     10 C9          1.0327    1.0439    3.1653 C.3       1 <0>         0.0737
     11 H2          1.0947    0.0154    3.5210 H         1 <0>         0.1169
     12 C10         2.4211    1.5903    2.8308 C.3       1 <0>        -0.0454
     13 C11         3.5334    0.6459    3.2104 C.3       1 <0>        -0.1211
     14 C12         4.8977    1.2224    2.8250 C.3       1 <0>        -0.0107
     15 N1          4.9039    1.5632    1.3942 N.4       1 <0>        -0.3880
     16 C13         3.9169    2.6439    1.1753 C.3       1 <0>         0.0573
     17 H3          4.0109    3.0155    0.1550 H         1 <0>         0.1466
     18 C14         4.2611    3.7755    2.1430 C.3       1 <0>        -0.0941
     19 C15         3.3087    3.9382    3.2785 C.ar      1 <0>        -0.0530
     20 C16         2.4464    2.8973    3.5666 C.ar      1 <0>        -0.1746
     21 C17         1.3619    2.9528    4.4179 C.ar      1 <0>         0.1067
     22 C18         1.2530    4.0777    5.2475 C.ar      1 <0>         0.1057
     23 C19         2.1993    5.0849    5.0689 C.ar      1 <0>        -0.1016
     24 C20         3.1915    5.0414    4.1010 C.ar      1 <0>        -0.1156
     25 O1          0.2703    4.1813    6.1819 O.3       1 <0>        -0.4801
     26 O2          0.5194    1.9113    4.1927 O.3       1 <0>        -0.2684
     27 C21         6.2414    2.0255    1.0000 C.3       1 <0>         0.0212
     28 C22         7.2410    0.8761    1.1433 C.3       1 <0>        -0.2106
     29 C23         8.3675    1.0428    2.1650 C.3       1 <0>        -0.1682
     30 C24         8.6743    1.1230    0.6683 C.3       1 <0>        -0.1475
     31 O3         -1.1209    0.6142    2.1484 O.3       1 <0>        -0.3618
     32 C25        -1.8316    1.3163    3.1702 C.3       1 <0>         0.0249
     33 C26         0.1216   -0.9683   -1.2363 C.3       1 <0>        -0.0923
     34 C27         1.5655   -1.1278   -1.7166 C.3       1 <0>        -0.1503
     35 C28        -0.2410   -2.1344   -0.3145 C.3       1 <0>        -0.1511
     36 C29        -0.8193   -0.9603   -2.4428 C.3       1 <0>        -0.1409
     37 O4         -1.3846    0.5392   -0.0965 O.3       1 <0>        -0.5375
     38 H4          1.4583    1.3396   -1.6870 H         1 <0>         0.0768
     39 H5         -0.2192    1.5675   -2.2367 H         1 <0>         0.0727
     40 H6          0.3742    2.4411   -0.8040 H         1 <0>         0.0769
     41 H7          2.9945    0.0951    0.6157 H         1 <0>         0.0626
     42 H8          2.2663    1.1937   -0.5830 H         1 <0>         0.1156
     43 H9          1.6787    3.9934    1.7726 H         1 <0>         0.0852
     44 H10         1.5083    3.4547    0.0854 H         1 <0>         0.0824
     45 H11        -0.3688    3.1782    2.2417 H         1 <0>         0.0742
     46 H12        -0.5427    2.6480    0.5537 H         1 <0>         0.1053
     47 H13         3.5075    0.4765    4.2868 H         1 <0>         0.1160
     48 H14         3.3878   -0.3039    2.6958 H         1 <0>         0.0964
     49 H15         5.0916    2.1197    3.4126 H         1 <0>         0.1353
     50 H16         5.6736    0.4834    3.0253 H         1 <0>         0.1376
     51 H17         5.2547    3.5897    2.5508 H         1 <0>         0.1003
     52 H18         4.2922    4.7101    1.5830 H         1 <0>         0.1186
     53 H19         2.1577    5.9460    5.7194 H         1 <0>         0.1408
     54 H20         3.8735    5.8714    3.9904 H         1 <0>         0.1369
     55 H21         0.5111    3.8231    7.0472 H         1 <0>         0.3974
     56 H22         6.2190    2.3604   -0.0370 H         1 <0>         0.1355
     57 H23         6.5440    2.8524    1.6425 H         1 <0>         0.1310
     58 H24         6.8303   -0.1241    1.0052 H         1 <0>         0.1241
     59 H25         8.3965    1.9714    2.7352 H         1 <0>         0.1057
     60 H26         8.6981    0.1522    2.6995 H         1 <0>         0.1101
     61 H27         9.2067    0.2852    0.2180 H         1 <0>         0.1125
     62 H28         8.9051    2.1044    0.2537 H         1 <0>         0.1080
     63 H29        -2.8145    0.8648    3.3049 H         1 <0>         0.0882
     64 H30        -1.2743    1.2592    4.1052 H         1 <0>         0.0627
     65 H31        -1.9481    2.3605    2.8799 H         1 <0>         0.0458
     66 H32         2.1889   -1.4642   -0.8881 H         1 <0>         0.0512
     67 H33         1.6018   -1.8631   -2.5205 H         1 <0>         0.0620
     68 H34         1.9343   -0.1699   -2.0833 H         1 <0>         0.0601
     69 H35        -1.2697   -2.0207    0.0277 H         1 <0>         0.0606
     70 H36        -0.1410   -3.0730   -0.8595 H         1 <0>         0.0624
     71 H37         0.4292   -2.1401    0.5450 H         1 <0>         0.0560
     72 H38        -0.5609   -0.1296   -3.0995 H         1 <0>         0.0572
     73 H39        -0.7193   -1.8990   -2.9878 H         1 <0>         0.0552
     74 H40        -1.8479   -0.8467   -2.1006 H         1 <0>         0.0645
     75 H41        -1.7375   -0.1594    0.4713 H         1 <0>         0.3835
     76 H42         4.6485    0.7530    0.8497 H         1 <0>         0.4222
@<TRIPOS>BOND
     1    1    2 1
     2    1   38 1
     3    1   39 1
     4    1   40 1
     5    2    3 1
     6    2   33 1
     7    2   37 1
     8    3    4 1
     9    3    9 1
    10    3    5 1
    11    5    6 1
    12    5   41 1
    13    5   42 1
    14    6   12 1
    15    6   16 1
    16    6    7 1
    17    7    8 1
    18    7   43 1
    19    7   44 1
    20    8    9 1
    21    8   45 1
    22    8   46 1
    23    9   10 1
    24    9   31 1
    25   10   11 1
    26   10   26 1
    27   10   12 1
    28   12   20 1
    29   12   13 1
    30   13   14 1
    31   13   47 1
    32   13   48 1
    33   14   15 1
    34   14   49 1
    35   14   50 1
    36   15   16 1
    37   15   27 1
    38   15   76 1
    39   16   17 1
    40   16   18 1
    41   18   19 1
    42   18   51 1
    43   18   52 1
    44   19   24 ar
    45   19   20 ar
    46   20   21 ar
    47   21   22 ar
    48   21   26 1
    49   22   23 ar
    50   22   25 1
    51   23   24 ar
    52   23   53 1
    53   24   54 1
    54   25   55 1
    55   27   28 1
    56   27   56 1
    57   27   57 1
    58   28   30 1
    59   28   29 1
    60   28   58 1
    61   29   30 1
    62   29   59 1
    63   29   60 1
    64   30   61 1
    65   30   62 1
    66   31   32 1
    67   32   63 1
    68   32   64 1
    69   32   65 1
    70   33   34 1
    71   33   35 1
    72   33   36 1
    73   34   66 1
    74   34   67 1
    75   34   68 1
    76   35   69 1
    77   35   70 1
    78   35   71 1
    79   36   72 1
    80   36   73 1
    81   36   74 1
    82   37   75 1
@<TRIPOS>MOLECULE
ZINC00001614
   46    49     0     0     0
SMALL
USER_CHARGES

@<TRIPOS>ATOM
      1 C1         -0.0178    1.4648    0.0101 C.3       1 <0>        -0.0546
      2 N1          0.0021   -0.0041    0.0020 N.4       1 <0>        -0.3711
      3 C2          0.5276   -0.4665   -1.2851 C.3       1 <0>        -0.0157
      4 C3          0.5582   -1.9993   -1.3067 C.3       1 <0>        -0.1372
      5 C4          1.4914   -2.4626   -0.1781 C.3       1 <0>        -0.0146
      6 C5          1.6112   -3.9813   -0.1907 C.3       1 <0>        -0.1097
      7 C6          0.2224   -4.6007   -0.0089 C.3       1 <0>        -0.1264
      8 C7         -0.3806   -4.1326    1.3165 C.3       1 <0>        -0.1213
      9 C8         -0.4944   -2.6061    1.3228 C.3       1 <0>        -0.1282
     10 C9          0.8981   -1.9972    1.1546 C.3       1 <0>        -0.0879
     11 H1          1.5404   -2.3187    1.9744 H         1 <0>         0.1208
     12 C10         0.8087   -0.4729    1.1195 C.3       1 <0>         0.0288
     13 H2          0.3213   -0.1491    2.0391 H         1 <0>         0.1350
     14 C11         2.2047    0.1253    1.1251 C.3       1 <0>        -0.0874
     15 C12         3.1489   -0.6083    0.2114 C.ar      1 <0>        -0.1435
     16 C13         2.8331   -1.8104   -0.3852 C.ar      1 <0>        -0.0384
     17 C14         3.7550   -2.4459   -1.2010 C.ar      1 <0>        -0.1466
     18 C15         4.9960   -1.8749   -1.4327 C.ar      1 <0>         0.1453
     19 C16         5.3106   -0.6594   -0.8431 C.ar      1 <0>        -0.1990
     20 C17         4.3921   -0.0338   -0.0277 C.ar      1 <0>        -0.0688
     21 O1          5.8990   -2.5017   -2.2318 O.3       1 <0>        -0.3119
     22 C18         7.1570   -1.8515   -2.4236 C.3       1 <0>         0.0235
     23 H3          0.9779    1.8429   -0.2216 H         1 <0>         0.1240
     24 H4         -0.7255    1.8227   -0.7377 H         1 <0>         0.1264
     25 H5         -0.3206    1.8186    0.9956 H         1 <0>         0.1256
     26 H6         -0.1126   -0.1049   -2.0897 H         1 <0>         0.1311
     27 H7          1.5377   -0.0812   -1.4243 H         1 <0>         0.1326
     28 H8         -0.4452   -2.3915   -1.1410 H         1 <0>         0.1000
     29 H9          0.9382   -2.3480   -2.2670 H         1 <0>         0.1138
     30 H10         2.0322   -4.3050   -1.1426 H         1 <0>         0.0792
     31 H11         2.2619   -4.3016    0.6230 H         1 <0>         0.0774
     32 H12        -0.4233   -4.2910   -0.8306 H         1 <0>         0.0666
     33 H13         0.3076   -5.6873   -0.0050 H         1 <0>         0.0762
     34 H14        -1.3713   -4.5705    1.4387 H         1 <0>         0.0751
     35 H15         0.2597   -4.4518    2.1388 H         1 <0>         0.0723
     36 H16        -1.1340   -2.2852    0.5005 H         1 <0>         0.0612
     37 H17        -0.9239   -2.2769    2.2690 H         1 <0>         0.0808
     38 H18         2.1437    1.1661    0.8072 H         1 <0>         0.0949
     39 H19         2.5989    0.0912    2.1407 H         1 <0>         0.1164
     40 H20         3.5052   -3.3918   -1.6585 H         1 <0>         0.1387
     41 H21         6.2735   -0.2042   -1.0223 H         1 <0>         0.1357
     42 H22         4.6406    0.9122    0.4301 H         1 <0>         0.1296
     43 H23         6.9951   -0.8731   -2.8759 H         1 <0>         0.0595
     44 H24         7.6532   -1.7291   -1.4608 H         1 <0>         0.0604
     45 H25         7.7822   -2.4564   -3.0803 H         1 <0>         0.1085
     46 H26        -0.9410   -0.3455    0.1120 H         1 <0>         0.4229
@<TRIPOS>BOND
     1    1    2 1
     2    1   23 1
     3    1   24 1
     4    1   25 1
     5    2   12 1
     6    2    3 1
     7    2   46 1
     8    3    4 1
     9    3   26 1
    10    3   27 1
    11    4    5 1
    12    4   28 1
    13    4   29 1
    14    5   10 1
    15    5   16 1
    16    5    6 1
    17    6    7 1
    18    6   30 1
    19    6   31 1
    20    7    8 1
    21    7   32 1
    22    7   33 1
    23    8    9 1
    24    8   34 1
    25    8   35 1
    26    9   10 1
    27    9   36 1
    28    9   37 1
    29   10   11 1
    30   10   12 1
    31   12   13 1
    32   12   14 1
    33   14   15 1
    34   14   38 1
    35   14   39 1
    36   15   20 ar
    37   15   16 ar
    38   16   17 ar
    39   17   18 ar
    40   17   40 1
    41   18   19 ar
    42   18   21 1
    43   19   20 ar
    44   19   41 1
    45   20   42 1
    46   21   22 1
    47   22   43 1
    48   22   44 1
    49   22   45 1
@<TRIPOS>MOLECULE
ZINC00402848
   46    49     0     0     0
SMALL
USER_CHARGES

@<TRIPOS>ATOM
      1 C1         -0.0178    1.4648    0.0101 C.3       1 <0>        -0.0541
      2 N1          0.0021   -0.0041    0.0020 N.4       1 <0>        -0.3705
      3 C2          0.5234   -0.4656   -1.2868 C.3       1 <0>        -0.0154
      4 C3          0.5608   -1.9988   -1.3105 C.3       1 <0>        -0.1325
      5 C4          1.4982   -2.4553   -0.1831 C.3       1 <0>        -0.0190
      6 C5          1.6504   -3.9707   -0.2017 C.3       1 <0>        -0.1087
      7 C6          2.5586   -4.4098    0.9497 C.3       1 <0>        -0.1256
      8 C7          1.9474   -3.9633    2.2794 C.3       1 <0>        -0.1195
      9 C8          1.8115   -2.4393    2.2944 C.3       1 <0>        -0.1147
     10 C9          0.8985   -1.9981    1.1490 C.3       1 <0>        -0.0848
     11 H1         -0.0910   -2.4368    1.2771 H         1 <0>         0.1022
     12 C10         0.8090   -0.4720    1.1199 C.3       1 <0>         0.0267
     13 H2          0.3176   -0.1530    2.0390 H         1 <0>         0.1343
     14 C11         2.2014    0.1317    1.1325 C.3       1 <0>        -0.0881
     15 C12         3.1457   -0.5879    0.2080 C.ar      1 <0>        -0.1438
     16 C13         2.8340   -1.7881   -0.3923 C.ar      1 <0>        -0.0304
     17 C14         3.7561   -2.4140   -1.2158 C.ar      1 <0>        -0.1475
     18 C15         4.9914   -1.8329   -1.4526 C.ar      1 <0>         0.1453
     19 C16         5.3005   -0.6171   -0.8605 C.ar      1 <0>        -0.2001
     20 C17         4.3825   -0.0022   -0.0362 C.ar      1 <0>        -0.0688
     21 O1          5.8940   -2.4497   -2.2599 O.3       1 <0>        -0.3119
     22 C18         7.1460   -1.7895   -2.4566 C.3       1 <0>         0.0236
     23 H3          0.9779    1.8429   -0.2213 H         1 <0>         0.1235
     24 H4         -0.7253    1.8227   -0.7379 H         1 <0>         0.1263
     25 H5         -0.3209    1.8186    0.9955 H         1 <0>         0.1253
     26 H6         -0.1216   -0.1061   -2.0886 H         1 <0>         0.1313
     27 H7          1.5311   -0.0759   -1.4308 H         1 <0>         0.1323
     28 H8         -0.4403   -2.3962   -1.1433 H         1 <0>         0.0950
     29 H9          0.9416   -2.3449   -2.2714 H         1 <0>         0.1146
     30 H10         0.6708   -4.4353   -0.0888 H         1 <0>         0.0756
     31 H11         2.0910   -4.2796   -1.1496 H         1 <0>         0.0783
     32 H12         2.6569   -5.4953    0.9413 H         1 <0>         0.0726
     33 H13         3.5419   -3.9548    0.8307 H         1 <0>         0.0692
     34 H14         0.9632   -4.4167    2.3971 H         1 <0>         0.0669
     35 H15         2.5925   -4.2784    3.0995 H         1 <0>         0.0732
     36 H16         1.3816   -2.1222    3.2445 H         1 <0>         0.0738
     37 H17         2.7948   -1.9856    2.1708 H         1 <0>         0.0798
     38 H18         2.1362    1.1762    0.8278 H         1 <0>         0.0939
     39 H19         2.5970    0.0858    2.1472 H         1 <0>         0.1169
     40 H20         3.5108   -3.3601   -1.6753 H         1 <0>         0.1386
     41 H21         6.2584   -0.1534   -1.0446 H         1 <0>         0.1351
     42 H22         4.6266    0.9436    0.4245 H         1 <0>         0.1291
     43 H23         6.9742   -0.8104   -2.9037 H         1 <0>         0.0594
     44 H24         7.6472   -1.6675   -1.4963 H         1 <0>         0.0602
     45 H25         7.7716   -2.3870   -3.1197 H         1 <0>         0.1083
     46 H26        -0.9411   -0.3448    0.1135 H         1 <0>         0.4244
@<TRIPOS>BOND
     1    1    2 1
     2    1   23 1
     3    1   24 1
     4    1   25 1
     5    2   12 1
     6    2    3 1
     7    2   46 1
     8    3    4 1
     9    3   26 1
    10    3   27 1
    11    4    5 1
    12    4   28 1
    13    4   29 1
    14    5   10 1
    15    5   16 1
    16    5    6 1
    17    6    7 1
    18    6   30 1
    19    6   31 1
    20    7    8 1
    21    7   32 1
    22    7   33 1
    23    8    9 1
    24    8   34 1
    25    8   35 1
    26    9   10 1
    27    9   36 1
    28    9   37 1
    29   10   11 1
    30   10   12 1
    31   12   13 1
    32   12   14 1
    33   14   15 1
    34   14   38 1
    35   14   39 1
    36   15   20 ar
    37   15   16 ar
    38   16   17 ar
    39   17   18 ar
    40   17   40 1
    41   18   19 ar
    42   18   21 1
    43   19   20 ar
    44   19   41 1
    45   20   42 1
    46   21   22 1
    47   22   43 1
    48   22   44 1
    49   22   45 1
@<TRIPOS>MOLECULE
ZINC13820946
   34    35     0     0     0
SMALL
USER_CHARGES
(2R)-N-(cyclopropylmethyl)-1-phenyl-propan-2-amine
@<TRIPOS>ATOM
      1 C1         -4.3194    0.0384    1.4672 C.3       1 <0>        -0.1819
      2 C2         -2.9450    0.7107    1.4624 C.3       1 <0>         0.0332
      3 H1         -2.9998    1.6534    2.0069 H         1 <0>         0.1393
      4 C3         -2.5137    0.9795    0.0193 C.3       1 <0>        -0.1013
      5 C4         -1.2190    1.7506    0.0173 C.ar      1 <0>        -0.1255
      6 C5         -0.0126    1.0758    0.0080 C.ar      1 <0>        -0.1466
      7 C6          1.1750    1.7832    0.0004 C.ar      1 <0>        -0.1049
      8 C7          1.1563    3.1654    0.0076 C.ar      1 <0>        -0.1050
      9 C8         -0.0501    3.8402    0.0223 C.ar      1 <0>        -0.1037
     10 C9         -1.2377    3.1328    0.0299 C.ar      1 <0>        -0.1060
     11 C10        -1.9784    0.0066    3.5678 C.3       1 <0>         0.0309
     12 C11        -0.9480   -0.9276    4.2053 C.3       1 <0>        -0.2161
     13 C12        -1.4683   -2.0175    5.1446 C.3       1 <0>        -0.1666
     14 C13        -0.7241   -0.8080    5.7141 C.3       1 <0>        -0.1493
     15 H2         -4.2646   -0.9043    0.9227 H         1 <0>         0.0838
     16 H3         -4.6267   -0.1531    2.4953 H         1 <0>         0.0820
     17 H4         -5.0461    0.6937    0.9868 H         1 <0>         0.1079
     18 H5         -3.2837    1.5610   -0.4877 H         1 <0>         0.1214
     19 H6         -2.3729    0.0317   -0.5003 H         1 <0>         0.0980
     20 H7          0.0021   -0.0041    0.0020 H         1 <0>         0.1215
     21 H8          2.1175    1.2560   -0.0115 H         1 <0>         0.1321
     22 H9          2.0841    3.7181    0.0014 H         1 <0>         0.1328
     23 H10        -0.0647    4.9201    0.0276 H         1 <0>         0.1331
     24 H11        -2.1802    3.6600    0.0410 H         1 <0>         0.1300
     25 H12        -1.7302    1.0402    3.8091 H         1 <0>         0.1312
     26 H13        -2.9701   -0.2286    3.9541 H         1 <0>         0.1308
     27 H14        -0.0838   -1.1672    3.5857 H         1 <0>         0.1244
     28 H15        -2.5447   -2.0690    5.3084 H         1 <0>         0.1065
     29 H16        -0.9465   -2.9745    5.1430 H         1 <0>         0.1104
     30 H17         0.2873   -0.9693    6.0871 H         1 <0>         0.1124
     31 H18        -1.3106   -0.0635    6.2525 H         1 <0>         0.1079
     32 N1         -1.9593   -0.1792    2.1046 N.4       1 <0>        -0.5195
     33 H19        -1.0219    0.0400    1.7475 H         1 <0>         0.4268
     34 H20        -2.1899   -1.1552    1.8841 H         1 <0>         0.4301
@<TRIPOS>BOND
     1    1    2 1
     2    1   15 1
     3    1   16 1
     4    1   17 1
     5    2    3 1
     6    2    4 1
     7    2   32 1
     8    4    5 1
     9    4   18 1
    10    4   19 1
    11    5   10 ar
    12    5    6 ar
    13    6    7 ar
    14    6   20 1
    15    7    8 ar
    16    7   21 1
    17    8    9 ar
    18    8   22 1
    19    9   10 ar
    20    9   23 1
    21   10   24 1
    22   11   12 1
    23   11   25 1
    24   11   26 1
    25   11   32 1
    26   12   14 1
    27   12   13 1
    28   12   27 1
    29   13   14 1
    30   13   28 1
    31   13   29 1
    32   14   30 1
    33   14   31 1
    34   32   33 1
    35   32   34 1
@<TRIPOS>MOLECULE
ZINC26028676
   34    35     0     0     0
SMALL
USER_CHARGES
(2S)-N-(cyclopropylmethyl)-1-phenyl-propan-2-amine
@<TRIPOS>ATOM
      1 C1         -4.2805    4.9784   -1.3777 C.3       1 <0>        -0.1830
      2 C2         -3.0112    4.1243   -1.3917 C.3       1 <0>         0.0404
      3 H1         -2.2171    4.6221   -1.9676 H         1 <0>         0.1328
      4 C3         -2.5528    3.8685    0.0455 C.3       1 <0>        -0.1018
      5 C4         -1.2377    3.1328    0.0299 C.ar      1 <0>        -0.1223
      6 C5         -1.2190    1.7507    0.0173 C.ar      1 <0>        -0.1488
      7 C6         -0.0126    1.0758    0.0080 C.ar      1 <0>        -0.1036
      8 C7          1.1750    1.7832    0.0004 C.ar      1 <0>        -0.1059
      9 C8          1.1563    3.1654    0.0076 C.ar      1 <0>        -0.1026
     10 C9         -0.0501    3.8402    0.0223 C.ar      1 <0>        -0.1069
     11 N1         -3.2909    2.8423   -2.0520 N.4       1 <0>        -0.5424
     12 C10        -3.1522    2.9597   -3.5097 C.3       1 <0>        -0.0036
     13 C11        -3.4505    1.6077   -4.1609 C.3       1 <0>        -0.2777
     14 C12        -2.3116    0.9216   -4.9180 C.3       1 <0>        -0.1069
     15 C13        -3.4739    1.5497   -5.6896 C.3       1 <0>        -0.0948
     16 H2         -4.6101    5.1623   -2.4109 H         1 <0>         0.0812
     17 H3         -4.0710    5.9384   -0.8833 H         1 <0>         0.1072
     18 H4         -5.0730    4.4485   -0.8289 H         1 <0>         0.0841
     19 H5         -2.4295    4.8289    0.5674 H         1 <0>         0.1209
     20 H6         -3.3065    3.2612    0.5682 H         1 <0>         0.0987
     21 H7         -2.1469    1.1980    0.0188 H         1 <0>         0.1222
     22 H8          0.0021   -0.0041    0.0020 H         1 <0>         0.1325
     23 H9          2.1175    1.2560   -0.0115 H         1 <0>         0.1330
     24 H10         2.0841    3.7181    0.0014 H         1 <0>         0.1331
     25 H11        -0.0647    4.9201    0.0276 H         1 <0>         0.1296
     26 H12        -2.5833    2.0816   -1.6905 H         1 <0>         0.4412
     27 H13        -3.8608    3.7122   -3.8860 H         1 <0>         0.1256
     28 H14        -2.1253    3.2671   -3.7568 H         1 <0>         0.1189
     29 H15        -4.1432    1.3098   -3.3600 H         1 <0>         0.1090
     30 H16        -1.3614    1.4248   -4.6857 H         1 <0>         0.1070
     31 H17        -2.2518   -0.1336   -4.6129 H         1 <0>         0.1135
     32 H18        -4.3750    1.0138   -6.0224 H         1 <0>         0.1169
     33 H19        -3.4846    2.5721   -6.0952 H         1 <0>         0.1106
     34 H20        -4.3188    2.5268   -1.8197 H         1 <0>         0.4417
@<TRIPOS>BOND
     1    1    2 1
     2    1   16 1
     3    1   17 1
     4    1   18 1
     5    2    3 1
     6    2    4 1
     7    2   11 1
     8    4    5 1
     9    4   19 1
    10    4   20 1
    11    5   10 ar
    12    5    6 ar
    13    6    7 ar
    14    6   21 1
    15    7    8 ar
    16    7   22 1
    17    8    9 ar
    18    8   23 1
    19    9   10 ar
    20    9   24 1
    21   10   25 1
    22   11   12 1
    23   11   26 1
    24   11   34 1
    25   12   13 1
    26   12   27 1
    27   12   28 1
    28   13   15 1
    29   13   14 1
    30   13   29 1
    31   14   15 1
    32   14   30 1
    33   14   31 1
    34   15   32 1
    35   15   33 1
@<TRIPOS>MOLECULE
ZINC06579217
   56    59     0     0     0
SMALL
USER_CHARGES

@<TRIPOS>ATOM
      1 C1         -0.8254    0.2051   -0.7628 C.ar      1 <0>        -0.1105
      2 C2         -0.7284   -0.6693   -1.8291 C.ar      1 <0>        -0.1131
      3 C3          0.3730   -1.4963   -1.9469 C.ar      1 <0>        -0.1099
      4 C4          1.3776   -1.4486   -0.9986 C.ar      1 <0>        -0.0957
      5 C5          1.2811   -0.5736    0.0673 C.ar      1 <0>        -0.1162
      6 C6          0.1791    0.2524    0.1858 C.ar      1 <0>        -0.1146
      7 C7          2.5779   -2.3509   -1.1264 C.3       1 <0>        -0.0540
      8 C8          2.6766   -3.2500    0.1094 C.3       1 <0>        -0.1358
      9 C9          3.9404   -4.1070    0.0103 C.3       1 <0>        -0.0152
     10 N1          5.1211   -3.2377   -0.0597 N.4       1 <0>        -0.3735
     11 C10         5.0685   -2.4236   -1.2799 C.3       1 <0>        -0.0120
     12 C11         3.8481   -1.5019   -1.2305 C.3       1 <0>        -0.1376
     13 C12         6.3355   -4.0641   -0.0761 C.3       1 <0>         0.0381
     14 H1          7.2128   -3.4253   -0.1783 H         1 <0>         0.1462
     15 C13         6.2744   -5.0452   -1.2451 C.3       1 <0>        -0.0848
     16 C14         7.3947   -6.0479   -1.1539 C.ar      1 <0>        -0.1233
     17 C15         8.0929   -6.2752    0.0099 C.ar      1 <0>        -0.0439
     18 C16         9.1104   -7.2208    0.0288 C.ar      1 <0>        -0.1486
     19 C17         9.4325   -7.9309   -1.1098 C.ar      1 <0>        -0.0617
     20 C18         8.7378   -7.7027   -2.2817 C.ar      1 <0>        -0.2028
     21 C19         7.7203   -6.7636   -2.3045 C.ar      1 <0>         0.1424
     22 O1          7.0351   -6.5385   -3.4563 O.3       1 <0>        -0.3128
     23 C20         7.4183   -7.3053   -4.5996 C.3       1 <0>         0.0232
     24 C21         6.5416   -6.9163   -5.7917 C.3       1 <0>         0.0662
     25 F1          6.7909   -5.5842   -6.1389 F         1 <0>        -0.2097
     26 C22         7.8068   -5.5276    1.2859 C.3       1 <0>        -0.1099
     27 C23         6.4308   -4.8680    1.2260 C.3       1 <0>         0.0923
     28 H2          5.6561   -5.6346    1.2417 H         1 <0>         0.0871
     29 O2          6.2663   -3.9938    2.3444 O.3       1 <0>        -0.5723
     30 H3         -1.6837    0.8544   -0.6732 H         1 <0>         0.1271
     31 H4         -1.5133   -0.7065   -2.5700 H         1 <0>         0.1274
     32 H5          0.4484   -2.1799   -2.7796 H         1 <0>         0.1235
     33 H6          2.0659   -0.5367    0.8083 H         1 <0>         0.1182
     34 H7          0.1035    0.9357    1.0187 H         1 <0>         0.1261
     35 H8          2.4771   -2.9672   -2.0198 H         1 <0>         0.0956
     36 H9          2.7251   -2.6322    1.0060 H         1 <0>         0.0908
     37 H10         1.8010   -3.8973    0.1594 H         1 <0>         0.1131
     38 H11         4.0137   -4.7485    0.8885 H         1 <0>         0.1301
     39 H12         3.8908   -4.7245   -0.8865 H         1 <0>         0.1307
     40 H13         5.9746   -1.8222   -1.3543 H         1 <0>         0.1321
     41 H14         4.9948   -3.0770   -2.1493 H         1 <0>         0.1310
     42 H15         3.8099   -0.8995   -2.1382 H         1 <0>         0.1147
     43 H16         3.9209   -0.8478   -0.3616 H         1 <0>         0.0903
     44 H17         5.3194   -5.5703   -1.2242 H         1 <0>         0.0980
     45 H18         6.3605   -4.4942   -2.1817 H         1 <0>         0.1076
     46 H19         9.6551   -7.4017    0.9436 H         1 <0>         0.1314
     47 H20        10.2260   -8.6631   -1.0848 H         1 <0>         0.1353
     48 H21         8.9872   -8.2540   -3.1762 H         1 <0>         0.1359
     49 H22         8.4634   -7.1063   -4.8369 H         1 <0>         0.0805
     50 H23         7.2900   -8.3662   -4.3851 H         1 <0>         0.0866
     51 H24         6.7730   -7.5620   -6.6388 H         1 <0>         0.1038
     52 H25         5.4915   -7.0314   -5.5233 H         1 <0>         0.0872
     53 H26         7.8356   -6.2235    2.1244 H         1 <0>         0.1022
     54 H27         8.5667   -4.7597    1.4307 H         1 <0>         0.1018
     55 H28         6.3157   -4.4384    3.2017 H         1 <0>         0.4094
     56 H29         5.1398   -2.6319    0.7470 H         1 <0>         0.4318
@<TRIPOS>BOND
     1    1    6 ar
     2    1    2 ar
     3    1   30 1
     4    2    3 ar
     5    2   31 1
     6    3    4 ar
     7    3   32 1
     8    4    5 ar
     9    4    7 1
    10    5    6 ar
    11    5   33 1
    12    6   34 1
    13    7   12 1
    14    7    8 1
    15    7   35 1
    16    8    9 1
    17    8   36 1
    18    8   37 1
    19    9   10 1
    20    9   38 1
    21    9   39 1
    22   10   11 1
    23   10   13 1
    24   10   56 1
    25   11   12 1
    26   11   40 1
    27   11   41 1
    28   12   42 1
    29   12   43 1
    30   13   14 1
    31   13   27 1
    32   13   15 1
    33   15   16 1
    34   15   44 1
    35   15   45 1
    36   16   21 ar
    37   16   17 ar
    38   17   18 ar
    39   17   26 1
    40   18   19 ar
    41   18   46 1
    42   19   20 ar
    43   19   47 1
    44   20   21 ar
    45   20   48 1
    46   21   22 1
    47   22   23 1
    48   23   24 1
    49   23   49 1
    50   23   50 1
    51   24   25 1
    52   24   51 1
    53   24   52 1
    54   26   27 1
    55   26   53 1
    56   26   54 1
    57   27   28 1
    58   27   29 1
    59   29   55 1
@<TRIPOS>MOLECULE
ZINC13820954
   41    42     0     0     0
SMALL
USER_CHARGES
(2R)-N-(2-phenoxyethyl)-1-phenyl-propan-2-amine
@<TRIPOS>ATOM
      1 C1          1.4271    6.0785    1.8177 C.3       1 <0>        -0.1821
      2 C2          0.1608    5.3784    1.3202 C.3       1 <0>         0.0326
      3 H1         -0.0852    5.7390    0.3215 H         1 <0>         0.1408
      4 C3         -0.9977    5.6828    2.2721 C.3       1 <0>        -0.1013
      5 C4         -2.2705    5.0962    1.7181 C.ar      1 <0>        -0.1278
      6 C5         -3.0717    5.8498    0.8808 C.ar      1 <0>        -0.1054
      7 C6         -4.2367    5.3100    0.3688 C.ar      1 <0>        -0.1051
      8 C7         -4.6059    4.0203    0.7023 C.ar      1 <0>        -0.1042
      9 C8         -3.8073    3.2685    1.5437 C.ar      1 <0>        -0.1024
     10 C9         -2.6396    3.8065    2.0516 C.ar      1 <0>        -0.1411
     11 C10         1.0269    3.5347    0.0112 C.3       1 <0>         0.0032
     12 C11         1.2479    2.0208    0.0010 C.3       1 <0>         0.0246
     13 O1         -0.0164    1.3548    0.0095 O.3       1 <0>        -0.3281
     14 C12         0.0021   -0.0041    0.0020 C.ar      1 <0>         0.1113
     15 C13         1.2120   -0.6824   -0.0189 C.ar      1 <0>        -0.2040
     16 C14         1.2282   -2.0638   -0.0202 C.ar      1 <0>        -0.0783
     17 C15         0.0396   -2.7702   -0.0131 C.ar      1 <0>        -0.1410
     18 C16        -1.1677   -2.0964    0.0020 C.ar      1 <0>        -0.0773
     19 C17        -1.1891   -0.7152    0.0096 C.ar      1 <0>        -0.1425
     20 H2          2.2524    5.8616    1.1395 H         1 <0>         0.0824
     21 H3          1.2578    7.1547    1.8514 H         1 <0>         0.1087
     22 H4          1.6731    5.7179    2.8164 H         1 <0>         0.0838
     23 H5         -0.7905    5.2446    3.2484 H         1 <0>         0.0975
     24 H6         -1.1096    6.7622    2.3747 H         1 <0>         0.1218
     25 H7         -2.7856    6.8590    0.6238 H         1 <0>         0.1294
     26 H8         -4.8609    5.8975   -0.2883 H         1 <0>         0.1324
     27 H9         -5.5184    3.6001    0.3058 H         1 <0>         0.1321
     28 H10        -4.0959    2.2610    1.8046 H         1 <0>         0.1313
     29 H11        -2.0158    3.2192    2.7093 H         1 <0>         0.1203
     30 H12         1.9865    4.0427   -0.0848 H         1 <0>         0.1514
     31 H13         0.3832    3.8136   -0.8230 H         1 <0>         0.1415
     32 H14         1.8173    1.7308    0.8840 H         1 <0>         0.0869
     33 H15         1.8003    1.7403   -0.8958 H         1 <0>         0.1105
     34 H16         2.1407   -0.1311   -0.0294 H         1 <0>         0.1272
     35 H17         2.1699   -2.5924   -0.0320 H         1 <0>         0.1314
     36 H18         0.0542   -3.8501   -0.0190 H         1 <0>         0.1316
     37 H19        -2.0947   -2.6505    0.0082 H         1 <0>         0.1363
     38 H20        -2.1324   -0.1893    0.0210 H         1 <0>         0.1322
     39 N1          0.3864    3.9211    1.2825 N.4       1 <0>        -0.5231
     40 H21        -0.5148    3.4366    1.3688 H         1 <0>         0.4342
     41 H22         0.9956    3.6524    2.0641 H         1 <0>         0.4280
@<TRIPOS>BOND
     1    1    2 1
     2    1   20 1
     3    1   21 1
     4    1   22 1
     5    2    3 1
     6    2    4 1
     7    2   39 1
     8    4    5 1
     9    4   23 1
    10    4   24 1
    11    5   10 ar
    12    5    6 ar
    13    6    7 ar
    14    6   25 1
    15    7    8 ar
    16    7   26 1
    17    8    9 ar
    18    8   27 1
    19    9   10 ar
    20    9   28 1
    21   10   29 1
    22   11   12 1
    23   11   30 1
    24   11   31 1
    25   11   39 1
    26   12   13 1
    27   12   32 1
    28   12   33 1
    29   13   14 1
    30   14   19 ar
    31   14   15 ar
    32   15   16 ar
    33   15   34 1
    34   16   17 ar
    35   16   35 1
    36   17   18 ar
    37   17   36 1
    38   18   19 ar
    39   18   37 1
    40   19   38 1
    41   39   40 1
    42   39   41 1
@<TRIPOS>MOLECULE
ZINC36126812
   41    42     0     0     0
SMALL
USER_CHARGES

@<TRIPOS>ATOM
      1 C1         -0.0187    1.5258    0.0104 C.3       1 <0>        -0.1839
      2 C2          0.0021   -0.0041    0.0020 C.3       1 <0>         0.0305
      3 H1         -1.0205   -0.3814    0.0098 H         1 <0>         0.1412
      4 C3          0.7182   -0.4975   -1.2568 C.3       1 <0>        -0.0996
      5 C4          0.6316   -2.0003   -1.3275 C.ar      1 <0>        -0.1275
      6 C5          1.6116   -2.7776   -0.7388 C.ar      1 <0>        -0.1431
      7 C6          1.5322   -4.1561   -0.8037 C.ar      1 <0>        -0.1072
      8 C7          0.4726   -4.7574   -1.4569 C.ar      1 <0>        -0.1047
      9 C8         -0.5078   -3.9802   -2.0447 C.ar      1 <0>        -0.1054
     10 C9         -0.4307   -2.6017   -1.9762 C.ar      1 <0>        -0.1054
     11 N1          0.7126   -0.4907    1.1921 N.4       1 <0>        -0.5102
     12 C10        -0.0398   -0.1189    2.3978 C.3       1 <0>        -0.0038
     13 C11         0.7001   -0.6257    3.6373 C.3       1 <0>         0.0259
     14 O1          1.9549    0.0485    3.7518 O.3       1 <0>        -0.3291
     15 C12         2.7419   -0.2879    4.8075 C.ar      1 <0>         0.1108
     16 C13         2.3178   -1.2512    5.7112 C.ar      1 <0>        -0.2037
     17 C14         3.1198   -1.5917    6.7832 C.ar      1 <0>        -0.0783
     18 C15         4.3442   -0.9730    6.9561 C.ar      1 <0>        -0.1407
     19 C16         4.7690   -0.0122    6.0570 C.ar      1 <0>        -0.0772
     20 C17         3.9733    0.3274    4.9800 C.ar      1 <0>        -0.1427
     21 H2          1.0039    1.9031    0.0027 H         1 <0>         0.0845
     22 H3         -0.5459    1.8868   -0.8726 H         1 <0>         0.1083
     23 H4         -0.5289    1.8773    0.9072 H         1 <0>         0.0837
     24 H5          0.2444   -0.0644   -2.1377 H         1 <0>         0.1219
     25 H6          1.7648   -0.1951   -1.2215 H         1 <0>         0.0981
     26 H7          2.4394   -2.3078   -0.2286 H         1 <0>         0.1210
     27 H8          2.2982   -4.7633   -0.3444 H         1 <0>         0.1314
     28 H9          0.4110   -5.8344   -1.5082 H         1 <0>         0.1322
     29 H10        -1.3355   -4.4500   -2.5553 H         1 <0>         0.1327
     30 H11        -1.1986   -1.9945   -2.4322 H         1 <0>         0.1299
     31 H12         0.7982   -1.4950    1.1455 H         1 <0>         0.4250
     32 H13        -0.1324    0.9660    2.4481 H         1 <0>         0.1462
     33 H14        -1.0328   -0.5668    2.3589 H         1 <0>         0.1513
     34 H15         0.0993   -0.4284    4.5251 H         1 <0>         0.1109
     35 H16         0.8710   -1.6983    3.5452 H         1 <0>         0.0861
     36 H17         1.3612   -1.7343    5.5770 H         1 <0>         0.1271
     37 H18         2.7901   -2.3416    7.4870 H         1 <0>         0.1314
     38 H19         4.9696   -1.2403    7.7950 H         1 <0>         0.1318
     39 H20         5.7256    0.4699    6.1944 H         1 <0>         0.1367
     40 H21         4.3075    1.0747    4.2755 H         1 <0>         0.1328
     41 H22         1.6317   -0.0761    1.2281 H         1 <0>         0.4314
@<TRIPOS>BOND
     1    1    2 1
     2    1   21 1
     3    1   22 1
     4    1   23 1
     5    2    3 1
     6    2    4 1
     7    2   11 1
     8    4    5 1
     9    4   24 1
    10    4   25 1
    11    5   10 ar
    12    5    6 ar
    13    6    7 ar
    14    6   26 1
    15    7    8 ar
    16    7   27 1
    17    8    9 ar
    18    8   28 1
    19    9   10 ar
    20    9   29 1
    21   10   30 1
    22   11   12 1
    23   11   31 1
    24   11   41 1
    25   12   13 1
    26   12   32 1
    27   12   33 1
    28   13   14 1
    29   13   34 1
    30   13   35 1
    31   14   15 1
    32   15   20 ar
    33   15   16 ar
    34   16   17 ar
    35   16   36 1
    36   17   18 ar
    37   17   37 1
    38   18   19 ar
    39   18   38 1
    40   19   20 ar
    41   19   39 1
    42   20   40 1
@<TRIPOS>MOLECULE
ZINC53147203
   74    75     0     0     0
SMALL
USER_CHARGES

@<TRIPOS>ATOM
      1 C1         -0.0225    1.8097    0.0120 C.3       1 <0>        -0.1211
      2 S1          0.0021   -0.0041    0.0020 S.3       1 <0>        -0.2721
      3 C2         -1.7518   -0.4668    0.0163 C.3       1 <0>        -0.0758
      4 C3         -1.8771   -1.9917    0.0093 C.3       1 <0>        -0.0932
      5 C4         -3.3564   -2.3820    0.0213 C.3       1 <0>         0.0814
      6 H1         -3.8661   -1.9002   -0.8131 H         1 <0>         0.0862
      7 C5         -3.4823   -3.8780   -0.1094 C.2       1 <0>         0.4933
      8 O1         -3.8614   -4.5431    0.8396 O.co2     1 <0>        -0.6829
      9 O2         -3.2050   -4.4233   -1.1640 O.co2     1 <0>        -0.6914
     10 N1         -3.9655   -1.9489    1.2813 N.am      1 <0>        -0.6867
     11 C6         -5.2910   -1.7131    1.3430 C.2       1 <0>         0.5116
     12 O3         -5.9796   -1.8594    0.3554 O.2       1 <0>        -0.5408
     13 C7         -5.9176   -1.2675    2.6392 C.3       1 <0>         0.1412
     14 H2         -5.4677   -0.3265    2.9556 H         1 <0>         0.1113
     15 C8         -5.6812   -2.3321    3.7123 C.3       1 <0>        -0.0910
     16 C9         -6.1992   -1.8339    5.0369 C.ar      1 <0>        -0.0566
     17 C10        -5.3674   -1.1219    5.8808 C.ar      1 <0>        -0.1047
     18 C11        -5.8426   -0.6649    7.0957 C.ar      1 <0>        -0.1131
     19 C12        -7.1497   -0.9194    7.4667 C.ar      1 <0>        -0.1244
     20 C13        -7.9817   -1.6306    6.6224 C.ar      1 <0>        -0.1147
     21 C14        -7.5078   -2.0839    5.4055 C.ar      1 <0>        -0.1103
     22 N2         -7.3576   -1.0799    2.4463 N.am      1 <0>        -0.7022
     23 C15        -8.0409   -0.2388    3.2477 C.2       1 <0>         0.5105
     24 O4         -7.4636    0.3627    4.1285 O.2       1 <0>        -0.5219
     25 C16        -9.5222   -0.0457    3.0493 C.3       1 <0>         0.1012
     26 N3        -10.0269    0.9100    4.0383 N.am      1 <0>        -0.7065
     27 C17       -11.3339    1.2390    4.0517 C.2       1 <0>         0.5121
     28 O5        -12.0921    0.7438    3.2450 O.2       1 <0>        -0.5379
     29 C18       -11.8530    2.2221    5.0690 C.3       1 <0>         0.0991
     30 N4        -13.2931    2.4098    4.8762 N.am      1 <0>        -0.7135
     31 C19       -13.9763    3.2509    5.6775 C.2       1 <0>         0.4823
     32 O6        -13.3990    3.8524    6.5583 O.2       1 <0>        -0.5427
     33 C20       -15.4577    3.4439    5.4791 C.3       1 <0>         0.0845
     34 H3        -15.9216    2.4847    5.2494 H         1 <0>         0.1071
     35 C21       -15.6949    4.4155    4.3212 C.3       1 <0>        -0.0684
     36 C22       -17.1726    4.5139    4.0428 C.ar      1 <0>        -0.0781
     37 C23       -17.7642    3.6487    3.1411 C.ar      1 <0>        -0.1010
     38 C24       -19.1186    3.7372    2.8837 C.ar      1 <0>        -0.1459
     39 C25       -19.8853    4.6950    3.5313 C.ar      1 <0>         0.0996
     40 C26       -19.2895    5.5617    4.4360 C.ar      1 <0>        -0.1467
     41 C27       -17.9356    5.4657    4.6937 C.ar      1 <0>        -0.0735
     42 O7        -21.2178    4.7844    3.2795 O.3       1 <0>        -0.5022
     43 N5        -16.0489    3.9920    6.7072 N.3       1 <0>        -0.8134
     44 H4          1.0001    2.1870    0.0043 H         1 <0>         0.0982
     45 H5         -0.5497    2.1708   -0.8711 H         1 <0>         0.0736
     46 H6         -0.5327    2.1613    0.9088 H         1 <0>         0.0731
     47 H7         -2.2257   -0.0675    0.9130 H         1 <0>         0.0773
     48 H8         -2.2427   -0.0579   -0.8669 H         1 <0>         0.0796
     49 H9         -1.4032   -2.3910   -0.8874 H         1 <0>         0.0924
     50 H10        -1.3862   -2.4006    0.8924 H         1 <0>         0.0733
     51 H11        -3.4147   -1.8318    2.0712 H         1 <0>         0.3931
     52 H12        -6.2058   -3.2473    3.4380 H         1 <0>         0.0871
     53 H13        -4.6134   -2.5358    3.7932 H         1 <0>         0.0920
     54 H14        -4.3462   -0.9231    5.5910 H         1 <0>         0.1165
     55 H15        -5.1925   -0.1092    7.7554 H         1 <0>         0.1148
     56 H16        -7.5207   -0.5629    8.4162 H         1 <0>         0.1128
     57 H17        -9.0029   -1.8298    6.9124 H         1 <0>         0.1114
     58 H18        -8.1590   -2.6364    4.7443 H         1 <0>         0.1104
     59 H19        -7.8194   -1.5610    1.7419 H         1 <0>         0.4134
     60 H20        -9.7075    0.3377    2.0460 H         1 <0>         0.1019
     61 H21       -10.0329   -1.0007    3.1733 H         1 <0>         0.1012
     62 H22        -9.4205    1.3060    4.6835 H         1 <0>         0.4159
     63 H23       -11.6677    1.8386    6.0724 H         1 <0>         0.1016
     64 H24       -11.3423    3.1770    4.9450 H         1 <0>         0.1017
     65 H25       -13.7548    1.9287    4.1717 H         1 <0>         0.4137
     66 H26       -15.3090    5.3994    4.5877 H         1 <0>         0.0807
     67 H27       -15.1808    4.0524    3.4313 H         1 <0>         0.0840
     68 H28       -17.1669    2.9032    2.6372 H         1 <0>         0.1260
     69 H29       -19.5800    3.0616    2.1788 H         1 <0>         0.1266
     70 H30       -19.8842    6.3083    4.9413 H         1 <0>         0.1259
     71 H31       -17.4721    6.1373    5.4012 H         1 <0>         0.1259
     72 H32       -21.7653    4.2387    3.8604 H         1 <0>         0.3895
     73 H33       -15.9622    3.3401    7.4724 H         1 <0>         0.3470
     74 H34       -15.6352    4.8819    6.9417 H         1 <0>         0.3503
@<TRIPOS>BOND
     1    1    2 1
     2    1   44 1
     3    1   45 1
     4    1   46 1
     5    2    3 1
     6    3    4 1
     7    3   47 1
     8    3   48 1
     9    4    5 1
    10    4   49 1
    11    4   50 1
    12    5    6 1
    13    5    7 1
    14    5   10 1
    15    7    8 2
    16    7    9 1
    17   10   11 am
    18   10   51 1
    19   11   12 2
    20   11   13 1
    21   13   14 1
    22   13   15 1
    23   13   22 1
    24   15   16 1
    25   15   52 1
    26   15   53 1
    27   16   21 ar
    28   16   17 ar
    29   17   18 ar
    30   17   54 1
    31   18   19 ar
    32   18   55 1
    33   19   20 ar
    34   19   56 1
    35   20   21 ar
    36   20   57 1
    37   21   58 1
    38   22   23 am
    39   22   59 1
    40   23   24 2
    41   23   25 1
    42   25   26 1
    43   25   60 1
    44   25   61 1
    45   26   27 am
    46   26   62 1
    47   27   28 2
    48   27   29 1
    49   29   30 1
    50   29   63 1
    51   29   64 1
    52   30   31 am
    53   30   65 1
    54   31   32 2
    55   31   33 1
    56   33   34 1
    57   33   35 1
    58   33   43 1
    59   35   36 1
    60   35   66 1
    61   35   67 1
    62   36   41 ar
    63   36   37 ar
    64   37   38 ar
    65   37   68 1
    66   38   39 ar
    67   38   69 1
    68   39   40 ar
    69   39   42 1
    70   40   41 ar
    71   40   70 1
    72   41   71 1
    73   42   72 1
    74   43   73 1
    75   43   74 1
@<TRIPOS>MOLECULE
ZINC13472060
   46    49     0     0     0
SMALL
USER_CHARGES
1'-benzylspiro[isochroman-1,4'-piperidine]
@<TRIPOS>ATOM
      1 C1         -2.2345    3.2367    8.3279 C.ar      1 <0>        -0.0847
      2 C2         -2.2824    2.0757    7.5791 C.ar      1 <0>        -0.1141
      3 C3         -1.3046    1.8208    6.6357 C.ar      1 <0>        -0.0955
      4 C4         -0.2787    2.7267    6.4415 C.ar      1 <0>        -0.1604
      5 C5         -0.2277    3.8850    7.1943 C.ar      1 <0>        -0.0949
      6 C6         -1.2084    4.1424    8.1340 C.ar      1 <0>        -0.1138
      7 C7          0.7875    2.4487    5.4134 C.3       1 <0>         0.0494
      8 C8          1.2702    2.5580    3.0436 C.3       1 <0>         0.0046
      9 C9          0.9035    3.2730    1.7412 C.3       1 <0>        -0.1700
     10 C10        -0.5526    2.9570    1.3855 C.3       1 <0>         0.1579
     11 C11        -1.4563    3.3952    2.5413 C.3       1 <0>        -0.1289
     12 C12        -1.0222    2.6782    3.8217 C.3       1 <0>        -0.0030
     13 C13        -0.9360    3.7074    0.1364 C.ar      1 <0>        -0.1250
     14 C14        -1.1959    5.0661    0.2287 C.ar      1 <0>        -0.1105
     15 C15        -1.5381    5.7876   -0.8976 C.ar      1 <0>        -0.1177
     16 C16        -1.6232    5.1532   -2.1231 C.ar      1 <0>        -0.1009
     17 C17        -1.3684    3.7993   -2.2155 C.ar      1 <0>        -0.1144
     18 C18        -1.0264    3.0738   -1.0852 C.ar      1 <0>        -0.0627
     19 C19        -0.7605    1.5965   -1.2248 C.3       1 <0>        -0.1212
     20 C20        -0.0127    1.0858    0.0080 C.3       1 <0>         0.0563
     21 O1         -0.6906    1.5514    1.1804 O.3       1 <0>        -0.3637
     22 H1         -2.9986    3.4359    9.0647 H         1 <0>         0.1355
     23 H2         -3.0839    1.3679    7.7308 H         1 <0>         0.1361
     24 H3         -1.3420    0.9138    6.0507 H         1 <0>         0.1313
     25 H4          0.5762    4.5907    7.0456 H         1 <0>         0.1305
     26 H5         -1.1707    5.0493    8.7193 H         1 <0>         0.1356
     27 H6          0.9260    1.3720    5.3157 H         1 <0>         0.1367
     28 H7          1.7243    2.9085    5.7280 H         1 <0>         0.1342
     29 H8          1.1626    1.4816    2.9098 H         1 <0>         0.1357
     30 H9          2.3021    2.7899    3.3072 H         1 <0>         0.1309
     31 H10         1.5571    2.9282    0.9399 H         1 <0>         0.1161
     32 H11         1.0216    4.3489    1.8698 H         1 <0>         0.0999
     33 H12        -1.3715    4.4729    2.6811 H         1 <0>         0.1017
     34 H13        -2.4904    3.1376    2.3126 H         1 <0>         0.1204
     35 H14        -1.1198    1.6011    3.6858 H         1 <0>         0.1372
     36 H15        -1.6548    2.9986    4.6496 H         1 <0>         0.1334
     37 H16        -1.1296    5.5624    1.1856 H         1 <0>         0.1213
     38 H17        -1.7394    6.8459   -0.8214 H         1 <0>         0.1291
     39 H18        -1.8880    5.7155   -3.0063 H         1 <0>         0.1304
     40 H19        -1.4355    3.3036   -3.1727 H         1 <0>         0.1292
     41 H20        -0.1560    1.4196   -2.1144 H         1 <0>         0.0929
     42 H21        -1.7081    1.0662   -1.3193 H         1 <0>         0.0922
     43 H22         0.0021   -0.0041    0.0020 H         1 <0>         0.1102
     44 H23         1.0088    1.4660    0.0003 H         1 <0>         0.0611
     45 N1          0.3799    3.0390    4.1217 N.4       1 <0>        -0.3916
     46 H24         0.4546    4.0612    4.1840 H         1 <0>         0.4234
@<TRIPOS>BOND
     1    1    6 ar
     2    1    2 ar
     3    1   22 1
     4    2    3 ar
     5    2   23 1
     6    3    4 ar
     7    3   24 1
     8    4    5 ar
     9    4    7 1
    10    5    6 ar
    11    5   25 1
    12    6   26 1
    13    7   27 1
    14    7   28 1
    15    7   45 1
    16    8    9 1
    17    8   29 1
    18    8   30 1
    19    8   45 1
    20    9   10 1
    21    9   31 1
    22    9   32 1
    23   10   21 1
    24   10   11 1
    25   10   13 1
    26   11   12 1
    27   11   33 1
    28   11   34 1
    29   12   35 1
    30   12   36 1
    31   12   45 1
    32   13   18 ar
    33   13   14 ar
    34   14   15 ar
    35   14   37 1
    36   15   16 ar
    37   15   38 1
    38   16   17 ar
    39   16   39 1
    40   17   18 ar
    41   17   40 1
    42   18   19 1
    43   19   20 1
    44   19   41 1
    45   19   42 1
    46   20   21 1
    47   20   43 1
    48   20   44 1
    49   45   46 1
@<TRIPOS>MOLECULE
ZINC00001773
   49    54     0     0     0
SMALL
USER_CHARGES

@<TRIPOS>ATOM
      1 C1         -0.2443    1.2570    0.4660 C.ar      1 <0>        -0.1112
      2 C2          0.9083    2.0200    0.5623 C.ar      1 <0>        -0.0962
      3 C3          2.1900    1.4753    0.5348 C.ar      1 <0>         0.1149
      4 C4          2.2879    0.0876    0.3806 C.ar      1 <0>         0.0997
      5 C5          1.1121   -0.6326    0.2304 C.ar      1 <0>        -0.1886
      6 C6         -0.1602   -0.1156    0.3155 C.ar      1 <0>        -0.0596
      7 C7         -1.3282   -1.0478    0.3098 C.3       1 <0>        -0.0925
      8 C8         -0.9396   -2.5064    0.1383 C.3       1 <0>         0.0145
      9 H1         -1.6997   -3.1130    0.6306 H         1 <0>         0.1456
     10 C9          0.4167   -2.8747    0.7456 C.3       1 <0>         0.1448
     11 C10         1.4829   -2.0836    0.0450 C.3       1 <0>        -0.0304
     12 C11         1.4804   -2.4286   -1.4426 C.3       1 <0>        -0.1241
     13 C12         0.0910   -2.1126   -2.0094 C.3       1 <0>        -0.0096
     14 N1         -0.9309   -2.8716   -1.2830 N.4       1 <0>        -0.3739
     15 C13        -2.2494   -2.5851   -1.8638 C.3       1 <0>         0.0182
     16 C14        -2.3011   -3.1153   -3.2981 C.3       1 <0>        -0.2108
     17 C15        -2.4792   -2.0935   -4.4229 C.3       1 <0>        -0.1679
     18 C16        -3.6360   -3.0186   -4.0393 C.3       1 <0>        -0.1476
     19 C17         2.8868   -2.1036    0.6341 C.3       1 <0>         0.0644
     20 H2          3.5148   -2.8457    0.1412 H         1 <0>         0.1600
     21 O1          3.3506   -0.7456    0.3657 O.3       1 <0>        -0.2592
     22 C18         2.8706   -2.3034    2.1213 C.2       1 <0>         0.3361
     23 O2          3.8019   -1.8874    2.7678 O.2       1 <0>        -0.4120
     24 C19         1.7528   -2.9946    2.8421 C.3       1 <0>        -0.1575
     25 C20         0.4362   -2.5258    2.2328 C.3       1 <0>        -0.1426
     26 O3          0.6517   -4.2744    0.5791 O.3       1 <0>        -0.5414
     27 O4          3.2968    2.2569    0.6522 O.3       1 <0>        -0.4785
     28 H3         -1.2116    1.7350    0.5131 H         1 <0>         0.1418
     29 H4          0.8079    3.0906    0.6634 H         1 <0>         0.1458
     30 H5         -1.8664   -0.9385    1.2514 H         1 <0>         0.1279
     31 H6         -1.9954   -0.7663   -0.5049 H         1 <0>         0.1079
     32 H7          2.2322   -1.8319   -1.9592 H         1 <0>         0.1192
     33 H8          1.6983   -3.4885   -1.5741 H         1 <0>         0.1097
     34 H9         -0.1082   -1.0460   -1.9055 H         1 <0>         0.1319
     35 H10         0.0606   -2.3836   -3.0648 H         1 <0>         0.1393
     36 H11        -3.0221   -3.0716   -1.2686 H         1 <0>         0.1355
     37 H12        -2.4183   -1.5083   -1.8682 H         1 <0>         0.1323
     38 H13        -1.6744   -3.9837   -3.5011 H         1 <0>         0.1257
     39 H14        -2.5597   -1.0437   -4.1411 H         1 <0>         0.1059
     40 H15        -1.9696   -2.2896   -5.3663 H         1 <0>         0.1108
     41 H16        -3.8874   -3.8232   -4.7304 H         1 <0>         0.1129
     42 H17        -4.4775   -2.5773   -3.5052 H         1 <0>         0.1078
     43 H18         1.8718   -4.0736    2.7439 H         1 <0>         0.1208
     44 H19         1.7811   -2.7239    3.8976 H         1 <0>         0.1111
     45 H20         0.2965   -1.4521    2.3583 H         1 <0>         0.0987
     46 H21        -0.3620   -3.0631    2.7449 H         1 <0>         0.0955
     47 H22        -0.0114   -4.8375    1.0014 H         1 <0>         0.3955
     48 H23         3.5936    2.3840    1.5637 H         1 <0>         0.4013
     49 H24        -0.7373   -3.8580   -1.3711 H         1 <0>         0.4280
@<TRIPOS>BOND
     1    1    6 ar
     2    1    2 ar
     3    1   28 1
     4    2    3 ar
     5    2   29 1
     6    3    4 ar
     7    3   27 1
     8    4   21 1
     9    4    5 ar
    10    5   11 1
    11    5    6 ar
    12    6    7 1
    13    7    8 1
    14    7   30 1
    15    7   31 1
    16    8    9 1
    17    8   14 1
    18    8   10 1
    19   10   25 1
    20   10   11 1
    21   10   26 1
    22   11   12 1
    23   11   19 1
    24   12   13 1
    25   12   32 1
    26   12   33 1
    27   13   14 1
    28   13   34 1
    29   13   35 1
    30   14   15 1
    31   14   49 1
    32   15   16 1
    33   15   36 1
    34   15   37 1
    35   16   18 1
    36   16   17 1
    37   16   38 1
    38   17   18 1
    39   17   39 1
    40   17   40 1
    41   18   41 1
    42   18   42 1
    43   19   20 1
    44   19   21 1
    45   19   22 1
    46   22   23 2
    47   22   24 1
    48   24   25 1
    49   24   43 1
    50   24   44 1
    51   25   45 1
    52   25   46 1
    53   26   47 1
    54   27   48 1
@<TRIPOS>MOLECULE
ZINC13586927
   42    44     0     0     0
SMALL
USER_CHARGES
1-phenethyl-4-(2-pyridyl)piperazine
@<TRIPOS>ATOM
      1 C1         -9.0051   -4.8281    2.1669 C.ar      1 <0>        -0.1179
      2 C2         -7.9630   -5.2265    2.9831 C.ar      1 <0>        -0.1162
      3 C3         -6.7716   -4.5254    2.9747 C.ar      1 <0>        -0.1145
      4 C4         -6.6225   -3.4257    2.1505 C.ar      1 <0>        -0.0917
      5 C5         -7.6666   -3.0240    1.3385 C.ar      1 <0>        -0.1171
      6 C6         -8.8562   -3.7281    1.3430 C.ar      1 <0>        -0.1168
      7 C7         -5.3239   -2.6612    2.1417 C.3       1 <0>        -0.0831
      8 C8         -4.3883   -3.2573    1.0880 C.3       1 <0>         0.0604
      9 N1         -3.1224   -2.5120    1.0794 N.3       1 <0>        -0.5406
     10 C9         -2.2928   -2.8964   -0.0710 C.3       1 <0>         0.0549
     11 C10        -0.9536   -2.1587   -0.0000 C.3       1 <0>         0.0189
     12 N2         -1.1957   -0.7092    0.0101 N.pl3     1 <0>        -0.4727
     13 C11        -2.0254   -0.3249    1.1606 C.3       1 <0>         0.0543
     14 C12        -3.3645   -1.0626    1.0896 C.3       1 <0>         0.0389
     15 C13         0.0021   -0.0041    0.0020 C.ar      1 <0>         0.3614
     16 C14        -0.0168    1.3872    0.0097 C.ar      1 <0>        -0.1499
     17 C15         1.1824    2.0761    0.0019 C.ar      1 <0>         0.0216
     18 C16         2.3650    1.3480   -0.0128 C.ar      1 <0>        -0.1502
     19 C17         2.3098   -0.0311   -0.0202 C.ar      1 <0>         0.1412
     20 N3          1.1508   -0.6622   -0.0125 N.ar      1 <0>        -0.5075
     21 H1         -9.9358   -5.3760    2.1732 H         1 <0>         0.1245
     22 H2         -8.0794   -6.0856    3.6271 H         1 <0>         0.1246
     23 H3         -5.9574   -4.8367    3.6124 H         1 <0>         0.1219
     24 H4         -7.5517   -2.1622    0.6978 H         1 <0>         0.1185
     25 H5         -9.6705   -3.4167    0.7056 H         1 <0>         0.1239
     26 H6         -5.5213   -1.6060    1.9019 H         1 <0>         0.0751
     27 H7         -4.8513   -2.7298    3.1326 H         1 <0>         0.0838
     28 H8         -4.1909   -4.3125    1.3278 H         1 <0>         0.0874
     29 H9         -4.8609   -3.1887    0.0971 H         1 <0>         0.0453
     30 H10        -2.1162   -3.9819   -0.0493 H         1 <0>         0.1036
     31 H11        -2.8115   -2.6279   -1.0031 H         1 <0>         0.0583
     32 H12        -0.4232   -2.4493    0.9188 H         1 <0>         0.0793
     33 H13        -0.3424   -2.4233   -0.8754 H         1 <0>         0.1005
     34 H14        -1.5067   -0.5935    2.0927 H         1 <0>         0.0782
     35 H15        -2.2021    0.7606    1.1390 H         1 <0>         0.1086
     36 H16        -3.8955   -0.7731    0.1708 H         1 <0>         0.0573
     37 H17        -3.9762   -0.7992    1.9650 H         1 <0>         0.1107
     38 H18        -0.9551    1.9218    0.0170 H         1 <0>         0.1816
     39 H19         1.1988    3.1559    0.0072 H         1 <0>         0.1769
     40 H20         3.3181    1.8558   -0.0188 H         1 <0>         0.1826
     41 H21         3.2270   -0.6012   -0.0320 H         1 <0>         0.2065
     42 H22         1.1544   -1.7622   -0.0184 H         1 <0>         0.4772
@<TRIPOS>BOND
     1    1    6 ar
     2    1    2 ar
     3    1   21 1
     4    2    3 ar
     5    2   22 1
     6    3    4 ar
     7    3   23 1
     8    4    5 ar
     9    4    7 1
    10    5    6 ar
    11    5   24 1
    12    6   25 1
    13    7    8 1
    14    7   26 1
    15    7   27 1
    16    8    9 1
    17    8   28 1
    18    8   29 1
    19    9   14 1
    20    9   10 1
    21   10   11 1
    22   10   30 1
    23   10   31 1
    24   11   12 1
    25   11   32 1
    26   11   33 1
    27   12   13 1
    28   12   15 1
    29   13   14 1
    30   13   34 1
    31   13   35 1
    32   14   36 1
    33   14   37 1
    34   15   20 ar
    35   15   16 ar
    36   16   17 ar
    37   16   38 1
    38   17   18 ar
    39   17   39 1
    40   18   19 ar
    41   18   40 1
    42   19   20 ar
    43   19   41 1
    44   20   42 1
@<TRIPOS>MOLECULE
ZINC13586927
   42    44     0     0     0
SMALL
USER_CHARGES
1-phenethyl-4-(2-pyridyl)piperazine
@<TRIPOS>ATOM
      1 C1         -9.0051   -4.8281    2.1669 C.ar      1 <0>        -0.1044
      2 C2         -7.9630   -5.2265    2.9831 C.ar      1 <0>        -0.1140
      3 C3         -6.7716   -4.5254    2.9747 C.ar      1 <0>        -0.1104
      4 C4         -6.6225   -3.4257    2.1505 C.ar      1 <0>        -0.1084
      5 C5         -7.6666   -3.0240    1.3385 C.ar      1 <0>        -0.1102
      6 C6         -8.8562   -3.7281    1.3430 C.ar      1 <0>        -0.1140
      7 C7         -5.3239   -2.6612    2.1417 C.3       1 <0>        -0.1025
      8 C8         -4.3883   -3.2573    1.0880 C.3       1 <0>        -0.0021
      9 N1         -3.1224   -2.5120    1.0794 N.4       1 <0>        -0.4023
     10 C9         -2.2928   -2.8964   -0.0710 C.3       1 <0>        -0.0020
     11 C10        -0.9536   -2.1587   -0.0000 C.3       1 <0>         0.0382
     12 N2         -1.1957   -0.7092    0.0101 N.pl3     1 <0>        -0.4774
     13 C11        -2.0254   -0.3249    1.1606 C.3       1 <0>         0.0280
     14 C12        -3.3645   -1.0626    1.0896 C.3       1 <0>        -0.0068
     15 C13         0.0021   -0.0041    0.0020 C.ar      1 <0>         0.2892
     16 C14        -0.0168    1.3872    0.0097 C.ar      1 <0>        -0.1766
     17 C15         1.1824    2.0761    0.0019 C.ar      1 <0>        -0.0495
     18 C16         2.3650    1.3480   -0.0128 C.ar      1 <0>        -0.1792
     19 C17         2.3098   -0.0311   -0.0202 C.ar      1 <0>         0.1284
     20 N3          1.1508   -0.6622   -0.0125 N.ar      1 <0>        -0.5179
     21 H1         -9.9358   -5.3760    2.1732 H         1 <0>         0.1296
     22 H2         -8.0794   -6.0856    3.6271 H         1 <0>         0.1293
     23 H3         -5.9574   -4.8367    3.6124 H         1 <0>         0.1239
     24 H4         -7.5517   -2.1622    0.6978 H         1 <0>         0.1233
     25 H5         -9.6705   -3.4167    0.7056 H         1 <0>         0.1293
     26 H6         -5.5213   -1.6060    1.9019 H         1 <0>         0.0969
     27 H7         -4.8513   -2.7298    3.1326 H         1 <0>         0.0954
     28 H8         -4.1909   -4.3125    1.3278 H         1 <0>         0.1346
     29 H9         -4.8609   -3.1887    0.0971 H         1 <0>         0.1299
     30 H10        -2.1162   -3.9819   -0.0493 H         1 <0>         0.1412
     31 H11        -2.8115   -2.6279   -1.0031 H         1 <0>         0.1356
     32 H12        -0.4232   -2.4493    0.9188 H         1 <0>         0.0760
     33 H13        -0.3424   -2.4233   -0.8754 H         1 <0>         0.1325
     34 H14        -1.5067   -0.5935    2.0927 H         1 <0>         0.0717
     35 H15        -2.2021    0.7606    1.1390 H         1 <0>         0.1299
     36 H16        -3.8955   -0.7731    0.1708 H         1 <0>         0.1390
     37 H17        -3.9762   -0.7992    1.9650 H         1 <0>         0.1452
     38 H18        -0.9551    1.9218    0.0170 H         1 <0>         0.1384
     39 H19         1.1988    3.1559    0.0072 H         1 <0>         0.1441
     40 H20         3.3181    1.8558   -0.0188 H         1 <0>         0.1437
     41 H21         3.2270   -0.6012   -0.0320 H         1 <0>         0.1646
     42 H22        -2.5727   -2.7710    1.9963 H         1 <0>         0.4400
@<TRIPOS>BOND
     1    1    6 ar
     2    1    2 ar
     3    1   21 1
     4    2    3 ar
     5    2   22 1
     6    3    4 ar
     7    3   23 1
     8    4    5 ar
     9    4    7 1
    10    5    6 ar
    11    5   24 1
    12    6   25 1
    13    7    8 1
    14    7   26 1
    15    7   27 1
    16    8    9 1
    17    8   28 1
    18    8   29 1
    19    9   14 1
    20    9   10 1
    21    9   42 1
    22   10   11 1
    23   10   30 1
    24   10   31 1
    25   11   12 1
    26   11   32 1
    27   11   33 1
    28   12   13 1
    29   12   15 1
    30   13   14 1
    31   13   34 1
    32   13   35 1
    33   14   36 1
    34   14   37 1
    35   15   20 ar
    36   15   16 ar
    37   16   17 ar
    38   16   38 1
    39   17   18 ar
    40   17   39 1
    41   18   19 ar
    42   18   40 1
    43   19   20 ar
    44   19   41 1
@<TRIPOS>MOLECULE
ZINC13586925
   37    38     0     0     0
SMALL
USER_CHARGES
(3R)-3-methyl-1-phenethyl-piperidine
@<TRIPOS>ATOM
      1 C1         -0.0187    1.5258    0.0104 C.3       1 <0>        -0.1524
      2 C2          0.0021   -0.0041    0.0020 C.3       1 <0>        -0.1118
      3 H1          0.5109   -0.3562   -0.8953 H         1 <0>         0.0933
      4 C3         -1.4341   -0.5349    0.0178 C.3       1 <0>        -0.1352
      5 C4         -1.4038   -2.0649    0.0700 C.3       1 <0>        -0.1466
      6 C5         -0.6230   -2.5129    1.3076 C.3       1 <0>        -0.0113
      7 C6          0.7421   -0.5118    1.2416 C.3       1 <0>         0.0004
      8 C7          1.5639   -2.5033    2.3459 C.3       1 <0>        -0.0009
      9 C8          1.3452   -4.0123    2.4723 C.3       1 <0>        -0.1018
     10 C9          2.1863   -4.5488    3.6019 C.ar      1 <0>        -0.1091
     11 C10         3.4713   -4.9947    3.3554 C.ar      1 <0>        -0.1104
     12 C11         4.2445   -5.4823    4.3924 C.ar      1 <0>        -0.1139
     13 C12         3.7291   -5.5334    5.6740 C.ar      1 <0>        -0.1043
     14 C13         2.4421   -5.0928    5.9195 C.ar      1 <0>        -0.1140
     15 C14         1.6707   -4.6003    4.8835 C.ar      1 <0>        -0.1104
     16 H2          1.0039    1.9031    0.0027 H         1 <0>         0.0684
     17 H3         -0.5459    1.8868   -0.8726 H         1 <0>         0.0775
     18 H4         -0.5289    1.8773    0.9072 H         1 <0>         0.0672
     19 H5         -1.9548   -0.1508    0.8950 H         1 <0>         0.0819
     20 H6         -1.9520   -0.2114   -0.8851 H         1 <0>         0.0939
     21 H7         -0.9175   -2.4500   -0.8263 H         1 <0>         0.0872
     22 H8         -2.4230   -2.4474    0.1245 H         1 <0>         0.1120
     23 H9         -0.5874   -3.6019    1.3400 H         1 <0>         0.1325
     24 H10        -1.1176   -2.1391    2.2041 H         1 <0>         0.1298
     25 H11         1.7693   -0.1474    1.2261 H         1 <0>         0.1279
     26 H12         0.2410   -0.1475    2.1384 H         1 <0>         0.1296
     27 H13         2.6159   -2.3044    2.1417 H         1 <0>         0.1295
     28 H14         1.2759   -2.0151    3.2769 H         1 <0>         0.1312
     29 H15         0.2931   -4.2111    2.6765 H         1 <0>         0.0968
     30 H16         1.6332   -4.5004    1.5413 H         1 <0>         0.0941
     31 H17         3.8725   -4.9586    2.3533 H         1 <0>         0.1239
     32 H18         5.2499   -5.8269    4.2005 H         1 <0>         0.1296
     33 H19         4.3319   -5.9178    6.4835 H         1 <0>         0.1299
     34 H20         2.0393   -5.1330    6.9208 H         1 <0>         0.1295
     35 H21         0.6652   -4.2560    5.0752 H         1 <0>         0.1233
     36 N1          0.7571   -1.9899    1.2196 N.4       1 <0>        -0.3938
     37 H22         1.1772   -2.3055    0.3375 H         1 <0>         0.4265
@<TRIPOS>BOND
     1    1    2 1
     2    1   16 1
     3    1   17 1
     4    1   18 1
     5    2    3 1
     6    2    7 1
     7    2    4 1
     8    4    5 1
     9    4   19 1
    10    4   20 1
    11    5    6 1
    12    5   21 1
    13    5   22 1
    14    6   23 1
    15    6   24 1
    16    6   36 1
    17    7   25 1
    18    7   26 1
    19    7   36 1
    20    8    9 1
    21    8   27 1
    22    8   28 1
    23    8   36 1
    24    9   10 1
    25    9   29 1
    26    9   30 1
    27   10   15 ar
    28   10   11 ar
    29   11   12 ar
    30   11   31 1
    31   12   13 ar
    32   12   32 1
    33   13   14 ar
    34   13   33 1
    35   14   15 ar
    36   14   34 1
    37   15   35 1
    38   36   37 1
@<TRIPOS>MOLECULE
ZINC13586926
   37    38     0     0     0
SMALL
USER_CHARGES
(3S)-3-methyl-1-phenethyl-piperidine
@<TRIPOS>ATOM
      1 C1          0.0235    1.0906    2.5070 C.3       1 <0>        -0.1524
      2 C2         -0.7286    1.5791    1.2674 C.3       1 <0>        -0.1118
      3 H1         -1.7471    1.1912    1.2827 H         1 <0>         0.0932
      4 C3         -0.7644    3.1099    1.2618 C.3       1 <0>        -0.1352
      5 C4         -1.4660    3.5913   -0.0113 C.3       1 <0>        -0.1468
      6 C5         -0.7289    3.0396   -1.2338 C.3       1 <0>        -0.0067
      7 C6         -0.0127    1.0858    0.0080 C.3       1 <0>        -0.0001
      8 C7         -0.1453    1.0046   -2.4078 C.3       1 <0>        -0.0014
      9 C8         -1.0528    1.3284   -3.5963 C.3       1 <0>        -0.1003
     10 C9         -0.4606    0.7462   -4.8538 C.ar      1 <0>        -0.1088
     11 C10         0.4119    1.4974   -5.6190 C.ar      1 <0>        -0.1103
     12 C11         0.9592    0.9615   -6.7697 C.ar      1 <0>        -0.1140
     13 C12         0.6252   -0.3215   -7.1613 C.ar      1 <0>        -0.1043
     14 C13        -0.2514   -1.0707   -6.3990 C.ar      1 <0>        -0.1139
     15 C14        -0.7943   -0.5369   -5.2453 C.ar      1 <0>        -0.1103
     16 H2          1.0413    1.4805    2.4916 H         1 <0>         0.0672
     17 H3         -0.4868    1.4422    3.4037 H         1 <0>         0.0775
     18 H4          0.0519    0.0010    2.5088 H         1 <0>         0.0684
     19 H5          0.2538    3.4983    1.2857 H         1 <0>         0.0820
     20 H6         -1.3106    3.4656    2.1354 H         1 <0>         0.0941
     21 H7         -1.4570    4.6808   -0.0419 H         1 <0>         0.1121
     22 H8         -2.4963    3.2356   -0.0163 H         1 <0>         0.0873
     23 H9          0.2971    3.4074   -1.2358 H         1 <0>         0.1297
     24 H10        -1.2344    3.3688   -2.1417 H         1 <0>         0.1289
     25 H11         0.0021   -0.0041    0.0020 H         1 <0>         0.1278
     26 H12         1.0099    1.4629    0.0003 H         1 <0>         0.1298
     27 H13         0.8421    1.4341   -2.5771 H         1 <0>         0.1318
     28 H14        -0.0578   -0.0767   -2.3015 H         1 <0>         0.1300
     29 H15        -2.0402    0.8989   -3.4270 H         1 <0>         0.0940
     30 H16        -1.1403    2.4097   -3.7026 H         1 <0>         0.0941
     31 H17         0.6691    2.5015   -5.3155 H         1 <0>         0.1234
     32 H18         1.6443    1.5467   -7.3651 H         1 <0>         0.1295
     33 H19         1.0493   -0.7386   -8.0627 H         1 <0>         0.1299
     34 H20        -0.5124   -2.0730   -6.7050 H         1 <0>         0.1296
     35 H21        -1.4794   -1.1221   -4.6498 H         1 <0>         0.1239
     36 N1         -0.7509    1.5624   -1.1810 N.4       1 <0>        -0.3942
     37 H22        -1.7256    1.2460   -1.1168 H         1 <0>         0.4259
@<TRIPOS>BOND
     1    1    2 1
     2    1   16 1
     3    1   17 1
     4    1   18 1
     5    2    3 1
     6    2    7 1
     7    2    4 1
     8    4    5 1
     9    4   19 1
    10    4   20 1
    11    5    6 1
    12    5   21 1
    13    5   22 1
    14    6   23 1
    15    6   24 1
    16    6   36 1
    17    7   25 1
    18    7   26 1
    19    7   36 1
    20    8    9 1
    21    8   27 1
    22    8   28 1
    23    8   36 1
    24    9   10 1
    25    9   29 1
    26    9   30 1
    27   10   15 ar
    28   10   11 ar
    29   11   12 ar
    30   11   31 1
    31   12   13 ar
    32   12   32 1
    33   13   14 ar
    34   13   33 1
    35   14   15 ar
    36   14   34 1
    37   15   35 1
    38   36   37 1
@<TRIPOS>MOLECULE
ZINC19633972
   45    47     0     0     0
SMALL
USER_CHARGES
1-(3-phenylpropyl)-4-(2-pyridyl)piperazine
@<TRIPOS>ATOM
      1 C1         -9.2547   -1.7735    5.0925 C.ar      1 <0>        -0.1214
      2 C2         -9.2787   -1.2938    3.7962 C.ar      1 <0>        -0.1172
      3 C3         -8.4331   -1.8320    2.8443 C.ar      1 <0>        -0.1192
      4 C4         -7.5639   -2.8503    3.1885 C.ar      1 <0>        -0.0869
      5 C5         -7.5440   -3.3340    4.4833 C.ar      1 <0>        -0.1173
      6 C6         -8.3859   -2.7921    5.4365 C.ar      1 <0>        -0.1166
      7 C7         -6.6423   -3.4374    2.1506 C.3       1 <0>        -0.0806
      8 C8         -5.3239   -2.6612    2.1417 C.3       1 <0>        -0.1180
      9 C9         -4.3883   -3.2573    1.0880 C.3       1 <0>         0.0535
     10 N1         -3.1224   -2.5120    1.0794 N.3       1 <0>        -0.5405
     11 C10        -2.2928   -2.8964   -0.0710 C.3       1 <0>         0.0547
     12 C11        -0.9536   -2.1587   -0.0000 C.3       1 <0>         0.0187
     13 N2         -1.1957   -0.7092    0.0101 N.pl3     1 <0>        -0.4727
     14 C12        -2.0254   -0.3249    1.1606 C.3       1 <0>         0.0542
     15 C13        -3.3645   -1.0626    1.0896 C.3       1 <0>         0.0402
     16 C14         0.0021   -0.0041    0.0020 C.ar      1 <0>         0.3615
     17 C15        -0.0168    1.3872    0.0097 C.ar      1 <0>        -0.1500
     18 C16         1.1824    2.0761    0.0019 C.ar      1 <0>         0.0216
     19 C17         2.3650    1.3480   -0.0128 C.ar      1 <0>        -0.1503
     20 C18         2.3098   -0.0311   -0.0202 C.ar      1 <0>         0.1412
     21 N3          1.1508   -0.6622   -0.0125 N.ar      1 <0>        -0.5075
     22 H1         -9.9151   -1.3527    5.8363 H         1 <0>         0.1232
     23 H2         -9.9577   -0.4982    3.5273 H         1 <0>         0.1228
     24 H3         -8.4517   -1.4572    1.8316 H         1 <0>         0.1192
     25 H4         -6.8680   -4.1325    4.7512 H         1 <0>         0.1208
     26 H5         -8.3675   -3.1672    6.4491 H         1 <0>         0.1233
     27 H6         -6.4449   -4.4926    2.3904 H         1 <0>         0.0763
     28 H7         -7.1149   -3.3688    1.1597 H         1 <0>         0.0734
     29 H8         -5.5213   -1.6060    1.9019 H         1 <0>         0.0676
     30 H9         -4.8513   -2.7298    3.1326 H         1 <0>         0.0760
     31 H10        -4.1909   -4.3125    1.3278 H         1 <0>         0.0866
     32 H11        -4.8609   -3.1887    0.0971 H         1 <0>         0.0441
     33 H12        -2.1162   -3.9819   -0.0493 H         1 <0>         0.1034
     34 H13        -2.8115   -2.6279   -1.0031 H         1 <0>         0.0579
     35 H14        -0.4232   -2.4493    0.9188 H         1 <0>         0.0790
     36 H15        -0.3424   -2.4233   -0.8754 H         1 <0>         0.1003
     37 H16        -1.5067   -0.5935    2.0927 H         1 <0>         0.0778
     38 H17        -2.2021    0.7606    1.1390 H         1 <0>         0.1083
     39 H18        -3.8955   -0.7731    0.1708 H         1 <0>         0.0566
     40 H19        -3.9762   -0.7992    1.9650 H         1 <0>         0.1107
     41 H20        -0.9551    1.9218    0.0170 H         1 <0>         0.1816
     42 H21         1.1988    3.1559    0.0072 H         1 <0>         0.1769
     43 H22         3.3181    1.8558   -0.0188 H         1 <0>         0.1826
     44 H23         3.2270   -0.6012   -0.0320 H         1 <0>         0.2065
     45 H24         1.1544   -1.7622   -0.0184 H         1 <0>         0.4771
@<TRIPOS>BOND
     1    1    6 ar
     2    1    2 ar
     3    1   22 1
     4    2    3 ar
     5    2   23 1
     6    3    4 ar
     7    3   24 1
     8    4    5 ar
     9    4    7 1
    10    5    6 ar
    11    5   25 1
    12    6   26 1
    13    7    8 1
    14    7   27 1
    15    7   28 1
    16    8    9 1
    17    8   29 1
    18    8   30 1
    19    9   10 1
    20    9   31 1
    21    9   32 1
    22   10   15 1
    23   10   11 1
    24   11   12 1
    25   11   33 1
    26   11   34 1
    27   12   13 1
    28   12   35 1
    29   12   36 1
    30   13   14 1
    31   13   16 1
    32   14   15 1
    33   14   37 1
    34   14   38 1
    35   15   39 1
    36   15   40 1
    37   16   21 ar
    38   16   17 ar
    39   17   18 ar
    40   17   41 1
    41   18   19 ar
    42   18   42 1
    43   19   20 ar
    44   19   43 1
    45   20   21 ar
    46   20   44 1
    47   21   45 1
@<TRIPOS>MOLECULE
ZINC19633972
   45    47     0     0     0
SMALL
USER_CHARGES
1-(3-phenylpropyl)-4-(2-pyridyl)piperazine
@<TRIPOS>ATOM
      1 C1         -9.2547   -1.7735    5.0925 C.ar      1 <0>        -0.1134
      2 C2         -9.2787   -1.2938    3.7962 C.ar      1 <0>        -0.1154
      3 C3         -8.4331   -1.8320    2.8443 C.ar      1 <0>        -0.1161
      4 C4         -7.5639   -2.8503    3.1885 C.ar      1 <0>        -0.1002
      5 C5         -7.5440   -3.3340    4.4833 C.ar      1 <0>        -0.1157
      6 C6         -8.3859   -2.7921    5.4365 C.ar      1 <0>        -0.1154
      7 C7         -6.6423   -3.4374    2.1506 C.3       1 <0>        -0.0747
      8 C8         -5.3239   -2.6612    2.1417 C.3       1 <0>        -0.1464
      9 C9         -4.3883   -3.2573    1.0880 C.3       1 <0>        -0.0067
     10 N1         -3.1224   -2.5120    1.0794 N.4       1 <0>        -0.4021
     11 C10        -2.2928   -2.8964   -0.0710 C.3       1 <0>        -0.0020
     12 C11        -0.9536   -2.1587   -0.0000 C.3       1 <0>         0.0379
     13 N2         -1.1957   -0.7092    0.0101 N.pl3     1 <0>        -0.4773
     14 C12        -2.0254   -0.3249    1.1606 C.3       1 <0>         0.0280
     15 C13        -3.3645   -1.0626    1.0896 C.3       1 <0>        -0.0060
     16 C14         0.0021   -0.0041    0.0020 C.ar      1 <0>         0.2892
     17 C15        -0.0168    1.3872    0.0097 C.ar      1 <0>        -0.1766
     18 C16         1.1824    2.0761    0.0019 C.ar      1 <0>        -0.0495
     19 C17         2.3650    1.3480   -0.0128 C.ar      1 <0>        -0.1791
     20 C18         2.3098   -0.0311   -0.0202 C.ar      1 <0>         0.1283
     21 N3          1.1508   -0.6622   -0.0125 N.ar      1 <0>        -0.5179
     22 H1         -9.9151   -1.3527    5.8363 H         1 <0>         0.1265
     23 H2         -9.9577   -0.4982    3.5273 H         1 <0>         0.1260
     24 H3         -8.4517   -1.4572    1.8316 H         1 <0>         0.1212
     25 H4         -6.8680   -4.1325    4.7512 H         1 <0>         0.1213
     26 H5         -8.3675   -3.1672    6.4491 H         1 <0>         0.1260
     27 H6         -6.4449   -4.4926    2.3904 H         1 <0>         0.0835
     28 H7         -7.1149   -3.3688    1.1597 H         1 <0>         0.0832
     29 H8         -5.5213   -1.6060    1.9019 H         1 <0>         0.0907
     30 H9         -4.8513   -2.7298    3.1326 H         1 <0>         0.0889
     31 H10        -4.1909   -4.3125    1.3278 H         1 <0>         0.1342
     32 H11        -4.8609   -3.1887    0.0971 H         1 <0>         0.1294
     33 H12        -2.1162   -3.9819   -0.0493 H         1 <0>         0.1412
     34 H13        -2.8115   -2.6279   -1.0031 H         1 <0>         0.1355
     35 H14        -0.4232   -2.4493    0.9188 H         1 <0>         0.0757
     36 H15        -0.3424   -2.4233   -0.8754 H         1 <0>         0.1325
     37 H16        -1.5067   -0.5935    2.0927 H         1 <0>         0.0714
     38 H17        -2.2021    0.7606    1.1390 H         1 <0>         0.1297
     39 H18        -3.8955   -0.7731    0.1708 H         1 <0>         0.1386
     40 H19        -3.9762   -0.7992    1.9650 H         1 <0>         0.1451
     41 H20        -0.9551    1.9218    0.0170 H         1 <0>         0.1384
     42 H21         1.1988    3.1559    0.0072 H         1 <0>         0.1441
     43 H22         3.3181    1.8558   -0.0188 H         1 <0>         0.1437
     44 H23         3.2270   -0.6012   -0.0320 H         1 <0>         0.1646
     45 H24        -2.5727   -2.7710    1.9963 H         1 <0>         0.4399
@<TRIPOS>BOND
     1    1    6 ar
     2    1    2 ar
     3    1   22 1
     4    2    3 ar
     5    2   23 1
     6    3    4 ar
     7    3   24 1
     8    4    5 ar
     9    4    7 1
    10    5    6 ar
    11    5   25 1
    12    6   26 1
    13    7    8 1
    14    7   27 1
    15    7   28 1
    16    8    9 1
    17    8   29 1
    18    8   30 1
    19    9   10 1
    20    9   31 1
    21    9   32 1
    22   10   15 1
    23   10   11 1
    24   10   45 1
    25   11   12 1
    26   11   33 1
    27   11   34 1
    28   12   13 1
    29   12   35 1
    30   12   36 1
    31   13   14 1
    32   13   16 1
    33   14   15 1
    34   14   37 1
    35   14   38 1
    36   15   39 1
    37   15   40 1
    38   16   21 ar
    39   16   17 ar
    40   17   18 ar
    41   17   41 1
    42   18   19 ar
    43   18   42 1
    44   19   20 ar
    45   19   43 1
    46   20   21 ar
    47   20   44 1
@<TRIPOS>MOLECULE
ZINC01593750
   38    40     0     0     0
SMALL
USER_CHARGES
2-phenethyl-3,4-dihydro-1H-isoquinoline
@<TRIPOS>ATOM
      1 C1          7.3111    5.4241    1.0650 C.ar      1 <0>        -0.1041
      2 C2          6.2126    5.8118    0.3208 C.ar      1 <0>        -0.1140
      3 C3          5.0304    5.1013    0.4119 C.ar      1 <0>        -0.1101
      4 C4          4.9465    4.0033    1.2475 C.ar      1 <0>        -0.1085
      5 C5          6.0433    3.6190    1.9960 C.ar      1 <0>        -0.1100
      6 C6          7.2273    4.3261    1.9006 C.ar      1 <0>        -0.1139
      7 C7          3.6575    3.2290    1.3471 C.3       1 <0>        -0.1009
      8 C8          3.6511    2.1124    0.3011 C.3       1 <0>        -0.0004
      9 C9          2.4479    0.1370   -0.4222 C.3       1 <0>         0.0012
     10 C10         1.2955   -0.7777   -0.0061 C.3       1 <0>        -0.1072
     11 C11         0.0021   -0.0041    0.0020 C.ar      1 <0>        -0.0916
     12 C12        -1.1912   -0.7107    0.0031 C.ar      1 <0>        -0.1052
     13 C13        -2.3982   -0.0410    0.0142 C.ar      1 <0>        -0.0926
     14 C14        -2.4176    1.3414    0.0245 C.ar      1 <0>        -0.1048
     15 C15        -1.2306    2.0455    0.0189 C.ar      1 <0>        -0.0941
     16 C16        -0.0166    1.3741    0.0096 C.ar      1 <0>        -0.1347
     17 C17         1.2518    2.1863    0.0018 C.3       1 <0>         0.0487
     18 H1          8.2350    5.9788    0.9933 H         1 <0>         0.1298
     19 H2          6.2782    6.6697   -0.3320 H         1 <0>         0.1294
     20 H3          4.1721    5.4042   -0.1695 H         1 <0>         0.1237
     21 H4          5.9764    2.7637    2.6521 H         1 <0>         0.1242
     22 H5          8.0856    4.0229    2.4818 H         1 <0>         0.1296
     23 H6          2.8164    3.8989    1.1685 H         1 <0>         0.0941
     24 H7          3.5707    2.7944    2.3430 H         1 <0>         0.0950
     25 H8          4.4922    1.4424    0.4798 H         1 <0>         0.1334
     26 H9          3.7379    2.5469   -0.6947 H         1 <0>         0.1332
     27 H10         3.3974   -0.3728   -0.2591 H         1 <0>         0.1363
     28 H11         2.3476    0.3960   -1.4762 H         1 <0>         0.1334
     29 H12         1.4881   -1.1713    0.9920 H         1 <0>         0.1033
     30 H13         1.2183   -1.6044   -0.7124 H         1 <0>         0.1227
     31 H14        -1.1760   -1.7905   -0.0044 H         1 <0>         0.1347
     32 H15        -3.3250   -0.5955    0.0144 H         1 <0>         0.1367
     33 H16        -3.3598    1.8692    0.0346 H         1 <0>         0.1373
     34 H17        -1.2469    3.1254    0.0274 H         1 <0>         0.1340
     35 H18         1.4220    2.5781   -1.0010 H         1 <0>         0.1382
     36 H19         1.1510    3.0175    0.6998 H         1 <0>         0.1369
     37 N1          2.3884    1.3487    0.4200 N.4       1 <0>        -0.3935
     38 H20         2.2574    1.0702    1.3995 H         1 <0>         0.4296
@<TRIPOS>BOND
     1    1    6 ar
     2    1    2 ar
     3    1   18 1
     4    2    3 ar
     5    2   19 1
     6    3    4 ar
     7    3   20 1
     8    4    5 ar
     9    4    7 1
    10    5    6 ar
    11    5   21 1
    12    6   22 1
    13    7    8 1
    14    7   23 1
    15    7   24 1
    16    8   25 1
    17    8   26 1
    18    8   37 1
    19    9   10 1
    20    9   27 1
    21    9   28 1
    22    9   37 1
    23   10   11 1
    24   10   29 1
    25   10   30 1
    26   11   16 ar
    27   11   12 ar
    28   12   13 ar
    29   12   31 1
    30   13   14 ar
    31   13   32 1
    32   14   15 ar
    33   14   33 1
    34   15   16 ar
    35   15   34 1
    36   16   17 1
    37   17   35 1
    38   17   36 1
    39   17   37 1
    40   37   38 1
@<TRIPOS>MOLECULE
ZINC13491909
   44    47     0     0     0
SMALL
USER_CHARGES
(1R)-1'-benzylspiro[1H-isobenzofuran-3,4'-piperidine]-1-carbonitrile
@<TRIPOS>ATOM
      1 C1         -0.2442    0.4696    5.8058 C.ar      1 <0>        -0.0842
      2 C2         -0.1926    1.7274    5.2347 C.ar      1 <0>        -0.1140
      3 C3         -1.0192    2.0380    4.1711 C.ar      1 <0>        -0.0965
      4 C4         -1.8967    1.0905    3.6781 C.ar      1 <0>        -0.1617
      5 C5         -1.9517   -0.1657    4.2522 C.ar      1 <0>        -0.0944
      6 C6         -1.1220   -0.4777    5.3130 C.ar      1 <0>        -0.1137
      7 C7         -2.7978    1.4291    2.5186 C.3       1 <0>         0.0493
      8 C8         -0.7308    1.5803    1.2665 C.3       1 <0>        -0.0017
      9 C9         -0.0127    1.0858    0.0080 C.3       1 <0>        -0.1579
     10 C10        -0.7531    1.5927   -1.2286 C.3       1 <0>         0.1379
     11 C11        -2.2108    1.1370   -1.1893 C.3       1 <0>        -0.1323
     12 C12        -2.8604    1.6292    0.1068 C.3       1 <0>         0.0000
     13 C13        -0.0823    1.0893   -2.4817 C.ar      1 <0>        -0.1240
     14 C14        -0.1030   -0.1262   -3.1346 C.ar      1 <0>        -0.0847
     15 C15         0.6304   -0.2996   -4.2940 C.ar      1 <0>        -0.0974
     16 C16         1.3839    0.7437   -4.7994 C.ar      1 <0>        -0.0981
     17 C17         1.4056    1.9618   -4.1451 C.ar      1 <0>        -0.0732
     18 C18         0.6737    2.1356   -2.9887 C.ar      1 <0>        -0.1271
     19 C19         0.4896    3.3135   -2.0602 C.3       1 <0>         0.2275
     20 H1          0.3463    4.2279   -2.6359 H         1 <0>         0.1593
     21 O1         -0.6890    3.0263   -1.2839 O.3       1 <0>        -0.3223
     22 C20         1.6585    3.4496   -1.1759 C.1       1 <0>         0.1748
     23 N1          2.5606    3.5547   -0.4935 N.1       1 <0>        -0.3789
     24 H2          0.4016    0.2270    6.6367 H         1 <0>         0.1358
     25 H3          0.4932    2.4676    5.6196 H         1 <0>         0.1359
     26 H4         -0.9791    3.0208    3.7252 H         1 <0>         0.1304
     27 H5         -2.6404   -0.9046    3.8699 H         1 <0>         0.1314
     28 H6         -1.1621   -1.4605    5.7590 H         1 <0>         0.1360
     29 H7         -3.0304    2.4939    2.5380 H         1 <0>         0.1376
     30 H8         -3.7206    0.8542    2.5956 H         1 <0>         0.1363
     31 H9         -0.2187    1.1998    2.1503 H         1 <0>         0.1353
     32 H10        -0.7244    2.6702    1.2840 H         1 <0>         0.1346
     33 H11         0.0021   -0.0041    0.0020 H         1 <0>         0.1048
     34 H12         1.0097    1.4636    0.0003 H         1 <0>         0.1101
     35 H13        -2.7448    1.5517   -2.0442 H         1 <0>         0.1271
     36 H14        -2.2528    0.0484   -1.2272 H         1 <0>         0.1055
     37 H15        -2.8404    2.7187    0.1322 H         1 <0>         0.1389
     38 H16        -3.8933    1.2836    0.1495 H         1 <0>         0.1357
     39 H17        -0.6911   -0.9415   -2.7401 H         1 <0>         0.1300
     40 H18         0.6143   -1.2507   -4.8055 H         1 <0>         0.1389
     41 H19         1.9562    0.6071   -5.7051 H         1 <0>         0.1404
     42 H20         1.9942    2.7769   -4.5396 H         1 <0>         0.1367
     43 N2         -2.1189    1.0686    1.2570 N.4       1 <0>        -0.3926
     44 H21        -2.0958    0.0456    1.1714 H         1 <0>         0.4246
@<TRIPOS>BOND
     1    1    6 ar
     2    1    2 ar
     3    1   24 1
     4    2    3 ar
     5    2   25 1
     6    3    4 ar
     7    3   26 1
     8    4    5 ar
     9    4    7 1
    10    5    6 ar
    11    5   27 1
    12    6   28 1
    13    7   29 1
    14    7   30 1
    15    7   43 1
    16    8    9 1
    17    8   31 1
    18    8   32 1
    19    8   43 1
    20    9   10 1
    21    9   33 1
    22    9   34 1
    23   10   21 1
    24   10   11 1
    25   10   13 1
    26   11   12 1
    27   11   35 1
    28   11   36 1
    29   12   37 1
    30   12   38 1
    31   12   43 1
    32   13   18 ar
    33   13   14 ar
    34   14   15 ar
    35   14   39 1
    36   15   16 ar
    37   15   40 1
    38   16   17 ar
    39   16   41 1
    40   17   18 ar
    41   17   42 1
    42   18   19 1
    43   19   20 1
    44   19   21 1
    45   19   22 1
    46   22   23 3
    47   43   44 1
@<TRIPOS>MOLECULE
ZINC13491910
   44    47     0     0     0
SMALL
USER_CHARGES
(1S)-1'-benzylspiro[1H-isobenzofuran-3,4'-piperidine]-1-carbonitrile
@<TRIPOS>ATOM
      1 C1          3.7849    8.4488   -3.2085 C.ar      1 <0>        -0.0839
      2 C2          4.4563    8.4145   -2.0006 C.ar      1 <0>        -0.1132
      3 C3          4.6919    7.2046   -1.3749 C.ar      1 <0>        -0.0943
      4 C4          4.2557    6.0291   -1.9568 C.ar      1 <0>        -0.1635
      5 C5          3.5889    6.0629   -3.1672 C.ar      1 <0>        -0.0970
      6 C6          3.3495    7.2732   -3.7908 C.ar      1 <0>        -0.1135
      7 C7          4.5125    4.7101   -1.2746 C.3       1 <0>         0.0495
      8 C8          3.7080    3.2448    0.4765 C.3       1 <0>        -0.0011
      9 C9          2.5844    3.0420    1.4966 C.3       1 <0>        -0.1322
     10 C10         1.2666    2.8179    0.7566 C.3       1 <0>         0.1379
     11 C11         0.9829    3.9959   -0.1742 C.3       1 <0>        -0.1579
     12 C12         2.1568    4.1686   -1.1419 C.3       1 <0>        -0.0014
     13 C13         0.1369    2.6448    1.7400 C.ar      1 <0>        -0.1239
     14 C14        -0.2069    3.3050    2.9018 C.ar      1 <0>        -0.0846
     15 C15        -1.3273    2.9148    3.6122 C.ar      1 <0>        -0.0974
     16 C16        -2.1034    1.8640    3.1590 C.ar      1 <0>        -0.0981
     17 C17        -1.7596    1.2021    1.9946 C.ar      1 <0>        -0.0732
     18 C18        -0.6418    1.5909    1.2858 C.ar      1 <0>        -0.1270
     19 C19        -0.0127    1.0858    0.0080 C.3       1 <0>         0.2275
     20 H1          0.0021   -0.0041    0.0020 H         1 <0>         0.1594
     21 O1          1.3323    1.6002   -0.0021 O.3       1 <0>        -0.3223
     22 C20        -0.7567    1.5887   -1.1584 C.1       1 <0>         0.1749
     23 N1         -1.3308    1.9768   -2.0585 N.1       1 <0>        -0.3790
     24 H2          3.6002    9.3941   -3.6970 H         1 <0>         0.1358
     25 H3          4.7965    9.3330   -1.5457 H         1 <0>         0.1362
     26 H4          5.2165    7.1779   -0.4313 H         1 <0>         0.1316
     27 H5          3.2519    5.1441   -3.6240 H         1 <0>         0.1305
     28 H6          2.8246    7.3000   -4.7343 H         1 <0>         0.1358
     29 H7          5.4333    4.7741   -0.6948 H         1 <0>         0.1372
     30 H8          4.6096    3.9256   -2.0252 H         1 <0>         0.1375
     31 H9          4.6456    3.4295    1.0008 H         1 <0>         0.1353
     32 H10         3.8059    2.3503   -0.1387 H         1 <0>         0.1395
     33 H11         2.5016    3.9268    2.1277 H         1 <0>         0.1053
     34 H12         2.8065    2.1728    2.1157 H         1 <0>         0.1272
     35 H13         0.0710    3.8022   -0.7390 H         1 <0>         0.1106
     36 H14         0.8606    4.9045    0.4154 H         1 <0>         0.1051
     37 H15         1.9691    5.0233   -1.7918 H         1 <0>         0.1325
     38 H16         2.2639    3.2686   -1.7474 H         1 <0>         0.1359
     39 H17         0.3985    4.1263    3.2559 H         1 <0>         0.1300
     40 H18        -1.5965    3.4314    4.5216 H         1 <0>         0.1389
     41 H19        -2.9786    1.5605    3.7143 H         1 <0>         0.1405
     42 H20        -2.3659    0.3816    1.6402 H         1 <0>         0.1367
     43 N2          3.3877    4.4200   -0.3618 N.4       1 <0>        -0.3924
     44 H21         3.2353    5.2320    0.2478 H         1 <0>         0.4246
@<TRIPOS>BOND
     1    1    6 ar
     2    1    2 ar
     3    1   24 1
     4    2    3 ar
     5    2   25 1
     6    3    4 ar
     7    3   26 1
     8    4    5 ar
     9    4    7 1
    10    5    6 ar
    11    5   27 1
    12    6   28 1
    13    7   29 1
    14    7   30 1
    15    7   43 1
    16    8    9 1
    17    8   31 1
    18    8   32 1
    19    8   43 1
    20    9   10 1
    21    9   33 1
    22    9   34 1
    23   10   21 1
    24   10   11 1
    25   10   13 1
    26   11   12 1
    27   11   35 1
    28   11   36 1
    29   12   37 1
    30   12   38 1
    31   12   43 1
    32   13   18 ar
    33   13   14 ar
    34   14   15 ar
    35   14   39 1
    36   15   16 ar
    37   15   40 1
    38   16   17 ar
    39   16   41 1
    40   17   18 ar
    41   17   42 1
    42   18   19 1
    43   19   20 1
    44   19   21 1
    45   19   22 1
    46   22   23 3
    47   43   44 1
@<TRIPOS>MOLECULE
ZINC02555353
   43    45     0     0     0
SMALL
USER_CHARGES
allyl-dimethyl-BLAHol
@<TRIPOS>ATOM
      1 C1         -4.4769    4.9776   -2.0643 C.3       1 <0>        -0.1715
      2 C2         -3.1039    5.6489   -2.1358 C.3       1 <0>        -0.0927
      3 H1         -3.2180    6.7301   -2.0585 H         1 <0>         0.1207
      4 C3         -2.2214    5.1407   -0.9960 C.3       1 <0>         0.0357
      5 H2         -2.7626    5.3208   -0.0672 H         1 <0>         0.1324
      6 C4         -0.9318    5.9412   -0.9450 C.3       1 <0>        -0.0875
      7 C5         -0.3401    6.1464   -2.3136 C.ar      1 <0>        -0.1123
      8 C6          0.9555    6.6466   -2.3868 C.ar      1 <0>        -0.0943
      9 C7          1.5544    6.8686   -3.6079 C.ar      1 <0>        -0.1363
     10 C8          0.8603    6.5934   -4.7775 C.ar      1 <0>         0.1240
     11 C9         -0.4285    6.0918   -4.7053 C.ar      1 <0>        -0.1392
     12 C10        -1.0238    5.8635   -3.4739 C.ar      1 <0>        -0.0631
     13 C11        -2.4233    5.2941   -3.4621 C.3       1 <0>        -0.0190
     14 C12        -2.2962    3.7618   -3.5313 C.3       1 <0>        -0.1374
     15 C13        -1.3834    3.3174   -2.3830 C.3       1 <0>        -0.0065
     16 C14        -1.1763    3.2222    0.0251 C.3       1 <0>         0.0280
     17 C15        -1.1558    1.7153    0.0169 C.2       1 <0>        -0.2362
     18 C16        -0.0126    1.0758    0.0080 C.2       1 <0>        -0.1056
     19 C17        -3.2285    5.8217   -4.6513 C.3       1 <0>        -0.1463
     20 O1          1.4413    6.8152   -5.9859 O.3       1 <0>        -0.4966
     21 H3         -4.9477    5.2140   -1.1101 H         1 <0>         0.0752
     22 H4         -5.1027    5.3427   -2.8786 H         1 <0>         0.0883
     23 H5         -4.3584    3.8977   -2.1533 H         1 <0>         0.0557
     24 H6         -1.1361    6.9140   -0.4978 H         1 <0>         0.1211
     25 H7         -0.2098    5.4108   -0.3241 H         1 <0>         0.0948
     26 H8          1.4976    6.8628   -1.4780 H         1 <0>         0.1319
     27 H9          2.5615    7.2560   -3.6545 H         1 <0>         0.1367
     28 H10        -0.9728    5.8769   -5.6131 H         1 <0>         0.1377
     29 H11        -3.2793    3.3042   -3.4201 H         1 <0>         0.0972
     30 H12        -1.8589    3.4701   -4.4861 H         1 <0>         0.1129
     31 H13        -0.4089    3.7943   -2.4882 H         1 <0>         0.1328
     32 H14        -1.2630    2.2345   -2.4130 H         1 <0>         0.1268
     33 H15        -1.6111    3.5745    0.9605 H         1 <0>         0.1344
     34 H16        -0.1580    3.5999   -0.0672 H         1 <0>         0.1319
     35 H17        -2.0837    1.1627    0.0183 H         1 <0>         0.1340
     36 H18         0.0021   -0.0041    0.0020 H         1 <0>         0.1231
     37 H19         0.9153    1.6285    0.0021 H         1 <0>         0.1108
     38 H20        -2.7370    5.5320   -5.5801 H         1 <0>         0.0716
     39 H21        -4.2334    5.4003   -4.6253 H         1 <0>         0.0720
     40 H22        -3.2888    6.9086   -4.5958 H         1 <0>         0.0706
     41 H23         1.2889    7.7026   -6.3386 H         1 <0>         0.4007
     42 N1         -2.0156    3.6794   -1.0912 N.4       1 <0>        -0.3829
     43 H24        -2.9290    3.2143   -1.0315 H         1 <0>         0.4263
@<TRIPOS>BOND
     1    1    2 1
     2    1   21 1
     3    1   22 1
     4    1   23 1
     5    2    3 1
     6    2   13 1
     7    2    4 1
     8    4    5 1
     9    4    6 1
    10    4   42 1
    11    6    7 1
    12    6   24 1
    13    6   25 1
    14    7   12 ar
    15    7    8 ar
    16    8    9 ar
    17    8   26 1
    18    9   10 ar
    19    9   27 1
    20   10   11 ar
    21   10   20 1
    22   11   12 ar
    23   11   28 1
    24   12   13 1
    25   13   14 1
    26   13   19 1
    27   14   15 1
    28   14   29 1
    29   14   30 1
    30   15   31 1
    31   15   32 1
    32   15   42 1
    33   16   17 1
    34   16   33 1
    35   16   34 1
    36   16   42 1
    37   17   18 2
    38   17   35 1
    39   18   36 1
    40   18   37 1
    41   19   38 1
    42   19   39 1
    43   19   40 1
    44   20   41 1
    45   42   43 1
@<TRIPOS>MOLECULE
ZINC07996680
   43    45     0     0     0
SMALL
USER_CHARGES

@<TRIPOS>ATOM
      1 C1         -0.0103    1.5223    0.1872 C.3       1 <0>        -0.1551
      2 C2          0.0058   -0.0045    0.0900 C.3       1 <0>        -0.0890
      3 H1          0.4977   -0.3090   -0.8338 H         1 <0>         0.1014
      4 C3         -1.4258   -0.5377    0.1119 C.3       1 <0>         0.0284
      5 H2         -1.9224   -0.1869   -0.7928 H         1 <0>         0.1372
      6 C4         -2.1759    0.0364    1.3005 C.3       1 <0>        -0.0946
      7 C5         -1.3488    0.0124    2.5576 C.ar      1 <0>        -0.1124
      8 C6         -1.9966    0.2742    3.7601 C.ar      1 <0>        -0.0946
      9 C7         -1.2967    0.2838    4.9471 C.ar      1 <0>        -0.1368
     10 C8          0.0678    0.0318    4.9460 C.ar      1 <0>         0.1247
     11 C9          0.7124   -0.2355    3.7496 C.ar      1 <0>        -0.1398
     12 C10         0.0016   -0.2523    2.5593 C.ar      1 <0>        -0.0592
     13 C11         0.7539   -0.5914    1.2921 C.3       1 <0>        -0.0222
     14 C12         0.7397   -2.1243    1.1496 C.3       1 <0>        -0.1312
     15 C13        -0.7221   -2.5823    1.1989 C.3       1 <0>        -0.0200
     16 N1         -1.4596   -1.9932    0.0988 N.4       1 <0>        -0.3644
     17 C14        -2.8578   -2.4399    0.1563 C.3       1 <0>         0.0215
     18 C15        -2.9149   -3.9357   -0.0177 C.2       1 <0>        -0.2330
     19 C16        -3.5151   -4.6771    0.8802 C.2       1 <0>        -0.1062
     20 C17         2.1852   -0.0541    1.3520 C.3       1 <0>        -0.1465
     21 O1          0.7672    0.0476    6.1111 O.3       1 <0>        -0.4947
     22 H3          1.0130    1.8976    0.1823 H         1 <0>         0.0802
     23 H4         -0.5526    1.9348   -0.6636 H         1 <0>         0.0689
     24 H5         -0.5029    1.8224    1.1121 H         1 <0>         0.0721
     25 H6         -2.4542    1.0668    1.0794 H         1 <0>         0.1214
     26 H7         -3.0826   -0.5467    1.4621 H         1 <0>         0.0954
     27 H8         -3.0583    0.4722    3.7636 H         1 <0>         0.1316
     28 H9         -1.8089    0.4873    5.8759 H         1 <0>         0.1367
     29 H10         1.7745   -0.4311    3.7438 H         1 <0>         0.1379
     30 H11         1.1850   -2.4111    0.1969 H         1 <0>         0.0946
     31 H12         1.2967   -2.5770    1.9700 H         1 <0>         0.1126
     32 H13        -0.7645   -3.6693    1.1296 H         1 <0>         0.1326
     33 H14        -1.1716   -2.2611    2.1385 H         1 <0>         0.1292
     34 H15        -3.2862   -2.1697    1.1214 H         1 <0>         0.1311
     35 H16        -3.4257   -1.9595   -0.6406 H         1 <0>         0.1375
     36 H17        -2.4610   -4.3965   -0.8825 H         1 <0>         0.1350
     37 H18        -3.9691   -4.2163    1.7451 H         1 <0>         0.1104
     38 H19        -3.5560   -5.7491    0.7556 H         1 <0>         0.1236
     39 H20         2.1621    1.0315    1.4468 H         1 <0>         0.0743
     40 H21         2.6987   -0.4831    2.2124 H         1 <0>         0.0712
     41 H22         2.7145   -0.3279    0.4393 H         1 <0>         0.0701
     42 H23         0.8105   -0.8101    6.5556 H         1 <0>         0.3987
     43 H24        -1.0454   -2.3239   -0.7598 H         1 <0>         0.4213
@<TRIPOS>BOND
     1    1    2 1
     2    1   22 1
     3    1   23 1
     4    1   24 1
     5    2    3 1
     6    2   13 1
     7    2    4 1
     8    4    5 1
     9    4   16 1
    10    4    6 1
    11    6    7 1
    12    6   25 1
    13    6   26 1
    14    7   12 ar
    15    7    8 ar
    16    8    9 ar
    17    8   27 1
    18    9   10 ar
    19    9   28 1
    20   10   11 ar
    21   10   21 1
    22   11   12 ar
    23   11   29 1
    24   12   13 1
    25   13   14 1
    26   13   20 1
    27   14   15 1
    28   14   30 1
    29   14   31 1
    30   15   16 1
    31   15   32 1
    32   15   33 1
    33   16   17 1
    34   16   43 1
    35   17   18 1
    36   17   34 1
    37   17   35 1
    38   18   19 2
    39   18   36 1
    40   19   37 1
    41   19   38 1
    42   20   39 1
    43   20   40 1
    44   20   41 1
    45   21   42 1
@<TRIPOS>MOLECULE
ZINC00538505
   53    55     0     0     0
SMALL
USER_CHARGES

@<TRIPOS>ATOM
      1 C1         -0.0167    1.3779    0.0096 C.ar      1 <0>        -0.1095
      2 C2          1.1711    2.0854    0.0021 C.ar      1 <0>        -0.0819
      3 C3          2.3773    1.4107   -0.0130 C.ar      1 <0>        -0.1296
      4 C4          2.3960    0.0283   -0.0201 C.ar      1 <0>        -0.0587
      5 C5          1.2086   -0.6790   -0.0117 C.ar      1 <0>        -0.1698
      6 C6          0.0021   -0.0041    0.0020 C.ar      1 <0>        -0.0574
      7 C7          1.2291   -2.1858   -0.0204 C.3       1 <0>         0.5061
      8 F1          1.2492   -2.6596    1.2958 F         1 <0>        -0.1726
      9 F2          0.0864   -2.6639   -0.6707 F         1 <0>        -0.1710
     10 F3          2.3706   -2.6328   -0.6944 F         1 <0>        -0.1747
     11 C8          3.6720    2.1819   -0.0222 C.3       1 <0>         0.1745
     12 C9          4.1211    2.4458    1.4178 C.3       1 <0>        -0.1714
     13 C10         5.3928    3.2968    1.4019 C.3       1 <0>        -0.0018
     14 N1          5.1230    4.5737    0.7302 N.4       1 <0>        -0.3831
     15 C11         4.7612    4.3323   -0.6717 C.3       1 <0>        -0.0093
     16 C12         3.4652    3.5212   -0.7356 C.3       1 <0>        -0.1329
     17 C13         6.3239    5.4179    0.7860 C.3       1 <0>        -0.0094
     18 C14         6.0074    6.7944    0.1977 C.3       1 <0>        -0.1428
     19 C15         7.2581    7.6737    0.2559 C.3       1 <0>        -0.1654
     20 C16         6.9464    9.0295   -0.3235 C.2       1 <0>         0.4040
     21 O1          5.8335    9.2689   -0.7418 O.2       1 <0>        -0.4486
     22 C17         7.9913   10.0620   -0.3817 C.ar      1 <0>        -0.1969
     23 C18         9.2781    9.7871    0.0948 C.ar      1 <0>        -0.0431
     24 C19        10.2526   10.7590    0.0374 C.ar      1 <0>        -0.1670
     25 C20         9.9606   12.0080   -0.4910 C.ar      1 <0>         0.1440
     26 C21         8.6871   12.2869   -0.9650 C.ar      1 <0>        -0.1650
     27 C22         7.7052   11.3220   -0.9192 C.ar      1 <0>        -0.0260
     28 F4         10.9207   12.9570   -0.5436 F         1 <0>        -0.1257
     29 O2          4.6736    1.4260   -0.7059 O.3       1 <0>        -0.5462
     30 H1         -0.9591    1.9051    0.0259 H         1 <0>         0.1440
     31 H2          1.1565    3.1653    0.0076 H         1 <0>         0.1349
     32 H3          3.3385   -0.4989   -0.0326 H         1 <0>         0.1361
     33 H4         -0.9258   -0.5567    0.0079 H         1 <0>         0.1445
     34 H5          3.3342    2.9774    1.9529 H         1 <0>         0.1019
     35 H6          4.3240    1.4975    1.9154 H         1 <0>         0.1181
     36 H7          5.7154    3.4864    2.4257 H         1 <0>         0.1338
     37 H8          6.1791    2.7643    0.8669 H         1 <0>         0.1360
     38 H9          4.6176    5.2863   -1.1789 H         1 <0>         0.1363
     39 H10         5.5610    3.7777   -1.1626 H         1 <0>         0.1394
     40 H11         3.1993    3.3415   -1.7773 H         1 <0>         0.1246
     41 H12         2.6647    4.0750   -0.2452 H         1 <0>         0.1050
     42 H13         6.6412    5.5301    1.8227 H         1 <0>         0.1336
     43 H14         7.1230    4.9516    0.2098 H         1 <0>         0.1329
     44 H15         5.6900    6.6822   -0.8390 H         1 <0>         0.0952
     45 H16         5.2082    7.2608    0.7739 H         1 <0>         0.0948
     46 H17         7.5755    7.7859    1.2926 H         1 <0>         0.1128
     47 H18         8.0572    7.2074   -0.3203 H         1 <0>         0.1128
     48 H19         9.5065    8.8154    0.5070 H         1 <0>         0.1412
     49 H20        11.2460   10.5482    0.4048 H         1 <0>         0.1469
     50 H21         8.4663   13.2613   -1.3752 H         1 <0>         0.1478
     51 H22         6.7153   11.5389   -1.2927 H         1 <0>         0.1458
     52 H23         4.8578    0.5650   -0.3060 H         1 <0>         0.3914
     53 H24         4.3618    5.0438    1.1967 H         1 <0>         0.4216
@<TRIPOS>BOND
     1    1    6 ar
     2    1    2 ar
     3    1   30 1
     4    2    3 ar
     5    2   31 1
     6    3    4 ar
     7    3   11 1
     8    4    5 ar
     9    4   32 1
    10    5    6 ar
    11    5    7 1
    12    6   33 1
    13    7    8 1
    14    7    9 1
    15    7   10 1
    16   11   16 1
    17   11   12 1
    18   11   29 1
    19   12   13 1
    20   12   34 1
    21   12   35 1
    22   13   14 1
    23   13   36 1
    24   13   37 1
    25   14   15 1
    26   14   17 1
    27   14   53 1
    28   15   16 1
    29   15   38 1
    30   15   39 1
    31   16   40 1
    32   16   41 1
    33   17   18 1
    34   17   42 1
    35   17   43 1
    36   18   19 1
    37   18   44 1
    38   18   45 1
    39   19   20 1
    40   19   46 1
    41   19   47 1
    42   20   21 2
    43   20   22 1
    44   22   27 ar
    45   22   23 ar
    46   23   24 ar
    47   23   48 1
    48   24   25 ar
    49   24   49 1
    50   25   26 ar
    51   25   28 1
    52   26   27 ar
    53   26   50 1
    54   27   51 1
    55   29   52 1
@<TRIPOS>MOLECULE
ZINC21981239
   65    68     0     0     0
SMALL
USER_CHARGES
4-[4-(4-chlorophenyl)-4-hydroxy-1-piperidyl]-N-methyl-2,2-diphenyl-butanamide
@<TRIPOS>ATOM
      1 C1         -0.0855   -1.6023   -3.7609 C.3       1 <0>         0.0833
      2 N1         -0.4220   -0.7797   -2.5964 N.am      1 <0>        -0.7395
      3 C2          0.3089   -0.8777   -1.4682 C.2       1 <0>         0.5134
      4 O1          1.2452   -1.6469   -1.4172 O.2       1 <0>        -0.5125
      5 C3         -0.0372   -0.0315   -0.2703 C.3       1 <0>         0.0266
      6 C4         -1.4630   -0.3499    0.1843 C.3       1 <0>        -0.1369
      7 C5         -1.5965   -1.8544    0.4285 C.3       1 <0>        -0.0220
      8 N2         -2.9985   -2.1804    0.7214 N.4       1 <0>        -0.3936
      9 C6         -3.4255   -1.5760    1.9898 C.3       1 <0>        -0.0052
     10 C7         -4.9241   -1.8129    2.1903 C.3       1 <0>        -0.1281
     11 C8         -5.2007   -3.3189    2.2024 C.3       1 <0>         0.1877
     12 C9         -4.7028   -3.9318    0.8905 C.3       1 <0>        -0.1746
     13 C10        -3.2107   -3.6335    0.7277 C.3       1 <0>         0.0007
     14 C11        -6.6820   -3.5591    2.3403 C.ar      1 <0>        -0.1328
     15 C12        -7.4757   -3.6465    1.2119 C.ar      1 <0>        -0.1020
     16 C13        -8.8335   -3.8725    1.3375 C.ar      1 <0>        -0.1086
     17 C14        -9.4000   -3.9998    2.5933 C.ar      1 <0>        -0.0236
     18 C15        -8.6060   -3.9066    3.7225 C.ar      1 <0>        -0.1072
     19 C16        -7.2474   -3.6862    3.5954 C.ar      1 <0>        -0.0829
     20 Cl1       -11.1063   -4.2771    2.7522 Cl        1 <0>        -0.0522
     21 O2         -4.5148   -3.9216    3.3017 O.3       1 <0>        -0.5800
     22 C17         0.0583    1.4262   -0.6404 C.ar      1 <0>        -0.0900
     23 C18        -1.0131    2.2692   -0.4112 C.ar      1 <0>        -0.1196
     24 C19        -0.9237    3.6073   -0.7463 C.ar      1 <0>        -0.1128
     25 C20         0.2333    4.1004   -1.3199 C.ar      1 <0>        -0.1057
     26 C21         1.3026    3.2563   -1.5543 C.ar      1 <0>        -0.1086
     27 C22         1.2152    1.9192   -1.2144 C.ar      1 <0>        -0.0990
     28 C23         0.9255   -0.3293    0.8502 C.ar      1 <0>        -0.0872
     29 C24         1.5324    0.7075    1.5340 C.ar      1 <0>        -0.0984
     30 C25         2.4118    0.4343    2.5650 C.ar      1 <0>        -0.1172
     31 C26         2.6920   -0.8758    2.9055 C.ar      1 <0>        -0.1048
     32 C27         2.0895   -1.9127    2.2180 C.ar      1 <0>        -0.1213
     33 C28         1.2061   -1.6394    1.1905 C.ar      1 <0>        -0.0966
     34 H1         -0.7882   -1.3849   -4.5788 H         1 <0>         0.0814
     35 H2         -0.1552   -2.6663   -3.4907 H         1 <0>         0.0607
     36 H3          0.9396   -1.3734   -4.0876 H         1 <0>         0.0644
     37 H4         -1.2712   -0.0820   -2.6427 H         1 <0>         0.4214
     38 H5         -1.6809    0.1935    1.1156 H         1 <0>         0.1092
     39 H6         -2.1743   -0.0405   -0.5957 H         1 <0>         0.0991
     40 H7         -1.2726   -2.4017   -0.4690 H         1 <0>         0.1294
     41 H8         -0.9665   -2.1446    1.2822 H         1 <0>         0.1429
     42 H9         -2.8680   -2.0339    2.8202 H         1 <0>         0.1374
     43 H10        -3.2256   -0.4946    1.9663 H         1 <0>         0.1323
     44 H11        -5.2401   -1.3726    3.1475 H         1 <0>         0.1208
     45 H12        -5.4830   -1.3423    1.3680 H         1 <0>         0.1024
     46 H13        -4.8608   -5.0202    0.9111 H         1 <0>         0.1182
     47 H14        -5.2597   -3.4963    0.0477 H         1 <0>         0.0994
     48 H15        -2.8533   -4.0603   -0.2210 H         1 <0>         0.1306
     49 H16        -2.6543   -4.0817    1.5641 H         1 <0>         0.1341
     50 H17        -7.0341   -3.5427    0.2318 H         1 <0>         0.1312
     51 H18        -9.4528   -3.9451    0.4557 H         1 <0>         0.1387
     52 H19        -9.0476   -4.0062    4.7030 H         1 <0>         0.1398
     53 H20        -6.6275   -3.6138    4.4767 H         1 <0>         0.1406
     54 H21        -4.5955   -5.0052    3.4730 H         1 <0>         0.4267
     55 H22        -1.9186    1.8831    0.0331 H         1 <0>         0.1234
     56 H23        -1.7593    4.2668   -0.5635 H         1 <0>         0.1284
     57 H24         0.3018    5.1451   -1.5851 H         1 <0>         0.1289
     58 H25         2.2065    3.6415   -2.0028 H         1 <0>         0.1289
     59 H26         2.0506    1.2597   -1.3976 H         1 <0>         0.1219
     60 H27         1.3165    1.7310    1.2653 H         1 <0>         0.1271
     61 H28         2.8828    1.2444    3.1019 H         1 <0>         0.1270
     62 H29         3.3820   -1.0892    3.7086 H         1 <0>         0.1266
     63 H30         2.3088   -2.9362    2.4838 H         1 <0>         0.1251
     64 H31         0.7354   -2.4495    0.6533 H         1 <0>         0.1194
     65 H32        -3.6206   -1.7541   -0.0794 H         1 <0>         0.4340
@<TRIPOS>BOND
     1    1    2 1
     2    1   34 1
     3    1   35 1
     4    1   36 1
     5    2    3 am
     6    2   37 1
     7    3    4 2
     8    3    5 1
     9    5    6 1
    10    5   22 1
    11    5   28 1
    12    6    7 1
    13    6   38 1
    14    6   39 1
    15    7    8 1
    16    7   40 1
    17    7   41 1
    18    8   13 1
    19    8    9 1
    20    8   65 1
    21    9   10 1
    22    9   42 1
    23    9   43 1
    24   10   11 1
    25   10   44 1
    26   10   45 1
    27   11   12 1
    28   11   14 1
    29   11   21 1
    30   12   13 1
    31   12   46 1
    32   12   47 1
    33   13   48 1
    34   13   49 1
    35   14   19 ar
    36   14   15 ar
    37   15   16 ar
    38   15   50 1
    39   16   17 ar
    40   16   51 1
    41   17   18 ar
    42   17   20 1
    43   18   19 ar
    44   18   52 1
    45   19   53 1
    46   21   54 1
    47   22   27 ar
    48   22   23 ar
    49   23   24 ar
    50   23   55 1
    51   24   25 ar
    52   24   56 1
    53   25   26 ar
    54   25   57 1
    55   26   27 ar
    56   26   58 1
    57   27   59 1
    58   28   33 ar
    59   28   29 ar
    60   29   30 ar
    61   29   60 1
    62   30   31 ar
    63   30   61 1
    64   31   32 ar
    65   31   62 1
    66   32   33 ar
    67   32   63 1
    68   33   64 1
@<TRIPOS>MOLECULE
ZINC01530967
   58    59     0     0     0
SMALL
USER_CHARGES
(4-dimethylamino-1-ethyl-2,2-diphenyl-pentyl) acetate
@<TRIPOS>ATOM
      1 C1         -2.0020    0.5958    2.9079 C.3       1 <0>        -0.1630
      2 C2         -1.8866   -0.7653    2.2187 C.3       1 <0>        -0.1850
      3 C3         -1.3204   -0.5773    0.8098 C.3       1 <0>         0.0843
      4 H1         -0.3567   -0.0715    0.8700 H         1 <0>         0.0836
      5 C4         -1.1386   -1.9440    0.1466 C.3       1 <0>         0.0233
      6 C5         -0.1932   -2.7995    0.9924 C.3       1 <0>        -0.1387
      7 C6          1.2091   -2.1882    0.9659 C.3       1 <0>         0.0196
      8 H2          1.5214   -2.0402   -0.0678 H         1 <0>         0.1400
      9 C7          2.1900   -3.1317    1.6649 C.3       1 <0>        -0.1776
     10 C8          1.1293   -1.0819    3.1182 C.3       1 <0>        -0.0610
     11 C9          2.3556   -0.0799    1.2866 C.3       1 <0>        -0.0484
     12 C10        -2.4754   -2.6311    0.0371 C.ar      1 <0>        -0.0815
     13 C11        -3.6358   -1.9336    0.3158 C.ar      1 <0>        -0.1151
     14 C12        -4.8624   -2.5625    0.2106 C.ar      1 <0>        -0.1149
     15 C13        -4.9277   -3.8917   -0.1631 C.ar      1 <0>        -0.1069
     16 C14        -3.7669   -4.5907   -0.4367 C.ar      1 <0>        -0.1131
     17 C15        -2.5407   -3.9603   -0.3366 C.ar      1 <0>        -0.1129
     18 C16        -0.5538   -1.7605   -1.2301 C.ar      1 <0>        -0.0914
     19 C17        -0.2827   -2.8631   -2.0185 C.ar      1 <0>        -0.1084
     20 C18         0.2492   -2.6946   -3.2832 C.ar      1 <0>        -0.1051
     21 C19         0.5198   -1.4239   -3.7555 C.ar      1 <0>        -0.1066
     22 C20         0.2536   -0.3215   -2.9651 C.ar      1 <0>        -0.1090
     23 C21        -0.2832   -0.4898   -1.7024 C.ar      1 <0>        -0.1317
     24 O1         -2.2395    0.2246    0.0219 O.3       1 <0>        -0.3186
     25 C22        -2.0647    1.5552    0.0492 C.2       1 <0>         0.4595
     26 O2         -1.1733    2.0340    0.7095 O.2       1 <0>        -0.5132
     27 C23        -2.9803    2.4518   -0.7438 C.3       1 <0>        -0.1555
     28 H3         -2.4053    0.4618    3.9116 H         1 <0>         0.0779
     29 H4         -1.0158    1.0558    2.9710 H         1 <0>         0.0586
     30 H5         -2.6669    1.2394    2.3320 H         1 <0>         0.0629
     31 H6         -1.2216   -1.4089    2.7946 H         1 <0>         0.0867
     32 H7         -2.8728   -1.2253    2.1556 H         1 <0>         0.1183
     33 H8         -0.5554   -2.8336    2.0199 H         1 <0>         0.1031
     34 H9         -0.1567   -3.8104    0.5863 H         1 <0>         0.1288
     35 H10         1.8777   -3.2797    2.6987 H         1 <0>         0.0847
     36 H11         2.2021   -4.0913    1.1480 H         1 <0>         0.1055
     37 H12         3.1890   -2.6962    1.6460 H         1 <0>         0.0829
     38 H13         2.0643   -1.5183    3.4696 H         1 <0>         0.1305
     39 H14         0.9741   -0.1175    3.6019 H         1 <0>         0.1226
     40 H15         0.3025   -1.7485    3.3632 H         1 <0>         0.1209
     41 H16         2.3399    0.1018    0.2120 H         1 <0>         0.1172
     42 H17         2.3187    0.8719    1.8166 H         1 <0>         0.1231
     43 H18         3.2711   -0.6085    1.5524 H         1 <0>         0.1256
     44 H19        -3.5845   -0.8963    0.6121 H         1 <0>         0.1443
     45 H20        -5.7693   -2.0165    0.4248 H         1 <0>         0.1270
     46 H21        -5.8857   -4.3843   -0.2409 H         1 <0>         0.1273
     47 H22        -3.8179   -5.6293   -0.7283 H         1 <0>         0.1278
     48 H23        -1.6338   -4.5065   -0.5500 H         1 <0>         0.1225
     49 H24        -0.4900   -3.8561   -1.6478 H         1 <0>         0.1297
     50 H25         0.4575   -3.5558   -3.9007 H         1 <0>         0.1318
     51 H26         0.9395   -1.2924   -4.7419 H         1 <0>         0.1308
     52 H27         0.4653    0.6712   -3.3339 H         1 <0>         0.1280
     53 H28        -0.4908    0.3714   -1.0847 H         1 <0>         0.1091
     54 H29        -3.7160    1.8447   -1.2713 H         1 <0>         0.0985
     55 H30        -3.4920    3.1373   -0.0684 H         1 <0>         0.1155
     56 H31        -2.3950    3.0219   -1.4654 H         1 <0>         0.1144
     57 N1          1.1691   -0.8809    1.6544 N.4       1 <0>        -0.4282
     58 H32         0.3232   -0.3767    1.3638 H         1 <0>         0.4196
@<TRIPOS>BOND
     1    1    2 1
     2    1   28 1
     3    1   29 1
     4    1   30 1
     5    2    3 1
     6    2   31 1
     7    2   32 1
     8    3    4 1
     9    3    5 1
    10    3   24 1
    11    5    6 1
    12    5   12 1
    13    5   18 1
    14    6    7 1
    15    6   33 1
    16    6   34 1
    17    7    8 1
    18    7    9 1
    19    7   57 1
    20    9   35 1
    21    9   36 1
    22    9   37 1
    23   10   38 1
    24   10   39 1
    25   10   40 1
    26   10   57 1
    27   11   41 1
    28   11   42 1
    29   11   43 1
    30   11   57 1
    31   12   17 ar
    32   12   13 ar
    33   13   14 ar
    34   13   44 1
    35   14   15 ar
    36   14   45 1
    37   15   16 ar
    38   15   46 1
    39   16   17 ar
    40   16   47 1
    41   17   48 1
    42   18   23 ar
    43   18   19 ar
    44   19   20 ar
    45   19   49 1
    46   20   21 ar
    47   20   50 1
    48   21   22 ar
    49   21   51 1
    50   22   23 ar
    51   22   52 1
    52   23   53 1
    53   24   25 1
    54   25   26 2
    55   25   27 1
    56   27   54 1
    57   27   55 1
    58   27   56 1
    59   57   58 1
@<TRIPOS>MOLECULE
ZINC02007678
   58    59     0     0     0
SMALL
USER_CHARGES
(4-dimethylamino-1-ethyl-2,2-diphenyl-pentyl) acetate
@<TRIPOS>ATOM
      1 C1         -0.5275   -0.1805   -0.2989 C.3       1 <0>        -0.1534
      2 C2         -0.0088    1.2405   -0.0696 C.3       1 <0>        -0.1605
      3 C3         -0.8450    1.9195    1.0169 C.3       1 <0>         0.1008
      4 H1         -0.8300    1.3104    1.9207 H         1 <0>         0.0991
      5 C4         -0.2603    3.3000    1.3224 C.3       1 <0>         0.0159
      6 C5          1.2215    3.1591    1.6766 C.3       1 <0>        -0.1348
      7 C6          1.8336    4.5478    1.8711 C.3       1 <0>         0.0334
      8 H2          2.9000    4.4497    2.0741 H         1 <0>         0.1306
      9 C7          1.6302    5.3772    0.6016 C.3       1 <0>        -0.2208
     10 C8          1.3947    4.4725    4.2511 C.3       1 <0>        -0.0502
     11 C9          1.6411    6.6056    3.1325 C.3       1 <0>        -0.0568
     12 C10        -0.4054    4.1861    0.1121 C.ar      1 <0>        -0.0721
     13 C11        -1.2457    5.2829    0.1553 C.ar      1 <0>        -0.1472
     14 C12        -1.3752    6.0984   -0.9533 C.ar      1 <0>        -0.1092
     15 C13        -0.6724    5.8112   -2.1085 C.ar      1 <0>        -0.1081
     16 C14         0.1638    4.7114   -2.1534 C.ar      1 <0>        -0.1089
     17 C15         0.2973    3.8988   -1.0431 C.ar      1 <0>        -0.1192
     18 C16        -0.9986    3.9122    2.4848 C.ar      1 <0>        -0.0700
     19 C17        -1.8036    3.1233    3.2851 C.ar      1 <0>        -0.1054
     20 C18        -2.4771    3.6841    4.3542 C.ar      1 <0>        -0.0644
     21 C19        -2.3538    5.0356    4.6167 C.ar      1 <0>        -0.1049
     22 C20        -1.5528    5.8255    3.8132 C.ar      1 <0>        -0.0951
     23 C21        -0.8753    5.2638    2.7473 C.ar      1 <0>        -0.2341
     24 O1         -2.2135    2.0652    0.5541 O.3       1 <0>        -0.3389
     25 C22        -3.0578    1.0563    0.8209 C.2       1 <0>         0.4584
     26 O2         -2.6662    0.0837    1.4213 O.2       1 <0>        -0.5030
     27 C23        -4.4940    1.1368    0.3716 C.3       1 <0>        -0.1521
     28 H3         -1.5699   -0.1402   -0.6148 H         1 <0>         0.0521
     29 H4          0.0683   -0.6643   -1.0730 H         1 <0>         0.0635
     30 H5         -0.4504   -0.7494    0.6276 H         1 <0>         0.0653
     31 H6          1.0337    1.2001    0.2463 H         1 <0>         0.0856
     32 H7         -0.0859    1.8094   -0.9961 H         1 <0>         0.0929
     33 H8          1.3219    2.5855    2.5980 H         1 <0>         0.0989
     34 H9          1.7407    2.6431    0.8689 H         1 <0>         0.1233
     35 H10         2.2896    6.2448    0.6249 H         1 <0>         0.0756
     36 H11         1.8626    4.7677   -0.2717 H         1 <0>         0.1140
     37 H12         0.5937    5.7099    0.5471 H         1 <0>         0.1001
     38 H13         2.4581    4.4636    4.4900 H         1 <0>         0.1139
     39 H14         0.8445    4.9526    5.0604 H         1 <0>         0.1119
     40 H15         1.0412    3.4486    4.1289 H         1 <0>         0.1102
     41 H16         1.4062    7.1531    2.2196 H         1 <0>         0.1141
     42 H17         1.1409    7.0777    3.9781 H         1 <0>         0.1151
     43 H18         2.7187    6.6164    3.2955 H         1 <0>         0.1184
     44 H19        -1.7982    5.5047    1.0564 H         1 <0>         0.1348
     45 H20        -2.0288    6.9575   -0.9183 H         1 <0>         0.1287
     46 H21        -0.7770    6.4459   -2.9760 H         1 <0>         0.1295
     47 H22         0.7126    4.4868   -3.0560 H         1 <0>         0.1313
     48 H23         0.9504    3.0394   -1.0783 H         1 <0>         0.1364
     49 H24        -1.9035    2.0682    3.0773 H         1 <0>         0.1415
     50 H25        -3.1031    3.0670    4.9817 H         1 <0>         0.1466
     51 H26        -2.8834    5.4746    5.4493 H         1 <0>         0.1481
     52 H27        -1.4568    6.8816    4.0181 H         1 <0>         0.1498
     53 H28        -0.2498    5.8810    2.1193 H         1 <0>         0.1911
     54 H29        -4.5869    0.7089   -0.6266 H         1 <0>         0.1088
     55 H30        -5.1235    0.5800    1.0657 H         1 <0>         0.1074
     56 H31        -4.8103    2.1797    0.3508 H         1 <0>         0.0939
     57 N1          1.1510    5.2177    2.9981 N.4       1 <0>        -0.4582
     58 H32         0.1413    5.2370    2.8126 H         1 <0>         0.4263
@<TRIPOS>BOND
     1    1    2 1
     2    1   28 1
     3    1   29 1
     4    1   30 1
     5    2    3 1
     6    2   31 1
     7    2   32 1
     8    3    4 1
     9    3    5 1
    10    3   24 1
    11    5    6 1
    12    5   12 1
    13    5   18 1
    14    6    7 1
    15    6   33 1
    16    6   34 1
    17    7    8 1
    18    7    9 1
    19    7   57 1
    20    9   35 1
    21    9   36 1
    22    9   37 1
    23   10   38 1
    24   10   39 1
    25   10   40 1
    26   10   57 1
    27   11   41 1
    28   11   42 1
    29   11   43 1
    30   11   57 1
    31   12   17 ar
    32   12   13 ar
    33   13   14 ar
    34   13   44 1
    35   14   15 ar
    36   14   45 1
    37   15   16 ar
    38   15   46 1
    39   16   17 ar
    40   16   47 1
    41   17   48 1
    42   18   23 ar
    43   18   19 ar
    44   19   20 ar
    45   19   49 1
    46   20   21 ar
    47   20   50 1
    48   21   22 ar
    49   21   51 1
    50   22   23 ar
    51   22   52 1
    52   23   53 1
    53   24   25 1
    54   25   26 2
    55   25   27 1
    56   27   54 1
    57   27   55 1
    58   27   56 1
    59   57   58 1
@<TRIPOS>MOLECULE
ZINC02007680
   58    59     0     0     0
SMALL
USER_CHARGES
(4-dimethylamino-1-ethyl-2,2-diphenyl-pentyl) acetate
@<TRIPOS>ATOM
      1 C1         -4.9455    1.4173   -0.3557 C.3       1 <0>        -0.1575
      2 C2         -3.5897    2.0471   -0.6816 C.3       1 <0>        -0.1566
      3 C3         -3.2497    3.1006    0.3745 C.3       1 <0>         0.0889
      4 H1         -4.0096    3.8820    0.3661 H         1 <0>         0.0932
      5 C4         -1.8836    3.7142    0.0614 C.3       1 <0>         0.0455
      6 C5         -1.8791    4.2432   -1.3743 C.3       1 <0>        -0.1350
      7 C6         -3.0819    5.1657   -1.5816 C.3       1 <0>         0.0182
      8 H2         -3.9862    4.6680   -1.2315 H         1 <0>         0.1401
      9 C7         -2.8741    6.4599   -0.7925 C.3       1 <0>        -0.2025
     10 C8         -3.5994    4.2867   -3.7776 C.3       1 <0>        -0.0511
     11 C9         -4.1788    6.5707   -3.2205 C.3       1 <0>        -0.0502
     12 C10        -0.8142    2.6633    0.2129 C.ar      1 <0>        -0.0822
     13 C11        -1.1393    1.4117    0.7016 C.ar      1 <0>        -0.1092
     14 C12        -0.1575    0.4493    0.8450 C.ar      1 <0>        -0.1178
     15 C13         1.1475    0.7350    0.4899 C.ar      1 <0>        -0.1093
     16 C14         1.4717    1.9848   -0.0038 C.ar      1 <0>        -0.1179
     17 C15         0.4909    2.9490   -0.1423 C.ar      1 <0>        -0.1152
     18 C16        -1.6118    4.8486    1.0155 C.ar      1 <0>        -0.0771
     19 C17        -2.4827    5.0970    2.0599 C.ar      1 <0>        -0.1207
     20 C18        -2.2309    6.1346    2.9380 C.ar      1 <0>        -0.1102
     21 C19        -1.1137    6.9302    2.7655 C.ar      1 <0>        -0.1110
     22 C20        -0.2456    6.6851    1.7180 C.ar      1 <0>        -0.1101
     23 C21        -0.4947    5.6443    0.8430 C.ar      1 <0>        -0.1184
     24 O1         -3.2112    2.4771    1.6853 O.3       1 <0>        -0.3322
     25 C22        -4.3596    2.4467    2.3796 C.2       1 <0>         0.4557
     26 O2         -5.3637    2.9252    1.9078 O.2       1 <0>        -0.5055
     27 C23        -4.3965    1.8157    3.7477 C.3       1 <0>        -0.1555
     28 H3         -4.8980    0.9384    0.6223 H         1 <0>         0.0548
     29 H4         -5.7125    2.1918   -0.3442 H         1 <0>         0.0655
     30 H5         -5.1920    0.6732   -1.1131 H         1 <0>         0.0641
     31 H6         -3.6346    2.5182   -1.6635 H         1 <0>         0.0710
     32 H7         -2.8213    1.2740   -0.6842 H         1 <0>         0.0946
     33 H8         -0.9592    4.7997   -1.5536 H         1 <0>         0.1036
     34 H9         -1.9389    3.4063   -2.0700 H         1 <0>         0.1001
     35 H10        -2.9879    6.2583    0.2727 H         1 <0>         0.1170
     36 H11        -1.8728    6.8456   -0.9842 H         1 <0>         0.0863
     37 H12        -3.6135    7.1979   -1.1036 H         1 <0>         0.0837
     38 H13        -4.5480    3.9020   -3.4031 H         1 <0>         0.1241
     39 H14        -3.7040    4.5498   -4.8301 H         1 <0>         0.1269
     40 H15        -2.8293    3.5230   -3.6688 H         1 <0>         0.1221
     41 H16        -3.8354    7.4632   -2.6975 H         1 <0>         0.1271
     42 H17        -4.2601    6.7828   -4.2865 H         1 <0>         0.1245
     43 H18        -5.1540    6.2753   -2.8334 H         1 <0>         0.1235
     44 H19        -2.1598    1.1871    0.9748 H         1 <0>         0.1487
     45 H20        -0.4108   -0.5273    1.2304 H         1 <0>         0.1251
     46 H21         1.9138   -0.0184    0.5977 H         1 <0>         0.1249
     47 H22         2.4913    2.2079   -0.2816 H         1 <0>         0.1245
     48 H23         0.7441    3.9253   -0.5283 H         1 <0>         0.1186
     49 H24        -3.3579    4.4782    2.1920 H         1 <0>         0.1194
     50 H25        -2.9093    6.3263    3.7561 H         1 <0>         0.1263
     51 H26        -0.9193    7.7436    3.4489 H         1 <0>         0.1275
     52 H27         0.6270    7.3069    1.5831 H         1 <0>         0.1272
     53 H28         0.1834    5.4530    0.0245 H         1 <0>         0.1234
     54 H29        -3.4047    1.4420    4.0023 H         1 <0>         0.0943
     55 H30        -4.7042    2.5594    4.4826 H         1 <0>         0.1099
     56 H31        -5.1072    0.9892    3.7475 H         1 <0>         0.1102
     57 N1         -3.1921    5.4886   -3.0198 N.4       1 <0>        -0.3942
     58 H32        -2.2768    5.8042   -3.3618 H         1 <0>         0.4289
@<TRIPOS>BOND
     1    1    2 1
     2    1   28 1
     3    1   29 1
     4    1   30 1
     5    2    3 1
     6    2   31 1
     7    2   32 1
     8    3    4 1
     9    3    5 1
    10    3   24 1
    11    5    6 1
    12    5   12 1
    13    5   18 1
    14    6    7 1
    15    6   33 1
    16    6   34 1
    17    7    8 1
    18    7    9 1
    19    7   57 1
    20    9   35 1
    21    9   36 1
    22    9   37 1
    23   10   38 1
    24   10   39 1
    25   10   40 1
    26   10   57 1
    27   11   41 1
    28   11   42 1
    29   11   43 1
    30   11   57 1
    31   12   17 ar
    32   12   13 ar
    33   13   14 ar
    34   13   44 1
    35   14   15 ar
    36   14   45 1
    37   15   16 ar
    38   15   46 1
    39   16   17 ar
    40   16   47 1
    41   17   48 1
    42   18   23 ar
    43   18   19 ar
    44   19   20 ar
    45   19   49 1
    46   20   21 ar
    47   20   50 1
    48   21   22 ar
    49   21   51 1
    50   22   23 ar
    51   22   52 1
    52   23   53 1
    53   24   25 1
    54   25   26 2
    55   25   27 1
    56   27   54 1
    57   27   55 1
    58   27   56 1
    59   57   58 1
@<TRIPOS>MOLECULE
ZINC02007682
   58    59     0     0     0
SMALL
USER_CHARGES
(4-dimethylamino-1-ethyl-2,2-diphenyl-pentyl) acetate
@<TRIPOS>ATOM
      1 C1          5.0561    3.6702   -0.8896 C.3       1 <0>        -0.1552
      2 C2          3.7278    2.9162   -0.9789 C.3       1 <0>        -0.1593
      3 C3          3.5798    1.9981    0.2361 C.3       1 <0>         0.0899
      4 H1          4.4361    1.3259    0.2899 H         1 <0>         0.0857
      5 C4          2.2952    1.1780    0.1021 C.3       1 <0>         0.0229
      6 C5          2.3173    0.4079   -1.2198 C.3       1 <0>        -0.1353
      7 C6          3.5980   -0.4250   -1.3035 C.3       1 <0>         0.0177
      8 H2          4.4611    0.2172   -1.1282 H         1 <0>         0.1356
      9 C7          3.7059   -1.0564   -2.6929 C.3       1 <0>        -0.1794
     10 C8          2.4945   -2.4527   -0.5731 C.3       1 <0>        -0.0570
     11 C9          4.8639   -2.1529   -0.1745 C.3       1 <0>        -0.0501
     12 C10         1.1047    2.1017    0.1254 C.ar      1 <0>        -0.0814
     13 C11        -0.1600    1.6058   -0.1302 C.ar      1 <0>        -0.1173
     14 C12        -1.2514    2.4542   -0.1140 C.ar      1 <0>        -0.1162
     15 C13        -1.0792    3.7966    0.1674 C.ar      1 <0>        -0.1069
     16 C14         0.1855    4.2923    0.4239 C.ar      1 <0>        -0.1161
     17 C15         1.2774    3.4449    0.4030 C.ar      1 <0>        -0.1071
     18 C16         2.1985    0.2049    1.2488 C.ar      1 <0>        -0.1163
     19 C17         1.1110   -0.6428    1.3461 C.ar      1 <0>        -0.1251
     20 C18         1.0247   -1.5387    2.3953 C.ar      1 <0>        -0.1068
     21 C19         2.0208   -1.5796    3.3529 C.ar      1 <0>        -0.1025
     22 C20         3.1058   -0.7283    3.2584 C.ar      1 <0>        -0.1093
     23 C21         3.1946    0.1640    2.2063 C.ar      1 <0>        -0.1385
     24 O1          3.5178    2.8007    1.4445 O.3       1 <0>        -0.3338
     25 C22         4.6821    3.0784    2.0520 C.2       1 <0>         0.4545
     26 O2          5.7187    2.6646    1.5893 O.2       1 <0>        -0.5043
     27 C23         4.6964    3.9064    3.3111 C.3       1 <0>        -0.1553
     28 H3          5.8790    2.9556   -0.8718 H         1 <0>         0.0631
     29 H4          5.1615    4.3243   -1.7551 H         1 <0>         0.0661
     30 H5          5.0741    4.2679    0.0218 H         1 <0>         0.0534
     31 H6          3.7098    2.3186   -1.8903 H         1 <0>         0.0842
     32 H7          2.9049    3.6308   -0.9967 H         1 <0>         0.0961
     33 H8          1.4510   -0.2517   -1.2706 H         1 <0>         0.1021
     34 H9          2.2870    1.1122   -2.0512 H         1 <0>         0.1274
     35 H10         2.8428   -1.6986   -2.8682 H         1 <0>         0.0851
     36 H11         3.7335   -0.2707   -3.4479 H         1 <0>         0.1066
     37 H12         4.6183   -1.6498   -2.7525 H         1 <0>         0.0843
     38 H13         2.6713   -2.9096   -1.5467 H         1 <0>         0.1291
     39 H14         2.4892   -3.2256    0.1955 H         1 <0>         0.1211
     40 H15         1.5318   -1.9416   -0.5810 H         1 <0>         0.1188
     41 H16         5.6236   -1.4239    0.1074 H         1 <0>         0.1182
     42 H17         4.8084   -2.9322    0.5856 H         1 <0>         0.1215
     43 H18         5.1265   -2.5990   -1.1337 H         1 <0>         0.1260
     44 H19        -0.2950    0.5565   -0.3470 H         1 <0>         0.1176
     45 H20        -2.2389    2.0676   -0.3181 H         1 <0>         0.1261
     46 H21        -1.9322    4.4587    0.1834 H         1 <0>         0.1265
     47 H22         0.3205    5.3417    0.6404 H         1 <0>         0.1266
     48 H23         2.2655    3.8322    0.6031 H         1 <0>         0.1493
     49 H24         0.3306   -0.6078    0.6003 H         1 <0>         0.1410
     50 H25         0.1769   -2.2036    2.4693 H         1 <0>         0.1406
     51 H26         1.9512   -2.2765    4.1750 H         1 <0>         0.1395
     52 H27         3.8838   -0.7600    4.0067 H         1 <0>         0.1389
     53 H28         4.0421    0.8294    2.1327 H         1 <0>         0.1315
     54 H29         4.6099    3.2511    4.1778 H         1 <0>         0.1083
     55 H30         5.6313    4.4638    3.3689 H         1 <0>         0.1093
     56 H31         3.8582    4.6031    3.2973 H         1 <0>         0.0981
     57 N1          3.5550   -1.4716   -0.2607 N.4       1 <0>        -0.4089
     58 H32         3.3473   -1.0327    0.6440 H         1 <0>         0.4193
@<TRIPOS>BOND
     1    1    2 1
     2    1   28 1
     3    1   29 1
     4    1   30 1
     5    2    3 1
     6    2   31 1
     7    2   32 1
     8    3    4 1
     9    3    5 1
    10    3   24 1
    11    5    6 1
    12    5   12 1
    13    5   18 1
    14    6    7 1
    15    6   33 1
    16    6   34 1
    17    7    8 1
    18    7    9 1
    19    7   57 1
    20    9   35 1
    21    9   36 1
    22    9   37 1
    23   10   38 1
    24   10   39 1
    25   10   40 1
    26   10   57 1
    27   11   41 1
    28   11   42 1
    29   11   43 1
    30   11   57 1
    31   12   17 ar
    32   12   13 ar
    33   13   14 ar
    34   13   44 1
    35   14   15 ar
    36   14   45 1
    37   15   16 ar
    38   15   46 1
    39   16   17 ar
    40   16   47 1
    41   17   48 1
    42   18   23 ar
    43   18   19 ar
    44   19   20 ar
    45   19   49 1
    46   20   21 ar
    47   20   50 1
    48   21   22 ar
    49   21   51 1
    50   22   23 ar
    51   22   52 1
    52   23   53 1
    53   24   25 1
    54   25   26 2
    55   25   27 1
    56   27   54 1
    57   27   55 1
    58   27   56 1
    59   57   58 1
@<TRIPOS>MOLECULE
ZINC19334215
   46    49     0     0     0
SMALL
USER_CHARGES
1-(1,3-benzodioxol-5-ylmethyl)-4-[(4-fluorophenyl)methyl]piperazine
@<TRIPOS>ATOM
      1 C1          9.0022   -5.6153   -1.0238 C.ar      1 <0>        -0.0624
      2 C2          8.5696   -6.8026   -1.5833 C.ar      1 <0>        -0.1515
      3 C3          7.7273   -6.7831   -2.6821 C.ar      1 <0>         0.1396
      4 C4          7.3152   -5.5738   -3.2158 C.ar      1 <0>        -0.1513
      5 C5          7.7449   -4.3878   -2.6514 C.ar      1 <0>        -0.0643
      6 C6          8.5858   -4.4084   -1.5543 C.ar      1 <0>        -0.1734
      7 C7          9.0540   -3.1144   -0.9401 C.3       1 <0>         0.0491
      8 N1          8.1069   -2.6962    0.1021 N.4       1 <0>        -0.3995
      9 C8          8.3960   -1.3296    0.5587 C.3       1 <0>         0.0014
     10 C9          7.4405   -0.9618    1.6963 C.3       1 <0>         0.0252
     11 N2          6.0537   -1.0737    1.2232 N.3       1 <0>        -0.5351
     12 C10         5.7646   -2.4402    0.7666 C.3       1 <0>         0.0200
     13 C11         6.7201   -2.8080   -0.3710 C.3       1 <0>        -0.0040
     14 C12         5.1066   -0.6554    2.2653 C.3       1 <0>         0.1009
     15 C13         3.7246   -0.5476    1.6742 C.ar      1 <0>        -0.0865
     16 C14         2.8855   -1.6464    1.6768 C.ar      1 <0>        -0.1078
     17 C15         1.6171   -1.5526    1.1353 C.ar      1 <0>        -0.0996
     18 C16         1.1834   -0.3557    0.5885 C.ar      1 <0>         0.0429
     19 C17         2.0284    0.7513    0.5864 C.ar      1 <0>         0.0371
     20 C18         3.2983    0.6500    1.1309 C.ar      1 <0>        -0.0781
     21 O1          1.3764    1.7966   -0.0014 O.3       1 <0>        -0.3081
     22 C19        -0.0175    1.4357    0.0099 C.3       1 <0>         0.2079
     23 O2          0.0021   -0.0041    0.0020 O.3       1 <0>        -0.3018
     24 F1          7.3076   -7.9432   -3.2327 F         1 <0>        -0.1222
     25 H1          9.6624   -5.6302   -0.1692 H         1 <0>         0.1421
     26 H2          8.8917   -7.7453   -1.1661 H         1 <0>         0.1493
     27 H3          6.6580   -5.5575   -4.0726 H         1 <0>         0.1496
     28 H4          7.4233   -3.4444   -3.0673 H         1 <0>         0.1413
     29 H5         10.0493   -3.2590   -0.4945 H         1 <0>         0.1404
     30 H6          9.1097   -2.3384   -1.7177 H         1 <0>         0.1358
     31 H7          9.4341   -1.2751    0.9184 H         1 <0>         0.1379
     32 H8          8.2602   -0.6273   -0.2770 H         1 <0>         0.1361
     33 H9          7.5967   -1.6472    2.5424 H         1 <0>         0.0626
     34 H10         7.6363    0.0711    2.0201 H         1 <0>         0.1256
     35 H11         5.9004   -3.1424    1.6023 H         1 <0>         0.0617
     36 H12         4.7265   -2.4947    0.4069 H         1 <0>         0.1265
     37 H13         6.5651   -2.1227   -1.2174 H         1 <0>         0.1344
     38 H14         6.5254   -3.8410   -0.6952 H         1 <0>         0.1364
     39 H15         5.1017   -1.3988    3.0760 H         1 <0>         0.0616
     40 H16         5.4111    0.3225    2.6664 H         1 <0>         0.1007
     41 H17         3.2220   -2.5802    2.1025 H         1 <0>         0.1343
     42 H18         0.9638   -2.4126    1.1387 H         1 <0>         0.1395
     43 H19         3.9558    1.5068    1.1302 H         1 <0>         0.1372
     44 H20        -0.4938    1.8410    0.9148 H         1 <0>         0.0918
     45 H21        -0.5109    1.8506   -0.8814 H         1 <0>         0.1396
     46 H22         8.2289   -3.3740    0.9598 H         1 <0>         0.4372
@<TRIPOS>BOND
     1    1    6 ar
     2    1    2 ar
     3    1   25 1
     4    2    3 ar
     5    2   26 1
     6    3    4 ar
     7    3   24 1
     8    4    5 ar
     9    4   27 1
    10    5    6 ar
    11    5   28 1
    12    6    7 1
    13    7    8 1
    14    7   29 1
    15    7   30 1
    16    8   13 1
    17    8    9 1
    18    8   46 1
    19    9   10 1
    20    9   31 1
    21    9   32 1
    22   10   11 1
    23   10   33 1
    24   10   34 1
    25   11   12 1
    26   11   14 1
    27   12   13 1
    28   12   35 1
    29   12   36 1
    30   13   37 1
    31   13   38 1
    32   14   15 1
    33   14   39 1
    34   14   40 1
    35   15   20 ar
    36   15   16 ar
    37   16   17 ar
    38   16   41 1
    39   17   18 ar
    40   17   42 1
    41   18   23 1
    42   18   19 ar
    43   19   20 ar
    44   19   21 1
    45   20   43 1
    46   21   22 1
    47   22   23 1
    48   22   44 1
    49   22   45 1
@<TRIPOS>MOLECULE
ZINC19334215
   46    49     0     0     0
SMALL
USER_CHARGES
1-(1,3-benzodioxol-5-ylmethyl)-4-[(4-fluorophenyl)methyl]piperazine
@<TRIPOS>ATOM
      1 C1          9.0022   -5.6153   -1.0238 C.ar      1 <0>        -0.0639
      2 C2          8.5696   -6.8026   -1.5833 C.ar      1 <0>        -0.1519
      3 C3          7.7273   -6.7831   -2.6821 C.ar      1 <0>         0.1128
      4 C4          7.3152   -5.5738   -3.2158 C.ar      1 <0>        -0.1537
      5 C5          7.7449   -4.3878   -2.6514 C.ar      1 <0>        -0.0880
      6 C6          8.5858   -4.4084   -1.5543 C.ar      1 <0>        -0.1163
      7 C7          9.0540   -3.1144   -0.9401 C.3       1 <0>         0.0973
      8 N1          8.1069   -2.6962    0.1021 N.3       1 <0>        -0.5332
      9 C8          8.3960   -1.3296    0.5587 C.3       1 <0>         0.0241
     10 C9          7.4405   -0.9618    1.6963 C.3       1 <0>         0.0011
     11 N2          6.0537   -1.0737    1.2232 N.4       1 <0>        -0.4010
     12 C10         5.7646   -2.4402    0.7666 C.3       1 <0>        -0.0043
     13 C11         6.7201   -2.8080   -0.3710 C.3       1 <0>         0.0192
     14 C12         5.1066   -0.6554    2.2653 C.3       1 <0>         0.0534
     15 C13         3.7246   -0.5476    1.6742 C.ar      1 <0>        -0.1545
     16 C14         2.8855   -1.6464    1.6768 C.ar      1 <0>        -0.0818
     17 C15         1.6171   -1.5526    1.1353 C.ar      1 <0>        -0.0997
     18 C16         1.1834   -0.3557    0.5885 C.ar      1 <0>         0.0715
     19 C17         2.0284    0.7513    0.5864 C.ar      1 <0>         0.0405
     20 C18         3.2983    0.6500    1.1309 C.ar      1 <0>        -0.0811
     21 O1          1.3764    1.7966   -0.0014 O.3       1 <0>        -0.3032
     22 C19        -0.0175    1.4357    0.0099 C.3       1 <0>         0.2065
     23 O2          0.0021   -0.0041    0.0020 O.3       1 <0>        -0.2945
     24 F1          7.3076   -7.9432   -3.2327 F         1 <0>        -0.1322
     25 H1          9.6624   -5.6302   -0.1692 H         1 <0>         0.1373
     26 H2          8.8917   -7.7453   -1.1661 H         1 <0>         0.1414
     27 H3          6.6580   -5.5575   -4.0726 H         1 <0>         0.1397
     28 H4          7.4233   -3.4444   -3.0673 H         1 <0>         0.1290
     29 H5         10.0493   -3.2590   -0.4945 H         1 <0>         0.1021
     30 H6          9.1097   -2.3384   -1.7177 H         1 <0>         0.0583
     31 H7          9.4341   -1.2751    0.9184 H         1 <0>         0.1257
     32 H8          8.2602   -0.6273   -0.2770 H         1 <0>         0.0618
     33 H9          7.5967   -1.6472    2.5424 H         1 <0>         0.1373
     34 H10         7.6363    0.0711    2.0201 H         1 <0>         0.1377
     35 H11         5.9004   -3.1424    1.6023 H         1 <0>         0.1362
     36 H12         4.7265   -2.4947    0.4069 H         1 <0>         0.1352
     37 H13         6.5651   -2.1227   -1.2174 H         1 <0>         0.0602
     38 H14         6.5254   -3.8410   -0.6952 H         1 <0>         0.1277
     39 H15         5.1017   -1.3988    3.0760 H         1 <0>         0.1391
     40 H16         5.4111    0.3225    2.6664 H         1 <0>         0.1408
     41 H17         3.2220   -2.5802    2.1025 H         1 <0>         0.1468
     42 H18         0.9638   -2.4126    1.1387 H         1 <0>         0.1498
     43 H19         3.9558    1.5068    1.1302 H         1 <0>         0.1442
     44 H20        -0.4938    1.8410    0.9148 H         1 <0>         0.0987
     45 H21        -0.5109    1.8506   -0.8814 H         1 <0>         0.1463
     46 H22         5.9317   -0.3960    0.3654 H         1 <0>         0.4377
@<TRIPOS>BOND
     1    1    6 ar
     2    1    2 ar
     3    1   25 1
     4    2    3 ar
     5    2   26 1
     6    3    4 ar
     7    3   24 1
     8    4    5 ar
     9    4   27 1
    10    5    6 ar
    11    5   28 1
    12    6    7 1
    13    7    8 1
    14    7   29 1
    15    7   30 1
    16    8   13 1
    17    8    9 1
    18    9   10 1
    19    9   31 1
    20    9   32 1
    21   10   11 1
    22   10   33 1
    23   10   34 1
    24   11   12 1
    25   11   14 1
    26   11   46 1
    27   12   13 1
    28   12   35 1
    29   12   36 1
    30   13   37 1
    31   13   38 1
    32   14   15 1
    33   14   39 1
    34   14   40 1
    35   15   20 ar
    36   15   16 ar
    37   16   17 ar
    38   16   41 1
    39   17   18 ar
    40   17   42 1
    41   18   23 1
    42   18   19 ar
    43   19   20 ar
    44   19   21 1
    45   20   43 1
    46   21   22 1
    47   22   23 1
    48   22   44 1
    49   22   45 1
@<TRIPOS>MOLECULE
ZINC19334215
   45    48     0     0     0
SMALL
USER_CHARGES
1-(1,3-benzodioxol-5-ylmethyl)-4-[(4-fluorophenyl)methyl]piperazine
@<TRIPOS>ATOM
      1 C1          9.0022   -5.6153   -1.0238 C.ar      1 <0>        -0.0693
      2 C2          8.5696   -6.8026   -1.5833 C.ar      1 <0>        -0.1540
      3 C3          7.7273   -6.7831   -2.6821 C.ar      1 <0>         0.0996
      4 C4          7.3152   -5.5738   -3.2158 C.ar      1 <0>        -0.1539
      5 C5          7.7449   -4.3878   -2.6514 C.ar      1 <0>        -0.0842
      6 C6          8.5858   -4.4084   -1.5543 C.ar      1 <0>        -0.0958
      7 C7          9.0540   -3.1144   -0.9401 C.3       1 <0>         0.0932
      8 N1          8.1069   -2.6962    0.1021 N.3       1 <0>        -0.5332
      9 C8          8.3960   -1.3296    0.5587 C.3       1 <0>         0.0555
     10 C9          7.4405   -0.9618    1.6963 C.3       1 <0>         0.0567
     11 N2          6.0537   -1.0737    1.2232 N.3       1 <0>        -0.5345
     12 C10         5.7646   -2.4402    0.7666 C.3       1 <0>         0.0518
     13 C11         6.7201   -2.8080   -0.3710 C.3       1 <0>         0.0524
     14 C12         5.1066   -0.6554    2.2653 C.3       1 <0>         0.0964
     15 C13         3.7246   -0.5476    1.6742 C.ar      1 <0>        -0.0680
     16 C14         2.8855   -1.6464    1.6768 C.ar      1 <0>        -0.1044
     17 C15         1.6171   -1.5526    1.1353 C.ar      1 <0>        -0.0991
     18 C16         1.1834   -0.3557    0.5885 C.ar      1 <0>         0.0310
     19 C17         2.0284    0.7513    0.5864 C.ar      1 <0>         0.0321
     20 C18         3.2983    0.6500    1.1309 C.ar      1 <0>        -0.0793
     21 O1          1.3764    1.7966   -0.0014 O.3       1 <0>        -0.3106
     22 C19        -0.0175    1.4357    0.0099 C.3       1 <0>         0.2090
     23 O2          0.0021   -0.0041    0.0020 O.3       1 <0>        -0.3053
     24 F1          7.3076   -7.9432   -3.2327 F         1 <0>        -0.1392
     25 H1          9.6624   -5.6302   -0.1692 H         1 <0>         0.1348
     26 H2          8.8917   -7.7453   -1.1661 H         1 <0>         0.1363
     27 H3          6.6580   -5.5575   -4.0726 H         1 <0>         0.1359
     28 H4          7.4233   -3.4444   -3.0673 H         1 <0>         0.1298
     29 H5         10.0493   -3.2590   -0.4945 H         1 <0>         0.0888
     30 H6          9.1097   -2.3384   -1.7177 H         1 <0>         0.0475
     31 H7          9.4341   -1.2751    0.9184 H         1 <0>         0.0830
     32 H8          8.2602   -0.6273   -0.2770 H         1 <0>         0.0452
     33 H9          7.5967   -1.6472    2.5424 H         1 <0>         0.0457
     34 H10         7.6363    0.0711    2.0201 H         1 <0>         0.0830
     35 H11         5.9004   -3.1424    1.6023 H         1 <0>         0.0438
     36 H12         4.7265   -2.4947    0.4069 H         1 <0>         0.0847
     37 H13         6.5651   -2.1227   -1.2174 H         1 <0>         0.0425
     38 H14         6.5254   -3.8410   -0.6952 H         1 <0>         0.0855
     39 H15         5.1017   -1.3988    3.0760 H         1 <0>         0.0510
     40 H16         5.4111    0.3225    2.6664 H         1 <0>         0.0886
     41 H17         3.2220   -2.5802    2.1025 H         1 <0>         0.1355
     42 H18         0.9638   -2.4126    1.1387 H         1 <0>         0.1361
     43 H19         3.9558    1.5068    1.1302 H         1 <0>         0.1357
     44 H20        -0.4938    1.8410    0.9148 H         1 <0>         0.0860
     45 H21        -0.5109    1.8506   -0.8814 H         1 <0>         0.1340
@<TRIPOS>BOND
     1    1    6 ar
     2    1    2 ar
     3    1   25 1
     4    2    3 ar
     5    2   26 1
     6    3    4 ar
     7    3   24 1
     8    4    5 ar
     9    4   27 1
    10    5    6 ar
    11    5   28 1
    12    6    7 1
    13    7    8 1
    14    7   29 1
    15    7   30 1
    16    8   13 1
    17    8    9 1
    18    9   10 1
    19    9   31 1
    20    9   32 1
    21   10   11 1
    22   10   33 1
    23   10   34 1
    24   11   12 1
    25   11   14 1
    26   12   13 1
    27   12   35 1
    28   12   36 1
    29   13   37 1
    30   13   38 1
    31   14   15 1
    32   14   39 1
    33   14   40 1
    34   15   20 ar
    35   15   16 ar
    36   16   17 ar
    37   16   41 1
    38   17   18 ar
    39   17   42 1
    40   18   23 1
    41   18   19 ar
    42   19   20 ar
    43   19   21 1
    44   20   43 1
    45   21   22 1
    46   22   23 1
    47   22   44 1
    48   22   45 1
@<TRIPOS>MOLECULE
ZINC19361448
   46    49     0     0     0
SMALL
USER_CHARGES
1-(1,3-benzodioxol-5-ylmethyl)-4-[(4-bromophenyl)methyl]piperazine
@<TRIPOS>ATOM
      1 C1          9.0019   -5.6154   -1.0241 C.ar      1 <0>        -0.0871
      2 C2          8.5689   -6.8025   -1.5841 C.ar      1 <0>        -0.0870
      3 C3          7.7275   -6.7827   -2.6819 C.ar      1 <0>        -0.0643
      4 C4          7.3156   -5.5748   -3.2153 C.ar      1 <0>        -0.0874
      5 C5          7.7449   -4.3882   -2.6513 C.ar      1 <0>        -0.0890
      6 C6          8.5858   -4.4084   -1.5543 C.ar      1 <0>        -0.1459
      7 C7          9.0540   -3.1144   -0.9401 C.3       1 <0>         0.0459
      8 N1          8.1069   -2.6962    0.1021 N.4       1 <0>        -0.3992
      9 C8          8.3960   -1.3296    0.5587 C.3       1 <0>         0.0013
     10 C9          7.4405   -0.9618    1.6963 C.3       1 <0>         0.0252
     11 N2          6.0537   -1.0737    1.2232 N.3       1 <0>        -0.5350
     12 C10         5.7646   -2.4402    0.7666 C.3       1 <0>         0.0203
     13 C11         6.7201   -2.8080   -0.3710 C.3       1 <0>        -0.0042
     14 C12         5.1066   -0.6554    2.2653 C.3       1 <0>         0.1010
     15 C13         3.7246   -0.5476    1.6742 C.ar      1 <0>        -0.0866
     16 C14         2.8855   -1.6464    1.6768 C.ar      1 <0>        -0.1078
     17 C15         1.6171   -1.5526    1.1353 C.ar      1 <0>        -0.0995
     18 C16         1.1834   -0.3557    0.5885 C.ar      1 <0>         0.0431
     19 C17         2.0284    0.7513    0.5864 C.ar      1 <0>         0.0371
     20 C18         3.2983    0.6500    1.1309 C.ar      1 <0>        -0.0781
     21 O1          1.3764    1.7966   -0.0014 O.3       1 <0>        -0.3081
     22 C19        -0.0175    1.4357    0.0099 C.3       1 <0>         0.2079
     23 O2          0.0021   -0.0041    0.0020 O.3       1 <0>        -0.3017
     24 Br1         7.1400   -8.4065   -3.4526 Br        1 <0>        -0.0168
     25 H1          9.6622   -5.6308   -0.1695 H         1 <0>         0.1409
     26 H2          8.8905   -7.7454   -1.1671 H         1 <0>         0.1460
     27 H3          6.6583   -5.5588   -4.0722 H         1 <0>         0.1462
     28 H4          7.4231   -3.4450   -3.0676 H         1 <0>         0.1402
     29 H5         10.0493   -3.2590   -0.4945 H         1 <0>         0.1413
     30 H6          9.1097   -2.3384   -1.7177 H         1 <0>         0.1367
     31 H7          9.4341   -1.2751    0.9184 H         1 <0>         0.1380
     32 H8          8.2602   -0.6273   -0.2770 H         1 <0>         0.1363
     33 H9          7.5967   -1.6472    2.5424 H         1 <0>         0.0627
     34 H10         7.6363    0.0711    2.0201 H         1 <0>         0.1258
     35 H11         5.9004   -3.1424    1.6023 H         1 <0>         0.0617
     36 H12         4.7265   -2.4947    0.4069 H         1 <0>         0.1268
     37 H13         6.5651   -2.1227   -1.2174 H         1 <0>         0.1346
     38 H14         6.5254   -3.8410   -0.6952 H         1 <0>         0.1363
     39 H15         5.1017   -1.3988    3.0760 H         1 <0>         0.0616
     40 H16         5.4111    0.3225    2.6664 H         1 <0>         0.1008
     41 H17         3.2220   -2.5802    2.1025 H         1 <0>         0.1343
     42 H18         0.9638   -2.4126    1.1387 H         1 <0>         0.1395
     43 H19         3.9558    1.5068    1.1302 H         1 <0>         0.1372
     44 H20        -0.4938    1.8410    0.9148 H         1 <0>         0.0918
     45 H21        -0.5109    1.8506   -0.8814 H         1 <0>         0.1396
     46 H22         8.2289   -3.3740    0.9598 H         1 <0>         0.4376
@<TRIPOS>BOND
     1    1    6 ar
     2    1    2 ar
     3    1   25 1
     4    2    3 ar
     5    2   26 1
     6    3    4 ar
     7    3   24 1
     8    4    5 ar
     9    4   27 1
    10    5    6 ar
    11    5   28 1
    12    6    7 1
    13    7    8 1
    14    7   29 1
    15    7   30 1
    16    8   13 1
    17    8    9 1
    18    8   46 1
    19    9   10 1
    20    9   31 1
    21    9   32 1
    22   10   11 1
    23   10   33 1
    24   10   34 1
    25   11   12 1
    26   11   14 1
    27   12   13 1
    28   12   35 1
    29   12   36 1
    30   13   37 1
    31   13   38 1
    32   14   15 1
    33   14   39 1
    34   14   40 1
    35   15   20 ar
    36   15   16 ar
    37   16   17 ar
    38   16   41 1
    39   17   18 ar
    40   17   42 1
    41   18   23 1
    42   18   19 ar
    43   19   20 ar
    44   19   21 1
    45   20   43 1
    46   21   22 1
    47   22   23 1
    48   22   44 1
    49   22   45 1
@<TRIPOS>MOLECULE
ZINC19361448
   46    49     0     0     0
SMALL
USER_CHARGES
1-(1,3-benzodioxol-5-ylmethyl)-4-[(4-bromophenyl)methyl]piperazine
@<TRIPOS>ATOM
      1 C1          9.0019   -5.6154   -1.0241 C.ar      1 <0>        -0.0881
      2 C2          8.5689   -6.8025   -1.5841 C.ar      1 <0>        -0.0879
      3 C3          7.7275   -6.7827   -2.6819 C.ar      1 <0>        -0.0828
      4 C4          7.3156   -5.5748   -3.2153 C.ar      1 <0>        -0.0900
      5 C5          7.7449   -4.3882   -2.6513 C.ar      1 <0>        -0.1123
      6 C6          8.5858   -4.4084   -1.5543 C.ar      1 <0>        -0.0888
      7 C7          9.0540   -3.1144   -0.9401 C.3       1 <0>         0.0941
      8 N1          8.1069   -2.6962    0.1021 N.3       1 <0>        -0.5325
      9 C8          8.3960   -1.3296    0.5587 C.3       1 <0>         0.0241
     10 C9          7.4405   -0.9618    1.6963 C.3       1 <0>         0.0011
     11 N2          6.0537   -1.0737    1.2232 N.4       1 <0>        -0.4010
     12 C10         5.7646   -2.4402    0.7666 C.3       1 <0>        -0.0041
     13 C11         6.7201   -2.8080   -0.3710 C.3       1 <0>         0.0190
     14 C12         5.1066   -0.6554    2.2653 C.3       1 <0>         0.0533
     15 C13         3.7246   -0.5476    1.6742 C.ar      1 <0>        -0.1546
     16 C14         2.8855   -1.6464    1.6768 C.ar      1 <0>        -0.0817
     17 C15         1.6171   -1.5526    1.1353 C.ar      1 <0>        -0.0996
     18 C16         1.1834   -0.3557    0.5885 C.ar      1 <0>         0.0717
     19 C17         2.0284    0.7513    0.5864 C.ar      1 <0>         0.0405
     20 C18         3.2983    0.6500    1.1309 C.ar      1 <0>        -0.0811
     21 O1          1.3764    1.7966   -0.0014 O.3       1 <0>        -0.3032
     22 C19        -0.0175    1.4357    0.0099 C.3       1 <0>         0.2065
     23 O2          0.0021   -0.0041    0.0020 O.3       1 <0>        -0.2944
     24 Br1         7.1400   -8.4065   -3.4526 Br        1 <0>        -0.0352
     25 H1          9.6622   -5.6308   -0.1695 H         1 <0>         0.1361
     26 H2          8.8905   -7.7454   -1.1671 H         1 <0>         0.1382
     27 H3          6.6583   -5.5588   -4.0722 H         1 <0>         0.1366
     28 H4          7.4231   -3.4450   -3.0676 H         1 <0>         0.1279
     29 H5         10.0493   -3.2590   -0.4945 H         1 <0>         0.1028
     30 H6          9.1097   -2.3384   -1.7177 H         1 <0>         0.0591
     31 H7          9.4341   -1.2751    0.9184 H         1 <0>         0.1259
     32 H8          8.2602   -0.6273   -0.2770 H         1 <0>         0.0621
     33 H9          7.5967   -1.6472    2.5424 H         1 <0>         0.1374
     34 H10         7.6363    0.0711    2.0201 H         1 <0>         0.1379
     35 H11         5.9004   -3.1424    1.6023 H         1 <0>         0.1363
     36 H12         4.7265   -2.4947    0.4069 H         1 <0>         0.1354
     37 H13         6.5651   -2.1227   -1.2174 H         1 <0>         0.0604
     38 H14         6.5254   -3.8410   -0.6952 H         1 <0>         0.1276
     39 H15         5.1017   -1.3988    3.0760 H         1 <0>         0.1391
     40 H16         5.4111    0.3225    2.6664 H         1 <0>         0.1408
     41 H17         3.2220   -2.5802    2.1025 H         1 <0>         0.1468
     42 H18         0.9638   -2.4126    1.1387 H         1 <0>         0.1498
     43 H19         3.9558    1.5068    1.1302 H         1 <0>         0.1442
     44 H20        -0.4938    1.8410    0.9148 H         1 <0>         0.0987
     45 H21        -0.5109    1.8506   -0.8814 H         1 <0>         0.1463
     46 H22         5.9317   -0.3960    0.3654 H         1 <0>         0.4377
@<TRIPOS>BOND
     1    1    6 ar
     2    1    2 ar
     3    1   25 1
     4    2    3 ar
     5    2   26 1
     6    3    4 ar
     7    3   24 1
     8    4    5 ar
     9    4   27 1
    10    5    6 ar
    11    5   28 1
    12    6    7 1
    13    7    8 1
    14    7   29 1
    15    7   30 1
    16    8   13 1
    17    8    9 1
    18    9   10 1
    19    9   31 1
    20    9   32 1
    21   10   11 1
    22   10   33 1
    23   10   34 1
    24   11   12 1
    25   11   14 1
    26   11   46 1
    27   12   13 1
    28   12   35 1
    29   12   36 1
    30   13   37 1
    31   13   38 1
    32   14   15 1
    33   14   39 1
    34   14   40 1
    35   15   20 ar
    36   15   16 ar
    37   16   17 ar
    38   16   41 1
    39   17   18 ar
    40   17   42 1
    41   18   23 1
    42   18   19 ar
    43   19   20 ar
    44   19   21 1
    45   20   43 1
    46   21   22 1
    47   22   23 1
    48   22   44 1
    49   22   45 1
@<TRIPOS>MOLECULE
ZINC19361448
   45    48     0     0     0
SMALL
USER_CHARGES
1-(1,3-benzodioxol-5-ylmethyl)-4-[(4-bromophenyl)methyl]piperazine
@<TRIPOS>ATOM
      1 C1          9.0019   -5.6154   -1.0241 C.ar      1 <0>        -0.0931
      2 C2          8.5689   -6.8025   -1.5841 C.ar      1 <0>        -0.0906
      3 C3          7.7275   -6.7827   -2.6819 C.ar      1 <0>        -0.0893
      4 C4          7.3156   -5.5748   -3.2153 C.ar      1 <0>        -0.0908
      5 C5          7.7449   -4.3882   -2.6513 C.ar      1 <0>        -0.1080
      6 C6          8.5858   -4.4084   -1.5543 C.ar      1 <0>        -0.0684
      7 C7          9.0540   -3.1144   -0.9401 C.3       1 <0>         0.0899
      8 N1          8.1069   -2.6962    0.1021 N.3       1 <0>        -0.5324
      9 C8          8.3960   -1.3296    0.5587 C.3       1 <0>         0.0555
     10 C9          7.4405   -0.9618    1.6963 C.3       1 <0>         0.0567
     11 N2          6.0537   -1.0737    1.2232 N.3       1 <0>        -0.5345
     12 C10         5.7646   -2.4402    0.7666 C.3       1 <0>         0.0521
     13 C11         6.7201   -2.8080   -0.3710 C.3       1 <0>         0.0523
     14 C12         5.1066   -0.6554    2.2653 C.3       1 <0>         0.0964
     15 C13         3.7246   -0.5476    1.6742 C.ar      1 <0>        -0.0681
     16 C14         2.8855   -1.6464    1.6768 C.ar      1 <0>        -0.1044
     17 C15         1.6171   -1.5526    1.1353 C.ar      1 <0>        -0.0990
     18 C16         1.1834   -0.3557    0.5885 C.ar      1 <0>         0.0312
     19 C17         2.0284    0.7513    0.5864 C.ar      1 <0>         0.0321
     20 C18         3.2983    0.6500    1.1309 C.ar      1 <0>        -0.0793
     21 O1          1.3764    1.7966   -0.0014 O.3       1 <0>        -0.3106
     22 C19        -0.0175    1.4357    0.0099 C.3       1 <0>         0.2090
     23 O2          0.0021   -0.0041    0.0020 O.3       1 <0>        -0.3053
     24 Br1         7.1400   -8.4065   -3.4526 Br        1 <0>        -0.0500
     25 H1          9.6622   -5.6308   -0.1695 H         1 <0>         0.1338
     26 H2          8.8905   -7.7454   -1.1671 H         1 <0>         0.1336
     27 H3          6.6583   -5.5588   -4.0722 H         1 <0>         0.1331
     28 H4          7.4231   -3.4450   -3.0676 H         1 <0>         0.1288
     29 H5         10.0493   -3.2590   -0.4945 H         1 <0>         0.0895
     30 H6          9.1097   -2.3384   -1.7177 H         1 <0>         0.0484
     31 H7          9.4341   -1.2751    0.9184 H         1 <0>         0.0832
     32 H8          8.2602   -0.6273   -0.2770 H         1 <0>         0.0454
     33 H9          7.5967   -1.6472    2.5424 H         1 <0>         0.0457
     34 H10         7.6363    0.0711    2.0201 H         1 <0>         0.0833
     35 H11         5.9004   -3.1424    1.6023 H         1 <0>         0.0438
     36 H12         4.7265   -2.4947    0.4069 H         1 <0>         0.0849
     37 H13         6.5651   -2.1227   -1.2174 H         1 <0>         0.0427
     38 H14         6.5254   -3.8410   -0.6952 H         1 <0>         0.0854
     39 H15         5.1017   -1.3988    3.0760 H         1 <0>         0.0510
     40 H16         5.4111    0.3225    2.6664 H         1 <0>         0.0887
     41 H17         3.2220   -2.5802    2.1025 H         1 <0>         0.1355
     42 H18         0.9638   -2.4126    1.1387 H         1 <0>         0.1361
     43 H19         3.9558    1.5068    1.1302 H         1 <0>         0.1356
     44 H20        -0.4938    1.8410    0.9148 H         1 <0>         0.0860
     45 H21        -0.5109    1.8506   -0.8814 H         1 <0>         0.1340
@<TRIPOS>BOND
     1    1    6 ar
     2    1    2 ar
     3    1   25 1
     4    2    3 ar
     5    2   26 1
     6    3    4 ar
     7    3   24 1
     8    4    5 ar
     9    4   27 1
    10    5    6 ar
    11    5   28 1
    12    6    7 1
    13    7    8 1
    14    7   29 1
    15    7   30 1
    16    8   13 1
    17    8    9 1
    18    9   10 1
    19    9   31 1
    20    9   32 1
    21   10   11 1
    22   10   33 1
    23   10   34 1
    24   11   12 1
    25   11   14 1
    26   12   13 1
    27   12   35 1
    28   12   36 1
    29   13   37 1
    30   13   38 1
    31   14   15 1
    32   14   39 1
    33   14   40 1
    34   15   20 ar
    35   15   16 ar
    36   16   17 ar
    37   16   41 1
    38   17   18 ar
    39   17   42 1
    40   18   23 1
    41   18   19 ar
    42   19   20 ar
    43   19   21 1
    44   20   43 1
    45   21   22 1
    46   22   23 1
    47   22   44 1
    48   22   45 1
@<TRIPOS>MOLECULE
ZINC19334219
   48    51     0     0     0
SMALL
USER_CHARGES
1-(1,3-benzodioxol-5-ylmethyl)-4-[(4-nitrophenyl)methyl]piperazine
@<TRIPOS>ATOM
      1 C1          9.0017   -5.6155   -1.0242 C.ar      1 <0>        -0.0919
      2 C2          8.5688   -6.8025   -1.5850 C.ar      1 <0>        -0.0502
      3 C3          7.7275   -6.7825   -2.6817 C.ar      1 <0>        -0.0119
      4 C4          7.3154   -5.5754   -3.2147 C.ar      1 <0>        -0.0513
      5 C5          7.7449   -4.3884   -2.6513 C.ar      1 <0>        -0.0941
      6 C6          8.5858   -4.4084   -1.5543 C.ar      1 <0>        -0.1101
      7 C7          9.0540   -3.1144   -0.9401 C.3       1 <0>         0.0412
      8 N1          8.1069   -2.6962    0.1021 N.4       1 <0>        -0.4000
      9 C8          8.3960   -1.3296    0.5587 C.3       1 <0>         0.0015
     10 C9          7.4405   -0.9618    1.6963 C.3       1 <0>         0.0247
     11 N2          6.0537   -1.0737    1.2232 N.3       1 <0>        -0.5348
     12 C10         5.7646   -2.4402    0.7666 C.3       1 <0>         0.0199
     13 C11         6.7201   -2.8080   -0.3710 C.3       1 <0>        -0.0066
     14 C12         5.1066   -0.6554    2.2653 C.3       1 <0>         0.1012
     15 C13         3.7246   -0.5476    1.6742 C.ar      1 <0>        -0.0878
     16 C14         2.8855   -1.6464    1.6768 C.ar      1 <0>        -0.1083
     17 C15         1.6171   -1.5526    1.1353 C.ar      1 <0>        -0.0996
     18 C16         1.1834   -0.3557    0.5885 C.ar      1 <0>         0.0439
     19 C17         2.0284    0.7513    0.5864 C.ar      1 <0>         0.0375
     20 C18         3.2983    0.6500    1.1309 C.ar      1 <0>        -0.0780
     21 O1          1.3764    1.7966   -0.0014 O.3       1 <0>        -0.3079
     22 C19        -0.0175    1.4357    0.0099 C.3       1 <0>         0.2078
     23 O2          0.0021   -0.0041    0.0020 O.3       1 <0>        -0.3014
     24 N3          7.2676   -8.0535   -3.2850 N.pl3     1 <0>         0.0121
     25 O3          6.5261   -8.0358   -4.2511 O.2       1 <0>        -0.1355
     26 O4          7.6307   -9.1170   -2.8153 O.3       1 <0>        -0.1358
     27 H1          9.6622   -5.6311   -0.1699 H         1 <0>         0.1568
     28 H2          8.8904   -7.7455   -1.1683 H         1 <0>         0.1668
     29 H3          6.6582   -5.5598   -4.0716 H         1 <0>         0.1670
     30 H4          7.4233   -3.4454   -3.0680 H         1 <0>         0.1559
     31 H5         10.0493   -3.2590   -0.4945 H         1 <0>         0.1482
     32 H6          9.1097   -2.3384   -1.7177 H         1 <0>         0.1436
     33 H7          9.4341   -1.2751    0.9184 H         1 <0>         0.1400
     34 H8          8.2602   -0.6273   -0.2770 H         1 <0>         0.1380
     35 H9          7.5967   -1.6472    2.5424 H         1 <0>         0.0636
     36 H10         7.6363    0.0711    2.0201 H         1 <0>         0.1275
     37 H11         5.9004   -3.1424    1.6023 H         1 <0>         0.0627
     38 H12         4.7265   -2.4947    0.4069 H         1 <0>         0.1282
     39 H13         6.5651   -2.1227   -1.2174 H         1 <0>         0.1377
     40 H14         6.5254   -3.8410   -0.6952 H         1 <0>         0.1330
     41 H15         5.1017   -1.3988    3.0760 H         1 <0>         0.0621
     42 H16         5.4111    0.3225    2.6664 H         1 <0>         0.1016
     43 H17         3.2220   -2.5802    2.1025 H         1 <0>         0.1339
     44 H18         0.9638   -2.4126    1.1387 H         1 <0>         0.1397
     45 H19         3.9558    1.5068    1.1302 H         1 <0>         0.1373
     46 H20        -0.4938    1.8410    0.9148 H         1 <0>         0.0922
     47 H21        -0.5109    1.8506   -0.8814 H         1 <0>         0.1401
     48 H22         8.2289   -3.3740    0.9598 H         1 <0>         0.4396
@<TRIPOS>BOND
     1    1    6 ar
     2    1    2 ar
     3    1   27 1
     4    2    3 ar
     5    2   28 1
     6    3    4 ar
     7    3   24 1
     8    4    5 ar
     9    4   29 1
    10    5    6 ar
    11    5   30 1
    12    6    7 1
    13    7    8 1
    14    7   31 1
    15    7   32 1
    16    8   13 1
    17    8    9 1
    18    8   48 1
    19    9   10 1
    20    9   33 1
    21    9   34 1
    22   10   11 1
    23   10   35 1
    24   10   36 1
    25   11   12 1
    26   11   14 1
    27   12   13 1
    28   12   37 1
    29   12   38 1
    30   13   39 1
    31   13   40 1
    32   14   15 1
    33   14   41 1
    34   14   42 1
    35   15   20 ar
    36   15   16 ar
    37   16   17 ar
    38   16   43 1
    39   17   18 ar
    40   17   44 1
    41   18   23 1
    42   18   19 ar
    43   19   20 ar
    44   19   21 1
    45   20   45 1
    46   21   22 1
    47   22   23 1
    48   22   46 1
    49   22   47 1
    50   24   25 2
    51   24   26 1
@<TRIPOS>MOLECULE
ZINC19334219
   48    51     0     0     0
SMALL
USER_CHARGES
1-(1,3-benzodioxol-5-ylmethyl)-4-[(4-nitrophenyl)methyl]piperazine
@<TRIPOS>ATOM
      1 C1          9.0017   -5.6155   -1.0242 C.ar      1 <0>        -0.0929
      2 C2          8.5688   -6.8025   -1.5850 C.ar      1 <0>        -0.0508
      3 C3          7.7275   -6.7825   -2.6817 C.ar      1 <0>        -0.0337
      4 C4          7.3154   -5.5754   -3.2147 C.ar      1 <0>        -0.0535
      5 C5          7.7449   -4.3884   -2.6513 C.ar      1 <0>        -0.1176
      6 C6          8.5858   -4.4084   -1.5543 C.ar      1 <0>        -0.0521
      7 C7          9.0540   -3.1144   -0.9401 C.3       1 <0>         0.0882
      8 N1          8.1069   -2.6962    0.1021 N.3       1 <0>        -0.5324
      9 C8          8.3960   -1.3296    0.5587 C.3       1 <0>         0.0245
     10 C9          7.4405   -0.9618    1.6963 C.3       1 <0>         0.0007
     11 N2          6.0537   -1.0737    1.2232 N.4       1 <0>        -0.4012
     12 C10         5.7646   -2.4402    0.7666 C.3       1 <0>        -0.0042
     13 C11         6.7201   -2.8080   -0.3710 C.3       1 <0>         0.0164
     14 C12         5.1066   -0.6554    2.2653 C.3       1 <0>         0.0536
     15 C13         3.7246   -0.5476    1.6742 C.ar      1 <0>        -0.1557
     16 C14         2.8855   -1.6464    1.6768 C.ar      1 <0>        -0.0821
     17 C15         1.6171   -1.5526    1.1353 C.ar      1 <0>        -0.0998
     18 C16         1.1834   -0.3557    0.5885 C.ar      1 <0>         0.0725
     19 C17         2.0284    0.7513    0.5864 C.ar      1 <0>         0.0409
     20 C18         3.2983    0.6500    1.1309 C.ar      1 <0>        -0.0811
     21 O1          1.3764    1.7966   -0.0014 O.3       1 <0>        -0.3030
     22 C19        -0.0175    1.4357    0.0099 C.3       1 <0>         0.2064
     23 O2          0.0021   -0.0041    0.0020 O.3       1 <0>        -0.2940
     24 N3          7.2676   -8.0535   -3.2850 N.pl3     1 <0>         0.0193
     25 O3          6.5261   -8.0358   -4.2511 O.2       1 <0>        -0.1494
     26 O4          7.6307   -9.1170   -2.8153 O.3       1 <0>        -0.1465
     27 H1          9.6622   -5.6311   -0.1699 H         1 <0>         0.1522
     28 H2          8.8904   -7.7455   -1.1683 H         1 <0>         0.1595
     29 H3          6.6582   -5.5598   -4.0716 H         1 <0>         0.1579
     30 H4          7.4233   -3.4454   -3.0680 H         1 <0>         0.1440
     31 H5         10.0493   -3.2590   -0.4945 H         1 <0>         0.1098
     32 H6          9.1097   -2.3384   -1.7177 H         1 <0>         0.0665
     33 H7          9.4341   -1.2751    0.9184 H         1 <0>         0.1279
     34 H8          8.2602   -0.6273   -0.2770 H         1 <0>         0.0643
     35 H9          7.5967   -1.6472    2.5424 H         1 <0>         0.1382
     36 H10         7.6363    0.0711    2.0201 H         1 <0>         0.1396
     37 H11         5.9004   -3.1424    1.6023 H         1 <0>         0.1371
     38 H12         4.7265   -2.4947    0.4069 H         1 <0>         0.1368
     39 H13         6.5651   -2.1227   -1.2174 H         1 <0>         0.0636
     40 H14         6.5254   -3.8410   -0.6952 H         1 <0>         0.1242
     41 H15         5.1017   -1.3988    3.0760 H         1 <0>         0.1394
     42 H16         5.4111    0.3225    2.6664 H         1 <0>         0.1416
     43 H17         3.2220   -2.5802    2.1025 H         1 <0>         0.1464
     44 H18         0.9638   -2.4126    1.1387 H         1 <0>         0.1500
     45 H19         3.9558    1.5068    1.1302 H         1 <0>         0.1443
     46 H20        -0.4938    1.8410    0.9148 H         1 <0>         0.0991
     47 H21        -0.5109    1.8506   -0.8814 H         1 <0>         0.1468
     48 H22         5.9317   -0.3960    0.3654 H         1 <0>         0.4382
@<TRIPOS>BOND
     1    1    6 ar
     2    1    2 ar
     3    1   27 1
     4    2    3 ar
     5    2   28 1
     6    3    4 ar
     7    3   24 1
     8    4    5 ar
     9    4   29 1
    10    5    6 ar
    11    5   30 1
    12    6    7 1
    13    7    8 1
    14    7   31 1
    15    7   32 1
    16    8   13 1
    17    8    9 1
    18    9   10 1
    19    9   33 1
    20    9   34 1
    21   10   11 1
    22   10   35 1
    23   10   36 1
    24   11   12 1
    25   11   14 1
    26   11   48 1
    27   12   13 1
    28   12   37 1
    29   12   38 1
    30   13   39 1
    31   13   40 1
    32   14   15 1
    33   14   41 1
    34   14   42 1
    35   15   20 ar
    36   15   16 ar
    37   16   17 ar
    38   16   43 1
    39   17   18 ar
    40   17   44 1
    41   18   23 1
    42   18   19 ar
    43   19   20 ar
    44   19   21 1
    45   20   45 1
    46   21   22 1
    47   22   23 1
    48   22   46 1
    49   22   47 1
    50   24   25 2
    51   24   26 1
@<TRIPOS>MOLECULE
ZINC19334219
   47    50     0     0     0
SMALL
USER_CHARGES
1-(1,3-benzodioxol-5-ylmethyl)-4-[(4-nitrophenyl)methyl]piperazine
@<TRIPOS>ATOM
      1 C1          9.0017   -5.6155   -1.0242 C.ar      1 <0>        -0.0981
      2 C2          8.5688   -6.8025   -1.5850 C.ar      1 <0>        -0.0529
      3 C3          7.7275   -6.7825   -2.6817 C.ar      1 <0>        -0.0442
      4 C4          7.3154   -5.5754   -3.2147 C.ar      1 <0>        -0.0539
      5 C5          7.7449   -4.3884   -2.6513 C.ar      1 <0>        -0.1135
      6 C6          8.5858   -4.4084   -1.5543 C.ar      1 <0>        -0.0309
      7 C7          9.0540   -3.1144   -0.9401 C.3       1 <0>         0.0835
      8 N1          8.1069   -2.6962    0.1021 N.3       1 <0>        -0.5318
      9 C8          8.3960   -1.3296    0.5587 C.3       1 <0>         0.0558
     10 C9          7.4405   -0.9618    1.6963 C.3       1 <0>         0.0561
     11 N2          6.0537   -1.0737    1.2232 N.3       1 <0>        -0.5344
     12 C10         5.7646   -2.4402    0.7666 C.3       1 <0>         0.0517
     13 C11         6.7201   -2.8080   -0.3710 C.3       1 <0>         0.0496
     14 C12         5.1066   -0.6554    2.2653 C.3       1 <0>         0.0967
     15 C13         3.7246   -0.5476    1.6742 C.ar      1 <0>        -0.0692
     16 C14         2.8855   -1.6464    1.6768 C.ar      1 <0>        -0.1048
     17 C15         1.6171   -1.5526    1.1353 C.ar      1 <0>        -0.0991
     18 C16         1.1834   -0.3557    0.5885 C.ar      1 <0>         0.0320
     19 C17         2.0284    0.7513    0.5864 C.ar      1 <0>         0.0325
     20 C18         3.2983    0.6500    1.1309 C.ar      1 <0>        -0.0793
     21 O1          1.3764    1.7966   -0.0014 O.3       1 <0>        -0.3104
     22 C19        -0.0175    1.4357    0.0099 C.3       1 <0>         0.2089
     23 O2          0.0021   -0.0041    0.0020 O.3       1 <0>        -0.3050
     24 N3          7.2676   -8.0535   -3.2850 N.pl3     1 <0>         0.0264
     25 O3          6.5261   -8.0358   -4.2511 O.2       1 <0>        -0.1583
     26 O4          7.6307   -9.1170   -2.8153 O.3       1 <0>        -0.1576
     27 H1          9.6622   -5.6311   -0.1699 H         1 <0>         0.1501
     28 H2          8.8904   -7.7455   -1.1683 H         1 <0>         0.1551
     29 H3          6.6582   -5.5598   -4.0716 H         1 <0>         0.1545
     30 H4          7.4233   -3.4454   -3.0680 H         1 <0>         0.1449
     31 H5         10.0493   -3.2590   -0.4945 H         1 <0>         0.0968
     32 H6          9.1097   -2.3384   -1.7177 H         1 <0>         0.0561
     33 H7          9.4341   -1.2751    0.9184 H         1 <0>         0.0853
     34 H8          8.2602   -0.6273   -0.2770 H         1 <0>         0.0477
     35 H9          7.5967   -1.6472    2.5424 H         1 <0>         0.0466
     36 H10         7.6363    0.0711    2.0201 H         1 <0>         0.0851
     37 H11         5.9004   -3.1424    1.6023 H         1 <0>         0.0446
     38 H12         4.7265   -2.4947    0.4069 H         1 <0>         0.0864
     39 H13         6.5651   -2.1227   -1.2174 H         1 <0>         0.0462
     40 H14         6.5254   -3.8410   -0.6952 H         1 <0>         0.0819
     41 H15         5.1017   -1.3988    3.0760 H         1 <0>         0.0516
     42 H16         5.4111    0.3225    2.6664 H         1 <0>         0.0895
     43 H17         3.2220   -2.5802    2.1025 H         1 <0>         0.1351
     44 H18         0.9638   -2.4126    1.1387 H         1 <0>         0.1363
     45 H19         3.9558    1.5068    1.1302 H         1 <0>         0.1358
     46 H20        -0.4938    1.8410    0.9148 H         1 <0>         0.0864
     47 H21        -0.5109    1.8506   -0.8814 H         1 <0>         0.1344
@<TRIPOS>BOND
     1    1    6 ar
     2    1    2 ar
     3    1   27 1
     4    2    3 ar
     5    2   28 1
     6    3    4 ar
     7    3   24 1
     8    4    5 ar
     9    4   29 1
    10    5    6 ar
    11    5   30 1
    12    6    7 1
    13    7    8 1
    14    7   31 1
    15    7   32 1
    16    8   13 1
    17    8    9 1
    18    9   10 1
    19    9   33 1
    20    9   34 1
    21   10   11 1
    22   10   35 1
    23   10   36 1
    24   11   12 1
    25   11   14 1
    26   12   13 1
    27   12   37 1
    28   12   38 1
    29   13   39 1
    30   13   40 1
    31   14   15 1
    32   14   41 1
    33   14   42 1
    34   15   20 ar
    35   15   16 ar
    36   16   17 ar
    37   16   43 1
    38   17   18 ar
    39   17   44 1
    40   18   23 1
    41   18   19 ar
    42   19   20 ar
    43   19   21 1
    44   20   45 1
    45   21   22 1
    46   22   23 1
    47   22   46 1
    48   22   47 1
    49   24   25 2
    50   24   26 1
@<TRIPOS>MOLECULE
ZINC19536917
   49    52     0     0     0
SMALL
USER_CHARGES
1-(1,3-benzodioxol-5-ylmethyl)-4-(p-tolylmethyl)piperazine
@<TRIPOS>ATOM
      1 C1          7.2593   -8.0765   -3.2959 C.3       1 <0>        -0.1263
      2 C2          7.7275   -6.7824   -2.6817 C.ar      1 <0>        -0.0699
      3 C3          7.3154   -5.5754   -3.2147 C.ar      1 <0>        -0.1206
      4 C4          7.7449   -4.3884   -2.6513 C.ar      1 <0>        -0.1133
      5 C5          8.5858   -4.4084   -1.5543 C.ar      1 <0>        -0.1111
      6 C6          9.0017   -5.6155   -1.0242 C.ar      1 <0>        -0.0895
      7 C7          8.5688   -6.8025   -1.5850 C.ar      1 <0>        -0.1195
      8 C8          9.0540   -3.1144   -0.9401 C.3       1 <0>         0.0973
      9 N1          8.1069   -2.6962    0.1021 N.3       1 <0>        -0.5327
     10 C9          8.3960   -1.3296    0.5587 C.3       1 <0>         0.0238
     11 C10         7.4405   -0.9618    1.6963 C.3       1 <0>         0.0014
     12 N2          6.0537   -1.0737    1.2232 N.4       1 <0>        -0.4009
     13 C11         5.7646   -2.4402    0.7666 C.3       1 <0>        -0.0040
     14 C12         6.7201   -2.8080   -0.3710 C.3       1 <0>         0.0207
     15 C13         5.1066   -0.6554    2.2653 C.3       1 <0>         0.0532
     16 C14         3.7246   -0.5476    1.6742 C.ar      1 <0>        -0.1540
     17 C15         2.8855   -1.6464    1.6768 C.ar      1 <0>        -0.0817
     18 C16         1.6171   -1.5526    1.1353 C.ar      1 <0>        -0.0996
     19 C17         1.1834   -0.3557    0.5885 C.ar      1 <0>         0.0712
     20 C18         2.0284    0.7513    0.5864 C.ar      1 <0>         0.0404
     21 C19         3.2983    0.6500    1.1309 C.ar      1 <0>        -0.0811
     22 O1          1.3764    1.7966   -0.0014 O.3       1 <0>        -0.3033
     23 C20        -0.0175    1.4357    0.0099 C.3       1 <0>         0.2065
     24 O2          0.0021   -0.0041    0.0020 O.3       1 <0>        -0.2946
     25 H1          6.6026   -7.8599   -4.1514 H         1 <0>         0.0686
     26 H2          6.7042   -8.6587   -2.5457 H         1 <0>         0.0744
     27 H3          8.1294   -8.6555   -3.6390 H         1 <0>         0.0758
     28 H4          6.6582   -5.5597   -4.0716 H         1 <0>         0.1251
     29 H5          7.4233   -3.4454   -3.0680 H         1 <0>         0.1174
     30 H6          9.6622   -5.6311   -0.1699 H         1 <0>         0.1256
     31 H7          8.8904   -7.7455   -1.1683 H         1 <0>         0.1267
     32 H8         10.0493   -3.2590   -0.4945 H         1 <0>         0.0988
     33 H9          9.1097   -2.3384   -1.7177 H         1 <0>         0.0549
     34 H10         9.4341   -1.2751    0.9184 H         1 <0>         0.1249
     35 H11         8.2602   -0.6273   -0.2770 H         1 <0>         0.0609
     36 H12         7.5967   -1.6472    2.5424 H         1 <0>         0.1370
     37 H13         7.6363    0.0711    2.0201 H         1 <0>         0.1372
     38 H14         5.9004   -3.1424    1.6023 H         1 <0>         0.1357
     39 H15         4.7265   -2.4947    0.4069 H         1 <0>         0.1346
     40 H16         6.5651   -2.1227   -1.2174 H         1 <0>         0.0587
     41 H17         6.5254   -3.8410   -0.6952 H         1 <0>         0.1288
     42 H18         5.1017   -1.3988    3.0760 H         1 <0>         0.1389
     43 H19         5.4111    0.3225    2.6664 H         1 <0>         0.1406
     44 H20         3.2220   -2.5802    2.1025 H         1 <0>         0.1468
     45 H21         0.9638   -2.4126    1.1387 H         1 <0>         0.1497
     46 H22         3.9558    1.5068    1.1302 H         1 <0>         0.1442
     47 H23        -0.4938    1.8410    0.9148 H         1 <0>         0.0985
     48 H24        -0.5109    1.8506   -0.8814 H         1 <0>         0.1462
     49 H25         5.9317   -0.3960    0.3654 H         1 <0>         0.4375
@<TRIPOS>BOND
     1    1    2 1
     2    1   25 1
     3    1   26 1
     4    1   27 1
     5    2    7 ar
     6    2    3 ar
     7    3    4 ar
     8    3   28 1
     9    4    5 ar
    10    4   29 1
    11    5    6 ar
    12    5    8 1
    13    6    7 ar
    14    6   30 1
    15    7   31 1
    16    8    9 1
    17    8   32 1
    18    8   33 1
    19    9   14 1
    20    9   10 1
    21   10   11 1
    22   10   34 1
    23   10   35 1
    24   11   12 1
    25   11   36 1
    26   11   37 1
    27   12   13 1
    28   12   15 1
    29   12   49 1
    30   13   14 1
    31   13   38 1
    32   13   39 1
    33   14   40 1
    34   14   41 1
    35   15   16 1
    36   15   42 1
    37   15   43 1
    38   16   21 ar
    39   16   17 ar
    40   17   18 ar
    41   17   44 1
    42   18   19 ar
    43   18   45 1
    44   19   24 1
    45   19   20 ar
    46   20   21 ar
    47   20   22 1
    48   21   46 1
    49   22   23 1
    50   23   24 1
    51   23   47 1
    52   23   48 1
@<TRIPOS>MOLECULE
ZINC19536917
   49    52     0     0     0
SMALL
USER_CHARGES
1-(1,3-benzodioxol-5-ylmethyl)-4-(p-tolylmethyl)piperazine
@<TRIPOS>ATOM
      1 C1          7.2593   -8.0765   -3.2959 C.3       1 <0>        -0.1342
      2 C2          7.7275   -6.7824   -2.6817 C.ar      1 <0>        -0.0439
      3 C3          7.3154   -5.5754   -3.2147 C.ar      1 <0>        -0.1180
      4 C4          7.7449   -4.3884   -2.6513 C.ar      1 <0>        -0.0900
      5 C5          8.5858   -4.4084   -1.5543 C.ar      1 <0>        -0.1678
      6 C6          9.0017   -5.6155   -1.0242 C.ar      1 <0>        -0.0886
      7 C7          8.5688   -6.8025   -1.5850 C.ar      1 <0>        -0.1186
      8 C8          9.0540   -3.1144   -0.9401 C.3       1 <0>         0.0485
      9 N1          8.1069   -2.6962    0.1021 N.4       1 <0>        -0.3986
     10 C9          8.3960   -1.3296    0.5587 C.3       1 <0>         0.0011
     11 C10         7.4405   -0.9618    1.6963 C.3       1 <0>         0.0255
     12 N2          6.0537   -1.0737    1.2232 N.3       1 <0>        -0.5351
     13 C11         5.7646   -2.4402    0.7666 C.3       1 <0>         0.0205
     14 C12         6.7201   -2.8080   -0.3710 C.3       1 <0>        -0.0026
     15 C13         5.1066   -0.6554    2.2653 C.3       1 <0>         0.1008
     16 C14         3.7246   -0.5476    1.6742 C.ar      1 <0>        -0.0861
     17 C15         2.8855   -1.6464    1.6768 C.ar      1 <0>        -0.1077
     18 C16         1.6171   -1.5526    1.1353 C.ar      1 <0>        -0.0995
     19 C17         1.1834   -0.3557    0.5885 C.ar      1 <0>         0.0427
     20 C18         2.0284    0.7513    0.5864 C.ar      1 <0>         0.0371
     21 C19         3.2983    0.6500    1.1309 C.ar      1 <0>        -0.0781
     22 O1          1.3764    1.7966   -0.0014 O.3       1 <0>        -0.3081
     23 C20        -0.0175    1.4357    0.0099 C.3       1 <0>         0.2079
     24 O2          0.0021   -0.0041    0.0020 O.3       1 <0>        -0.3018
     25 H1          6.6026   -7.8599   -4.1514 H         1 <0>         0.0743
     26 H2          6.7042   -8.6587   -2.5457 H         1 <0>         0.0810
     27 H3          8.1294   -8.6555   -3.6390 H         1 <0>         0.0820
     28 H4          6.6582   -5.5597   -4.0716 H         1 <0>         0.1351
     29 H5          7.4233   -3.4454   -3.0680 H         1 <0>         0.1299
     30 H6          9.6622   -5.6311   -0.1699 H         1 <0>         0.1305
     31 H7          8.8904   -7.7455   -1.1683 H         1 <0>         0.1348
     32 H8         10.0493   -3.2590   -0.4945 H         1 <0>         0.1372
     33 H9          9.1097   -2.3384   -1.7177 H         1 <0>         0.1327
     34 H10         9.4341   -1.2751    0.9184 H         1 <0>         0.1371
     35 H11         8.2602   -0.6273   -0.2770 H         1 <0>         0.1354
     36 H12         7.5967   -1.6472    2.5424 H         1 <0>         0.0622
     37 H13         7.6363    0.0711    2.0201 H         1 <0>         0.1252
     38 H14         5.9004   -3.1424    1.6023 H         1 <0>         0.0611
     39 H15         4.7265   -2.4947    0.4069 H         1 <0>         0.1260
     40 H16         6.5651   -2.1227   -1.2174 H         1 <0>         0.1329
     41 H17         6.5254   -3.8410   -0.6952 H         1 <0>         0.1374
     42 H18         5.1017   -1.3988    3.0760 H         1 <0>         0.0613
     43 H19         5.4111    0.3225    2.6664 H         1 <0>         0.1005
     44 H20         3.2220   -2.5802    2.1025 H         1 <0>         0.1343
     45 H21         0.9638   -2.4126    1.1387 H         1 <0>         0.1394
     46 H22         3.9558    1.5068    1.1302 H         1 <0>         0.1372
     47 H23        -0.4938    1.8410    0.9148 H         1 <0>         0.0917
     48 H24        -0.5109    1.8506   -0.8814 H         1 <0>         0.1395
     49 H25         8.2289   -3.3740    0.9598 H         1 <0>         0.4363
@<TRIPOS>BOND
     1    1    2 1
     2    1   25 1
     3    1   26 1
     4    1   27 1
     5    2    7 ar
     6    2    3 ar
     7    3    4 ar
     8    3   28 1
     9    4    5 ar
    10    4   29 1
    11    5    6 ar
    12    5    8 1
    13    6    7 ar
    14    6   30 1
    15    7   31 1
    16    8    9 1
    17    8   32 1
    18    8   33 1
    19    9   14 1
    20    9   10 1
    21    9   49 1
    22   10   11 1
    23   10   34 1
    24   10   35 1
    25   11   12 1
    26   11   36 1
    27   11   37 1
    28   12   13 1
    29   12   15 1
    30   13   14 1
    31   13   38 1
    32   13   39 1
    33   14   40 1
    34   14   41 1
    35   15   16 1
    36   15   42 1
    37   15   43 1
    38   16   21 ar
    39   16   17 ar
    40   17   18 ar
    41   17   44 1
    42   18   19 ar
    43   18   45 1
    44   19   24 1
    45   19   20 ar
    46   20   21 ar
    47   20   22 1
    48   21   46 1
    49   22   23 1
    50   23   24 1
    51   23   47 1
    52   23   48 1
@<TRIPOS>MOLECULE
ZINC19536917
   48    51     0     0     0
SMALL
USER_CHARGES
1-(1,3-benzodioxol-5-ylmethyl)-4-(p-tolylmethyl)piperazine
@<TRIPOS>ATOM
      1 C1          7.2593   -8.0765   -3.2959 C.3       1 <0>        -0.1192
      2 C2          7.7275   -6.7824   -2.6817 C.ar      1 <0>        -0.0836
      3 C3          7.3154   -5.5754   -3.2147 C.ar      1 <0>        -0.1213
      4 C4          7.7449   -4.3884   -2.6513 C.ar      1 <0>        -0.1092
      5 C5          8.5858   -4.4084   -1.5543 C.ar      1 <0>        -0.0908
      6 C6          9.0017   -5.6155   -1.0242 C.ar      1 <0>        -0.0945
      7 C7          8.5688   -6.8025   -1.5850 C.ar      1 <0>        -0.1222
      8 C8          9.0540   -3.1144   -0.9401 C.3       1 <0>         0.0934
      9 N1          8.1069   -2.6962    0.1021 N.3       1 <0>        -0.5328
     10 C9          8.3960   -1.3296    0.5587 C.3       1 <0>         0.0553
     11 C10         7.4405   -0.9618    1.6963 C.3       1 <0>         0.0571
     12 N2          6.0537   -1.0737    1.2232 N.3       1 <0>        -0.5345
     13 C11         5.7646   -2.4402    0.7666 C.3       1 <0>         0.0523
     14 C12         6.7201   -2.8080   -0.3710 C.3       1 <0>         0.0539
     15 C13         5.1066   -0.6554    2.2653 C.3       1 <0>         0.0962
     16 C14         3.7246   -0.5476    1.6742 C.ar      1 <0>        -0.0675
     17 C15         2.8855   -1.6464    1.6768 C.ar      1 <0>        -0.1043
     18 C16         1.6171   -1.5526    1.1353 C.ar      1 <0>        -0.0990
     19 C17         1.1834   -0.3557    0.5885 C.ar      1 <0>         0.0308
     20 C18         2.0284    0.7513    0.5864 C.ar      1 <0>         0.0321
     21 C19         3.2983    0.6500    1.1309 C.ar      1 <0>        -0.0793
     22 O1          1.3764    1.7966   -0.0014 O.3       1 <0>        -0.3107
     23 C20        -0.0175    1.4357    0.0099 C.3       1 <0>         0.2090
     24 O2          0.0021   -0.0041    0.0020 O.3       1 <0>        -0.3054
     25 H1          6.6026   -7.8599   -4.1514 H         1 <0>         0.0653
     26 H2          6.7042   -8.6587   -2.5457 H         1 <0>         0.0703
     27 H3          8.1294   -8.6555   -3.6390 H         1 <0>         0.0702
     28 H4          6.6582   -5.5597   -4.0716 H         1 <0>         0.1213
     29 H5          7.4233   -3.4454   -3.0680 H         1 <0>         0.1181
     30 H6          9.6622   -5.6311   -0.1699 H         1 <0>         0.1231
     31 H7          8.8904   -7.7455   -1.1683 H         1 <0>         0.1217
     32 H8         10.0493   -3.2590   -0.4945 H         1 <0>         0.0854
     33 H9          9.1097   -2.3384   -1.7177 H         1 <0>         0.0441
     34 H10         9.4341   -1.2751    0.9184 H         1 <0>         0.0821
     35 H11         8.2602   -0.6273   -0.2770 H         1 <0>         0.0442
     36 H12         7.5967   -1.6472    2.5424 H         1 <0>         0.0453
     37 H13         7.6363    0.0711    2.0201 H         1 <0>         0.0826
     38 H14         5.9004   -3.1424    1.6023 H         1 <0>         0.0432
     39 H15         4.7265   -2.4947    0.4069 H         1 <0>         0.0841
     40 H16         6.5651   -2.1227   -1.2174 H         1 <0>         0.0409
     41 H17         6.5254   -3.8410   -0.6952 H         1 <0>         0.0866
     42 H18         5.1017   -1.3988    3.0760 H         1 <0>         0.0508
     43 H19         5.4111    0.3225    2.6664 H         1 <0>         0.0884
     44 H20         3.2220   -2.5802    2.1025 H         1 <0>         0.1355
     45 H21         0.9638   -2.4126    1.1387 H         1 <0>         0.1360
     46 H22         3.9558    1.5068    1.1302 H         1 <0>         0.1356
     47 H23        -0.4938    1.8410    0.9148 H         1 <0>         0.0859
     48 H24        -0.5109    1.8506   -0.8814 H         1 <0>         0.1339
@<TRIPOS>BOND
     1    1    2 1
     2    1   25 1
     3    1   26 1
     4    1   27 1
     5    2    7 ar
     6    2    3 ar
     7    3    4 ar
     8    3   28 1
     9    4    5 ar
    10    4   29 1
    11    5    6 ar
    12    5    8 1
    13    6    7 ar
    14    6   30 1
    15    7   31 1
    16    8    9 1
    17    8   32 1
    18    8   33 1
    19    9   14 1
    20    9   10 1
    21   10   11 1
    22   10   34 1
    23   10   35 1
    24   11   12 1
    25   11   36 1
    26   11   37 1
    27   12   13 1
    28   12   15 1
    29   13   14 1
    30   13   38 1
    31   13   39 1
    32   14   40 1
    33   14   41 1
    34   15   16 1
    35   15   42 1
    36   15   43 1
    37   16   21 ar
    38   16   17 ar
    39   17   18 ar
    40   17   44 1
    41   18   19 ar
    42   18   45 1
    43   19   24 1
    44   19   20 ar
    45   20   21 ar
    46   20   22 1
    47   21   46 1
    48   22   23 1
    49   23   24 1
    50   23   47 1
    51   23   48 1
@<TRIPOS>MOLECULE
ZINC22441678
   42    43     0     0     0
SMALL
USER_CHARGES

@<TRIPOS>ATOM
      1 C1         -0.0178    1.4648    0.0101 C.3       1 <0>         0.0064
      2 N1          0.0021   -0.0041    0.0020 N.3       1 <0>        -0.5342
      3 C2          0.7062   -0.5275    1.1802 C.3       1 <0>         0.0600
      4 C3          2.1851   -0.1430    1.1032 C.3       1 <0>        -0.0765
      5 C4          2.9074   -0.6800    2.3119 C.ar      1 <0>        -0.0751
      6 C5          3.0004    0.0871    3.4585 C.ar      1 <0>        -0.0999
      7 C6          3.6629   -0.4040    4.5675 C.ar      1 <0>        -0.0944
      8 C7          4.2332   -1.6639    4.5309 C.ar      1 <0>        -0.0323
      9 C8          4.1396   -2.4322    3.3830 C.ar      1 <0>        -0.0293
     10 C9          3.4715   -1.9411    2.2755 C.ar      1 <0>        -0.0947
     11 Cl1         4.8551   -4.0132    3.3353 Cl        1 <0>        -0.0402
     12 Cl2         5.0660   -2.2811    5.9235 Cl        1 <0>        -0.0391
     13 C10        -1.3597   -0.5486   -0.0825 C.3       1 <0>         0.0280
     14 C11        -1.9710   -0.1854   -1.4372 C.3       1 <0>        -0.0056
     15 N2         -3.3327   -0.7299   -1.5217 N.4       1 <0>        -0.3932
     16 C12        -4.2294   -0.0157   -0.5771 C.3       1 <0>        -0.0081
     17 C13        -5.6402   -0.2749   -1.1630 C.3       1 <0>        -0.1455
     18 C14        -5.3979   -0.2116   -2.6885 C.3       1 <0>        -0.1455
     19 C15        -3.8945   -0.4919   -2.8690 C.3       1 <0>        -0.0066
     20 H1          1.0047    1.8421    0.0024 H         1 <0>         0.0870
     21 H2         -0.5450    1.8259   -0.8730 H         1 <0>         0.0693
     22 H3         -0.5280    1.8163    0.9069 H         1 <0>         0.0375
     23 H4          0.2673   -0.1040    2.0837 H         1 <0>         0.0473
     24 H5          0.6139   -1.6133    1.2060 H         1 <0>         0.0839
     25 H6          2.6240   -0.5665    0.1998 H         1 <0>         0.0896
     26 H7          2.2773    0.9428    1.0774 H         1 <0>         0.0819
     27 H8          2.5554    1.0707    3.4873 H         1 <0>         0.1370
     28 H9          3.7359    0.1960    5.4625 H         1 <0>         0.1456
     29 H10         3.3947   -2.5415    1.3811 H         1 <0>         0.1426
     30 H11        -1.3244   -1.6331    0.0212 H         1 <0>         0.0965
     31 H12        -1.9698   -0.1268    0.7163 H         1 <0>         0.0570
     32 H13        -2.0063    0.8991   -1.5409 H         1 <0>         0.1290
     33 H14        -1.3609   -0.6071   -2.2359 H         1 <0>         0.1394
     34 H15        -4.1459   -0.4362    0.4250 H         1 <0>         0.1337
     35 H16        -4.0069    1.0513   -0.5676 H         1 <0>         0.1324
     36 H17        -6.0042   -1.2598   -0.8707 H         1 <0>         0.0985
     37 H18        -6.3365    0.5033   -0.8504 H         1 <0>         0.1166
     38 H19        -5.9885   -0.9736   -3.1973 H         1 <0>         0.1058
     39 H20        -5.6467    0.7785   -3.0704 H         1 <0>         0.1039
     40 H21        -3.4086    0.3697   -3.3270 H         1 <0>         0.1307
     41 H22        -3.7536   -1.3755   -3.4915 H         1 <0>         0.1334
     42 H23        -3.3262   -1.7179   -1.3170 H         1 <0>         0.4272
@<TRIPOS>BOND
     1    1    2 1
     2    1   20 1
     3    1   21 1
     4    1   22 1
     5    2    3 1
     6    2   13 1
     7    3    4 1
     8    3   23 1
     9    3   24 1
    10    4    5 1
    11    4   25 1
    12    4   26 1
    13    5   10 ar
    14    5    6 ar
    15    6    7 ar
    16    6   27 1
    17    7    8 ar
    18    7   28 1
    19    8    9 ar
    20    8   12 1
    21    9   10 ar
    22    9   11 1
    23   10   29 1
    24   13   14 1
    25   13   30 1
    26   13   31 1
    27   14   15 1
    28   14   32 1
    29   14   33 1
    30   15   19 1
    31   15   16 1
    32   15   42 1
    33   16   17 1
    34   16   34 1
    35   16   35 1
    36   17   18 1
    37   17   36 1
    38   17   37 1
    39   18   19 1
    40   18   38 1
    41   18   39 1
    42   19   40 1
    43   19   41 1
@<TRIPOS>MOLECULE
ZINC22441678
   42    43     0     0     0
SMALL
USER_CHARGES

@<TRIPOS>ATOM
      1 C1         -0.0178    1.4648    0.0101 C.3       1 <0>        -0.0585
      2 N1          0.0021   -0.0041    0.0020 N.4       1 <0>        -0.3845
      3 C2         -1.3761   -0.5125    0.0124 C.3       1 <0>        -0.0066
      4 C3         -2.0530   -0.1242    1.3284 C.3       1 <0>        -0.1005
      5 C4         -3.4668   -0.6458    1.3391 C.ar      1 <0>        -0.0921
      6 C5         -4.4947    0.1339    0.8418 C.ar      1 <0>        -0.0932
      7 C6         -5.7918   -0.3431    0.8514 C.ar      1 <0>        -0.0928
      8 C7         -6.0623   -1.6016    1.3585 C.ar      1 <0>        -0.0223
      9 C8         -5.0330   -2.3824    1.8561 C.ar      1 <0>        -0.0306
     10 C9         -3.7344   -1.9054    1.8409 C.ar      1 <0>        -0.0899
     11 Cl1        -5.3708   -3.9615    2.4932 Cl        1 <0>        -0.0298
     12 Cl2        -7.6914   -2.2010    1.3714 Cl        1 <0>        -0.0278
     13 C10         0.6897   -0.4778   -1.2066 C.3       1 <0>        -0.0066
     14 C11         2.1588   -0.0534   -1.1571 C.3       1 <0>         0.0184
     15 N2          2.8464   -0.5271   -2.3657 N.3       1 <0>        -0.5117
     16 C12         2.4362    0.2620   -3.5553 C.3       1 <0>         0.0248
     17 C13         3.5870    0.0103   -4.5617 C.3       1 <0>        -0.1260
     18 C14         4.8391   -0.0167   -3.6554 C.3       1 <0>        -0.1358
     19 C15         4.3097   -0.3476   -2.2478 C.3       1 <0>         0.0373
     20 H1          1.0047    1.8421    0.0024 H         1 <0>         0.1243
     21 H2         -0.5450    1.8259   -0.8730 H         1 <0>         0.1240
     22 H3         -0.5280    1.8163    0.9069 H         1 <0>         0.1274
     23 H4         -1.9290   -0.0808   -0.8218 H         1 <0>         0.1335
     24 H5         -1.3635   -1.5983   -0.0831 H         1 <0>         0.1351
     25 H6         -1.5001   -0.5559    2.1627 H         1 <0>         0.1008
     26 H7         -2.0656    0.9616    1.4240 H         1 <0>         0.1017
     27 H8         -4.2839    1.1163    0.4459 H         1 <0>         0.1409
     28 H9         -6.5943    0.2667    0.4635 H         1 <0>         0.1503
     29 H10        -2.9305   -2.5156    2.2252 H         1 <0>         0.1451
     30 H11         0.6270   -1.5648   -1.2578 H         1 <0>         0.1407
     31 H12         0.2158   -0.0447   -2.0875 H         1 <0>         0.1292
     32 H13         2.2214    1.0336   -1.1059 H         1 <0>         0.0600
     33 H14         2.6326   -0.4865   -0.2761 H         1 <0>         0.0962
     34 H15         1.4901   -0.1052   -3.9530 H         1 <0>         0.0862
     35 H16         2.3657    1.3214   -3.3086 H         1 <0>         0.0511
     36 H17         3.4555   -0.9469   -5.0665 H         1 <0>         0.0808
     37 H18         3.6517    0.8232   -5.2849 H         1 <0>         0.0797
     38 H19         5.5319   -0.7887   -3.9903 H         1 <0>         0.0811
     39 H20         5.3278    0.9576   -3.6564 H         1 <0>         0.0732
     40 H21         4.5293    0.4738   -1.5658 H         1 <0>         0.0512
     41 H22         4.7686   -1.2675   -1.8852 H         1 <0>         0.0895
     42 H23         0.4901   -0.3383    0.8195 H         1 <0>         0.4260
@<TRIPOS>BOND
     1    1    2 1
     2    1   20 1
     3    1   21 1
     4    1   22 1
     5    2    3 1
     6    2   13 1
     7    2   42 1
     8    3    4 1
     9    3   23 1
    10    3   24 1
    11    4    5 1
    12    4   25 1
    13    4   26 1
    14    5   10 ar
    15    5    6 ar
    16    6    7 ar
    17    6   27 1
    18    7    8 ar
    19    7   28 1
    20    8    9 ar
    21    8   12 1
    22    9   10 ar
    23    9   11 1
    24   10   29 1
    25   13   14 1
    26   13   30 1
    27   13   31 1
    28   14   15 1
    29   14   32 1
    30   14   33 1
    31   15   19 1
    32   15   16 1
    33   16   17 1
    34   16   34 1
    35   16   35 1
    36   17   18 1
    37   17   36 1
    38   17   37 1
    39   18   19 1
    40   18   38 1
    41   18   39 1
    42   19   40 1
    43   19   41 1
@<TRIPOS>MOLECULE
ZINC03874851
   43    44     0     0     0
SMALL
USER_CHARGES
1-phenyl-N-(3-phenylpropyl)propan-2-amine
@<TRIPOS>ATOM
      1 C1          1.0674    2.0839   -2.7725 C.3       1 <0>        -0.1819
      2 C2         -0.0624    1.1171   -2.4126 C.3       1 <0>         0.0337
      3 H1          0.3487    0.1198   -2.2565 H         1 <0>         0.1396
      4 C3         -1.0812    1.0760   -3.5533 C.3       1 <0>        -0.1018
      5 C4         -2.1284    0.0344   -3.2542 C.ar      1 <0>        -0.1257
      6 C5         -1.9502   -1.2678   -3.6826 C.ar      1 <0>        -0.1054
      7 C6         -2.9086   -2.2243   -3.4041 C.ar      1 <0>        -0.1040
      8 C7         -4.0500   -1.8764   -2.7063 C.ar      1 <0>        -0.1049
      9 C8         -4.2306   -0.5731   -2.2824 C.ar      1 <0>        -0.1051
     10 C9         -3.2699    0.3823   -2.5564 C.ar      1 <0>        -0.1463
     11 C10        -0.0127    1.0858    0.0080 C.3       1 <0>        -0.0069
     12 C11        -0.7288    1.5792    1.2668 C.3       1 <0>        -0.1452
     13 C12         0.0111    1.0724    2.5063 C.3       1 <0>        -0.0725
     14 C13        -0.6942    1.5584    3.7462 C.ar      1 <0>        -0.1010
     15 C14        -0.3360    2.7654    4.3169 C.ar      1 <0>        -0.1154
     16 C15        -0.9864    3.2135    5.4515 C.ar      1 <0>        -0.1155
     17 C16        -1.9880    2.4498    6.0211 C.ar      1 <0>        -0.1131
     18 C17        -2.3423    1.2401    5.4536 C.ar      1 <0>        -0.1155
     19 C18        -1.6956    0.7945    4.3161 C.ar      1 <0>        -0.1155
     20 H2          1.5577    1.7461   -3.6855 H         1 <0>         0.1076
     21 H3          0.6563    3.0813   -2.9286 H         1 <0>         0.0834
     22 H4          1.7932    2.1132   -1.9598 H         1 <0>         0.0826
     23 H5         -1.5569    2.0518   -3.6510 H         1 <0>         0.0977
     24 H6         -0.5739    0.8242   -4.4846 H         1 <0>         0.1211
     25 H7         -1.0606   -1.5386   -4.2317 H         1 <0>         0.1300
     26 H8         -2.7676   -3.2425   -3.7356 H         1 <0>         0.1329
     27 H9         -4.8008   -2.6227   -2.4925 H         1 <0>         0.1326
     28 H10        -5.1226   -0.3012   -1.7375 H         1 <0>         0.1321
     29 H11        -3.4112    1.4006   -2.2255 H         1 <0>         0.1216
     30 H12         0.0021   -0.0041    0.0020 H         1 <0>         0.1306
     31 H13         1.0099    1.4631    0.0003 H         1 <0>         0.1326
     32 H14        -0.7436    2.6691    1.2728 H         1 <0>         0.0891
     33 H15        -1.7514    1.2020    1.2746 H         1 <0>         0.0877
     34 H16         0.0259   -0.0175    2.5003 H         1 <0>         0.0828
     35 H17         1.0337    1.4497    2.4986 H         1 <0>         0.0833
     36 H18         0.4493    3.3601    3.8743 H         1 <0>         0.1215
     37 H19        -0.7093    4.1584    5.8951 H         1 <0>         0.1262
     38 H20        -2.4936    2.7981    6.9096 H         1 <0>         0.1266
     39 H21        -3.1246    0.6433    5.8988 H         1 <0>         0.1261
     40 H22        -1.9724   -0.1506    3.8727 H         1 <0>         0.1212
     41 N1         -0.7320    1.5785   -1.1818 N.4       1 <0>        -0.5223
     42 H23        -1.6952    1.2230   -1.1667 H         1 <0>         0.4265
     43 H24        -0.7459    2.6050   -1.1683 H         1 <0>         0.4288
@<TRIPOS>BOND
     1    1    2 1
     2    1   20 1
     3    1   21 1
     4    1   22 1
     5    2    3 1
     6    2    4 1
     7    2   41 1
     8    4    5 1
     9    4   23 1
    10    4   24 1
    11    5   10 ar
    12    5    6 ar
    13    6    7 ar
    14    6   25 1
    15    7    8 ar
    16    7   26 1
    17    8    9 ar
    18    8   27 1
    19    9   10 ar
    20    9   28 1
    21   10   29 1
    22   11   12 1
    23   11   30 1
    24   11   31 1
    25   11   41 1
    26   12   13 1
    27   12   32 1
    28   12   33 1
    29   13   14 1
    30   13   34 1
    31   13   35 1
    32   14   19 ar
    33   14   15 ar
    34   15   16 ar
    35   15   36 1
    36   16   17 ar
    37   16   37 1
    38   17   18 ar
    39   17   38 1
    40   18   19 ar
    41   18   39 1
    42   19   40 1
    43   41   42 1
    44   41   43 1
@<TRIPOS>MOLECULE
ZINC00359757
   45    47     0     0     0
SMALL
USER_CHARGES

@<TRIPOS>ATOM
      1 C1         -0.0166    1.3781    0.0209 C.ar      1 <0>        -0.1100
      2 C2          1.1712    2.0853    0.0286 C.ar      1 <0>        -0.1129
      3 C3          2.3775    1.4105    0.0150 C.ar      1 <0>        -0.1099
      4 C4          2.3962    0.0284   -0.0059 C.ar      1 <0>        -0.0968
      5 C5          1.2085   -0.6788   -0.0127 C.ar      1 <0>        -0.1164
      6 C6          0.0021   -0.0040   -0.0005 C.ar      1 <0>        -0.1144
      7 C7          3.7113   -0.7072   -0.0218 C.3       1 <0>        -0.0531
      8 C8          3.7971   -1.5757   -1.2802 C.3       1 <0>        -0.1373
      9 C9          5.0987   -2.3798   -1.2505 C.3       1 <0>        -0.0148
     10 N1          5.1211   -3.2377   -0.0597 N.4       1 <0>        -0.3775
     11 C10         5.1115   -2.4087    1.1516 C.3       1 <0>        -0.0096
     12 C11         3.8104   -1.6057    1.2144 C.3       1 <0>        -0.1387
     13 C12         6.3355   -4.0641   -0.0761 C.3       1 <0>         0.0362
     14 H1          6.4046   -4.6269    0.8548 H         1 <0>         0.1424
     15 C13         7.5636   -3.1630   -0.2197 C.3       1 <0>        -0.1415
     16 C14         8.8285   -4.0237   -0.2368 C.3       1 <0>        -0.1204
     17 C15         8.7681   -4.9955   -1.4170 C.3       1 <0>        -0.1286
     18 C16         7.5400   -5.8966   -1.2734 C.3       1 <0>        -0.1509
     19 C17         6.2752   -5.0359   -1.2563 C.3       1 <0>         0.0885
     20 H2          6.2061   -4.4731   -2.1872 H         1 <0>         0.0791
     21 O1          5.1281   -5.8774   -1.1222 O.3       1 <0>        -0.5751
     22 H3         -0.9590    1.9052    0.0361 H         1 <0>         0.1276
     23 H4          1.1566    3.1651    0.0449 H         1 <0>         0.1278
     24 H5          3.3054    1.9631    0.0203 H         1 <0>         0.1235
     25 H6          1.2230   -1.7586   -0.0294 H         1 <0>         0.1179
     26 H7         -0.9258   -0.5565   -0.0062 H         1 <0>         0.1264
     27 H8          4.5310    0.0113   -0.0167 H         1 <0>         0.0954
     28 H9          2.9480   -2.2585   -1.3098 H         1 <0>         0.0900
     29 H10         3.7833   -0.9381   -2.1641 H         1 <0>         0.1134
     30 H11         5.1631   -2.9991   -2.1452 H         1 <0>         0.1288
     31 H12         5.9471   -1.6961   -1.2212 H         1 <0>         0.1313
     32 H13         5.1853   -3.0494    2.0303 H         1 <0>         0.1312
     33 H14         5.9596   -1.7244    1.1297 H         1 <0>         0.1297
     34 H15         3.8060   -0.9896    2.1135 H         1 <0>         0.1145
     35 H16         2.9616   -2.2892    1.2366 H         1 <0>         0.0901
     36 H17         7.4945   -2.6002   -1.1506 H         1 <0>         0.0904
     37 H18         7.6066   -2.4707    0.6211 H         1 <0>         0.0943
     38 H19         9.7034   -3.3817   -0.3391 H         1 <0>         0.0885
     39 H20         8.8976   -4.5865    0.6941 H         1 <0>         0.0770
     40 H21         8.6990   -4.4327   -2.3479 H         1 <0>         0.0718
     41 H22         9.6692   -5.6087   -1.4292 H         1 <0>         0.0841
     42 H23         7.4970   -6.5889   -2.1142 H         1 <0>         0.0873
     43 H24         7.6091   -6.4594   -0.3425 H         1 <0>         0.0837
     44 H25         5.0261   -6.5203   -1.8374 H         1 <0>         0.4073
     45 H26         4.3091   -3.8366   -0.0626 H         1 <0>         0.4297
@<TRIPOS>BOND
     1    1    6 ar
     2    1    2 ar
     3    1   22 1
     4    2    3 ar
     5    2   23 1
     6    3    4 ar
     7    3   24 1
     8    4    5 ar
     9    4    7 1
    10    5    6 ar
    11    5   25 1
    12    6   26 1
    13    7   12 1
    14    7    8 1
    15    7   27 1
    16    8    9 1
    17    8   28 1
    18    8   29 1
    19    9   10 1
    20    9   30 1
    21    9   31 1
    22   10   11 1
    23   10   13 1
    24   10   45 1
    25   11   12 1
    26   11   32 1
    27   11   33 1
    28   12   34 1
    29   12   35 1
    30   13   14 1
    31   13   19 1
    32   13   15 1
    33   15   16 1
    34   15   36 1
    35   15   37 1
    36   16   17 1
    37   16   38 1
    38   16   39 1
    39   17   18 1
    40   17   40 1
    41   17   41 1
    42   18   19 1
    43   18   42 1
    44   18   43 1
    45   19   20 1
    46   19   21 1
    47   21   44 1
@<TRIPOS>MOLECULE
ZINC02033994
   40    41     0     0     0
SMALL
USER_CHARGES
N-phenethyl-1-phenyl-propan-2-amine
@<TRIPOS>ATOM
      1 C1         -4.1908   -0.1776    1.4654 C.3       1 <0>        -0.1820
      2 C2         -2.9450    0.7107    1.4624 C.3       1 <0>         0.0338
      3 H1         -2.1383    0.2069    1.9949 H         1 <0>         0.1394
      4 C3         -2.5137    0.9795    0.0193 C.3       1 <0>        -0.1015
      5 C4         -1.2190    1.7506    0.0173 C.ar      1 <0>        -0.1251
      6 C5         -0.0126    1.0758    0.0080 C.ar      1 <0>        -0.1057
      7 C6          1.1750    1.7832    0.0004 C.ar      1 <0>        -0.1036
      8 C7          1.1563    3.1654    0.0076 C.ar      1 <0>        -0.1052
      9 C8         -0.0501    3.8402    0.0223 C.ar      1 <0>        -0.1049
     10 C9         -1.2377    3.1328    0.0299 C.ar      1 <0>        -0.1471
     11 C10        -3.0884    1.8703    3.5832 C.3       1 <0>        -0.0023
     12 C11        -3.4143    3.2134    4.2394 C.3       1 <0>        -0.1010
     13 C12        -3.2482    3.0963    5.7327 C.ar      1 <0>        -0.1083
     14 C13        -4.3203    2.7200    6.5200 C.ar      1 <0>        -0.1100
     15 C14        -4.1666    2.6079    7.8892 C.ar      1 <0>        -0.1142
     16 C15        -2.9435    2.8818    8.4722 C.ar      1 <0>        -0.1041
     17 C16        -1.8729    3.2636    7.6854 C.ar      1 <0>        -0.1140
     18 C17        -2.0252    3.3707    6.3157 C.ar      1 <0>        -0.1100
     19 H2         -3.9642   -1.1227    0.9718 H         1 <0>         0.1077
     20 H3         -4.4980   -0.3691    2.4935 H         1 <0>         0.0825
     21 H4         -4.9975    0.3261    0.9329 H         1 <0>         0.0837
     22 H5         -3.2837    1.5610   -0.4877 H         1 <0>         0.0981
     23 H6         -2.3729    0.0317   -0.5003 H         1 <0>         0.1212
     24 H7          0.0021   -0.0041    0.0020 H         1 <0>         0.1299
     25 H8          2.1175    1.2560   -0.0115 H         1 <0>         0.1329
     26 H9          2.0841    3.7181    0.0014 H         1 <0>         0.1326
     27 H10        -0.0647    4.9201    0.0276 H         1 <0>         0.1322
     28 H11        -2.1802    3.6600    0.0410 H         1 <0>         0.1218
     29 H12        -3.7648    1.1056    3.9651 H         1 <0>         0.1331
     30 H13        -2.0596    1.5934    3.8137 H         1 <0>         0.1310
     31 H14        -2.7379    3.9781    3.8575 H         1 <0>         0.0941
     32 H15        -4.4430    3.4903    4.0089 H         1 <0>         0.0956
     33 H16        -5.2770    2.5100    6.0650 H         1 <0>         0.1243
     34 H17        -5.0032    2.3100    8.5039 H         1 <0>         0.1296
     35 H18        -2.8244    2.7979    9.5423 H         1 <0>         0.1298
     36 H19        -0.9174    3.4780    8.1409 H         1 <0>         0.1294
     37 H20        -1.1887    3.6690    5.7010 H         1 <0>         0.1237
     38 N1         -3.2533    1.9934    2.1225 N.4       1 <0>        -0.5225
     39 H21        -4.2228    2.2580    1.9122 H         1 <0>         0.4288
     40 H22        -2.6167    2.7175    1.7696 H         1 <0>         0.4263
@<TRIPOS>BOND
     1    1    2 1
     2    1   19 1
     3    1   20 1
     4    1   21 1
     5    2    3 1
     6    2    4 1
     7    2   38 1
     8    4    5 1
     9    4   22 1
    10    4   23 1
    11    5   10 ar
    12    5    6 ar
    13    6    7 ar
    14    6   24 1
    15    7    8 ar
    16    7   25 1
    17    8    9 ar
    18    8   26 1
    19    9   10 ar
    20    9   27 1
    21   10   28 1
    22   11   12 1
    23   11   29 1
    24   11   30 1
    25   11   38 1
    26   12   13 1
    27   12   31 1
    28   12   32 1
    29   13   18 ar
    30   13   14 ar
    31   14   15 ar
    32   14   33 1
    33   15   16 ar
    34   15   34 1
    35   16   17 ar
    36   16   35 1
    37   17   18 ar
    38   17   36 1
    39   18   37 1
    40   38   39 1
    41   38   40 1
@<TRIPOS>MOLECULE
ZINC01634175
   35    37     0     0     0
SMALL
USER_CHARGES
2-benzyl-3,4-dihydro-1H-isoquinoline
@<TRIPOS>ATOM
      1 C1         -1.2190    1.7506    0.0173 C.ar      1 <0>        -0.0836
      2 C2         -0.0126    1.0758    0.0080 C.ar      1 <0>        -0.1131
      3 C3          1.1750    1.7832    0.0004 C.ar      1 <0>        -0.0936
      4 C4          1.1563    3.1654    0.0081 C.ar      1 <0>        -0.1642
      5 C5         -0.0501    3.8402    0.0228 C.ar      1 <0>        -0.0966
      6 C6         -1.2377    3.1328    0.0290 C.ar      1 <0>        -0.1137
      7 C7          2.4510    3.9366    0.0008 C.3       1 <0>         0.0499
      8 C8          4.2197    4.7538   -1.4403 C.3       1 <0>         0.0006
      9 C9          4.7271    4.6574   -2.8794 C.3       1 <0>        -0.1070
     10 C10         3.7037    5.2320   -3.8250 C.ar      1 <0>        -0.0921
     11 C11         4.1035    5.5618   -5.1113 C.ar      1 <0>        -0.1051
     12 C12         3.1970    6.0864   -6.0104 C.ar      1 <0>        -0.0933
     13 C13         1.8836    6.2841   -5.6265 C.ar      1 <0>        -0.1048
     14 C14         1.4851    5.9577   -4.3461 C.ar      1 <0>        -0.0942
     15 C15         2.3952    5.4315   -3.4408 C.ar      1 <0>        -0.1323
     16 C16         1.9137    5.0946   -2.0539 C.3       1 <0>         0.0488
     17 H1         -2.1469    1.1980    0.0188 H         1 <0>         0.1361
     18 H2          0.0021   -0.0041    0.0020 H         1 <0>         0.1363
     19 H3          2.1175    1.2560   -0.0111 H         1 <0>         0.1314
     20 H4         -0.0647    4.9201    0.0291 H         1 <0>         0.1306
     21 H5         -2.1802    3.6601    0.0401 H         1 <0>         0.1363
     22 H6          2.3123    4.8843    0.5211 H         1 <0>         0.1374
     23 H7          3.2231    3.3551    0.5048 H         1 <0>         0.1381
     24 H8          4.1990    5.7980   -1.1285 H         1 <0>         0.1337
     25 H9          4.8759    4.1848   -0.7817 H         1 <0>         0.1369
     26 H10         4.9057    3.6120   -3.1310 H         1 <0>         0.1029
     27 H11         5.6586    5.2160   -2.9713 H         1 <0>         0.1230
     28 H12         5.1294    5.4070   -5.4113 H         1 <0>         0.1347
     29 H13         3.5130    6.3421   -7.0110 H         1 <0>         0.1366
     30 H14         1.1707    6.6929   -6.3274 H         1 <0>         0.1371
     31 H15         0.4589    6.1128   -4.0472 H         1 <0>         0.1333
     32 H16         0.9400    4.6090   -2.1192 H         1 <0>         0.1358
     33 H17         1.8192    6.0122   -1.4732 H         1 <0>         0.1369
     34 N1          2.8613    4.1756   -1.4014 N.4       1 <0>        -0.3917
     35 H18         2.8629    3.2814   -1.9060 H         1 <0>         0.4290
@<TRIPOS>BOND
     1    1    6 ar
     2    1    2 ar
     3    1   17 1
     4    2    3 ar
     5    2   18 1
     6    3    4 ar
     7    3   19 1
     8    4    5 ar
     9    4    7 1
    10    5    6 ar
    11    5   20 1
    12    6   21 1
    13    7   22 1
    14    7   23 1
    15    7   34 1
    16    8    9 1
    17    8   24 1
    18    8   25 1
    19    8   34 1
    20    9   10 1
    21    9   26 1
    22    9   27 1
    23   10   15 ar
    24   10   11 ar
    25   11   12 ar
    26   11   28 1
    27   12   13 ar
    28   12   29 1
    29   13   14 ar
    30   13   30 1
    31   14   15 ar
    32   14   31 1
    33   15   16 1
    34   16   32 1
    35   16   33 1
    36   16   34 1
    37   34   35 1
@<TRIPOS>MOLECULE
ZINC11597113
   34    35     0     0     0
SMALL
USER_CHARGES
(1S)-1-isobutyl-1,2,3,4-tetrahydroisoquinoline
@<TRIPOS>ATOM
      1 C1         -1.1736   -4.6887    1.7224 C.3       1 <0>        -0.1543
      2 C2         -0.1032   -4.1933    0.7479 C.3       1 <0>        -0.1046
      3 C3         -0.4693   -4.6241   -0.6739 C.3       1 <0>        -0.1636
      4 C4         -0.0212   -2.6669    0.8131 C.3       1 <0>        -0.1425
      5 C5          1.1433   -2.1813   -0.0524 C.3       1 <0>         0.0836
      6 H1          1.0038   -2.5356   -1.0738 H         1 <0>         0.1464
      7 C6          1.1715   -0.6754   -0.0481 C.ar      1 <0>        -0.1277
      8 C7         -0.0302    0.0081   -0.1642 C.ar      1 <0>        -0.0934
      9 C8         -0.0501    1.3880   -0.1748 C.ar      1 <0>        -0.1052
     10 C9          1.1336    2.0946   -0.0687 C.ar      1 <0>        -0.0917
     11 C10         2.3299    1.4162    0.0490 C.ar      1 <0>        -0.1054
     12 C11         2.3508    0.0297    0.0612 C.ar      1 <0>        -0.0906
     13 C12         3.6799   -0.6680    0.1967 C.3       1 <0>        -0.1072
     14 C13         3.5469   -2.1307   -0.2282 C.3       1 <0>         0.0007
     15 H2         -1.2604   -5.7726    1.6466 H         1 <0>         0.0680
     16 H3         -0.8923   -4.4171    2.7399 H         1 <0>         0.0614
     17 H4         -2.1306   -4.2293    1.4752 H         1 <0>         0.0656
     18 H5          0.8618   -4.6210    1.0200 H         1 <0>         0.0627
     19 H6          0.2933   -4.2712   -1.3681 H         1 <0>         0.0519
     20 H7         -0.5277   -5.7116   -0.7203 H         1 <0>         0.0710
     21 H8         -1.4342   -4.1965   -0.9460 H         1 <0>         0.0696
     22 H9          0.1387   -2.3554    1.8453 H         1 <0>         0.0926
     23 H10        -0.9523   -2.2370    0.4439 H         1 <0>         0.1150
     24 H11        -0.9554   -0.5429   -0.2472 H         1 <0>         0.1346
     25 H12        -0.9880    1.9149   -0.2702 H         1 <0>         0.1374
     26 H13         1.1222    3.1745   -0.0782 H         1 <0>         0.1369
     27 H14         3.2545    1.9682    0.1323 H         1 <0>         0.1349
     28 H15         4.4151   -0.1724   -0.4372 H         1 <0>         0.1228
     29 H16         4.0090   -0.6212    1.2348 H         1 <0>         0.1037
     30 H17         3.3814   -2.1858   -1.3042 H         1 <0>         0.1329
     31 H18         4.4559   -2.6722    0.0336 H         1 <0>         0.1403
     32 N1          2.3994   -2.7238    0.4835 N.4       1 <0>        -0.5134
     33 H19         2.4109   -3.7428    0.3583 H         1 <0>         0.4352
     34 H20         2.4670   -2.5011    1.4836 H         1 <0>         0.4326
@<TRIPOS>BOND
     1    1    2 1
     2    1   15 1
     3    1   16 1
     4    1   17 1
     5    2    3 1
     6    2    4 1
     7    2   18 1
     8    3   19 1
     9    3   20 1
    10    3   21 1
    11    4    5 1
    12    4   22 1
    13    4   23 1
    14    5    6 1
    15    5    7 1
    16    5   32 1
    17    7   12 ar
    18    7    8 ar
    19    8    9 ar
    20    8   24 1
    21    9   10 ar
    22    9   25 1
    23   10   11 ar
    24   10   26 1
    25   11   12 ar
    26   11   27 1
    27   12   13 1
    28   13   14 1
    29   13   28 1
    30   13   29 1
    31   14   30 1
    32   14   31 1
    33   14   32 1
    34   32   33 1
    35   32   34 1
@<TRIPOS>MOLECULE
ZINC11597116
   34    35     0     0     0
SMALL
USER_CHARGES
(1R)-1-isobutyl-1,2,3,4-tetrahydroisoquinoline
@<TRIPOS>ATOM
      1 C1         -0.6927    1.8587    3.8229 C.3       1 <0>        -0.1535
      2 C2         -0.0806    1.3796    2.5050 C.3       1 <0>        -0.0998
      3 C3         -0.1655   -0.1461    2.4281 C.3       1 <0>        -0.1719
      4 C4         -0.8493    1.9930    1.3329 C.3       1 <0>        -0.1453
      5 C5         -0.1273    1.6683    0.0237 C.3       1 <0>         0.0854
      6 H1         -0.6084    2.2044   -0.7944 H         1 <0>         0.1466
      7 C6         -0.2105    0.1869   -0.2358 C.ar      1 <0>        -0.1171
      8 C7         -1.4165   -0.4578   -0.0014 C.ar      1 <0>        -0.0901
      9 C8         -1.5390   -1.8134   -0.2294 C.ar      1 <0>        -0.1063
     10 C9         -0.4545   -2.5344   -0.6938 C.ar      1 <0>        -0.0925
     11 C10         0.7466   -1.8948   -0.9258 C.ar      1 <0>        -0.1049
     12 C11         0.8710   -0.5329   -0.6960 C.ar      1 <0>        -0.0952
     13 C12         2.2029    0.1217   -0.9593 C.3       1 <0>        -0.1076
     14 C13         2.0296    1.6380   -1.0520 C.3       1 <0>         0.0003
     15 H2         -1.7369    1.5500    3.8719 H         1 <0>         0.0660
     16 H3         -0.1450    1.4217    4.6579 H         1 <0>         0.0669
     17 H4         -0.6321    2.9456    3.8777 H         1 <0>         0.0615
     18 H5          0.9636    1.6883    2.4560 H         1 <0>         0.0568
     19 H6          0.4236   -0.5006    1.5823 H         1 <0>         0.0670
     20 H7          0.2246   -0.5786    3.3494 H         1 <0>         0.0629
     21 H8         -1.2053   -0.4460    2.2977 H         1 <0>         0.0700
     22 H9         -0.9031    3.0743    1.4597 H         1 <0>         0.0955
     23 H10        -1.8576    1.5800    1.3039 H         1 <0>         0.1152
     24 H11        -2.2643    0.1045    0.3611 H         1 <0>         0.1341
     25 H12        -2.4800   -2.3102   -0.0450 H         1 <0>         0.1363
     26 H13        -0.5469   -3.5951   -0.8749 H         1 <0>         0.1358
     27 H14         1.5937   -2.4580   -1.2886 H         1 <0>         0.1339
     28 H15         2.8895   -0.1151   -0.1465 H         1 <0>         0.1022
     29 H16         2.6108   -0.2527   -1.8982 H         1 <0>         0.1229
     30 H17         3.0080    2.1182   -1.0665 H         1 <0>         0.1396
     31 H18         1.4847    1.8893   -1.9620 H         1 <0>         0.1339
     32 N1          1.2743    2.0970    0.1286 N.4       1 <0>        -0.5157
     33 H19         1.6907    1.6948    0.9766 H         1 <0>         0.4301
     34 H20         1.3139    3.1217    0.1808 H         1 <0>         0.4371
@<TRIPOS>BOND
     1    1    2 1
     2    1   15 1
     3    1   16 1
     4    1   17 1
     5    2    3 1
     6    2    4 1
     7    2   18 1
     8    3   19 1
     9    3   20 1
    10    3   21 1
    11    4    5 1
    12    4   22 1
    13    4   23 1
    14    5    6 1
    15    5    7 1
    16    5   32 1
    17    7   12 ar
    18    7    8 ar
    19    8    9 ar
    20    8   24 1
    21    9   10 ar
    22    9   25 1
    23   10   11 ar
    24   10   26 1
    25   11   12 ar
    26   11   27 1
    27   12   13 1
    28   13   14 1
    29   13   28 1
    30   13   29 1
    31   14   30 1
    32   14   31 1
    33   14   32 1
    34   32   33 1
    35   32   34 1
@<TRIPOS>MOLECULE
ZINC19624649
   31    33     0     0     0
SMALL
USER_CHARGES
(1S)-1-(4-fluorophenyl)-1,2,3,4-tetrahydroisoquinoline
@<TRIPOS>ATOM
      1 C1          1.2026   -0.6852   -0.0089 C.ar      1 <0>        -0.1154
      2 C2          2.3927    0.0186   -0.0126 C.ar      1 <0>        -0.1235
      3 C3          2.3750    1.3987   -0.0072 C.ar      1 <0>        -0.1085
      4 C4          1.1693    2.0848    0.0021 C.ar      1 <0>        -0.0761
      5 C5         -0.0167    1.3825    0.0096 C.ar      1 <0>        -0.0664
      6 C6          0.0021   -0.0041    0.0020 C.ar      1 <0>        -0.1226
      7 C7         -1.3508    2.0834    0.0324 C.3       1 <0>        -0.0810
      8 C8         -1.1789    3.5458   -0.3803 C.3       1 <0>         0.0459
      9 N1         -0.0937    4.1327    0.4218 N.3       1 <0>        -0.6644
     10 C9          1.2012    3.5907   -0.0018 C.3       1 <0>         0.1624
     11 H1          1.3906    3.9528   -1.0231 H         1 <0>         0.0611
     12 C10         2.2734    4.0679    0.9435 C.ar      1 <0>        -0.0877
     13 C11         2.0254    4.1137    2.3027 C.ar      1 <0>        -0.0541
     14 C12         3.0099    4.5458    3.1711 C.ar      1 <0>        -0.1571
     15 C13         4.2409    4.9441    2.6782 C.ar      1 <0>         0.0999
     16 C14         4.4862    4.9032    1.3161 C.ar      1 <0>        -0.1555
     17 C15         3.5023    4.4649    0.4502 C.ar      1 <0>        -0.0874
     18 F1          5.2018    5.3728    3.5256 F         1 <0>        -0.1399
     19 H2          1.2123   -1.7651   -0.0141 H         1 <0>         0.1226
     20 H3          3.3342   -0.5104   -0.0193 H         1 <0>         0.1225
     21 H4          3.3051    1.9475   -0.0100 H         1 <0>         0.1215
     22 H5         -0.9275   -0.5539    0.0050 H         1 <0>         0.1221
     23 H6         -2.0377    1.5873   -0.6691 H         1 <0>         0.0791
     24 H7         -1.7702    2.0405    1.0484 H         1 <0>         0.0855
     25 H8         -0.9258    3.5977   -1.4495 H         1 <0>         0.0379
     26 H9         -2.1170    4.0908   -0.1987 H         1 <0>         0.0858
     27 H10        -0.0877    5.2245    0.2875 H         1 <0>         0.3505
     28 H11         1.0634    3.8078    2.6865 H         1 <0>         0.1406
     29 H12         2.8173    4.5776    4.2333 H         1 <0>         0.1355
     30 H13         5.4460    5.2140    0.9305 H         1 <0>         0.1358
     31 H14         3.6935    4.4329   -0.6122 H         1 <0>         0.1309
@<TRIPOS>BOND
     1    1    6 ar
     2    1    2 ar
     3    1   19 1
     4    2    3 ar
     5    2   20 1
     6    3    4 ar
     7    3   21 1
     8    4   10 1
     9    4    5 ar
    10    5    6 ar
    11    5    7 1
    12    6   22 1
    13    7    8 1
    14    7   23 1
    15    7   24 1
    16    8    9 1
    17    8   25 1
    18    8   26 1
    19    9   10 1
    20    9   27 1
    21   10   11 1
    22   10   12 1
    23   12   17 ar
    24   12   13 ar
    25   13   14 ar
    26   13   28 1
    27   14   15 ar
    28   14   29 1
    29   15   16 ar
    30   15   18 1
    31   16   17 ar
    32   16   30 1
    33   17   31 1
@<TRIPOS>MOLECULE
ZINC19624653
   31    33     0     0     0
SMALL
USER_CHARGES
(1R)-1-(4-fluorophenyl)-1,2,3,4-tetrahydroisoquinoline
@<TRIPOS>ATOM
      1 C1         -1.2184    1.7522    0.0173 C.ar      1 <0>        -0.1148
      2 C2         -0.0126    1.0758    0.0080 C.ar      1 <0>        -0.1220
      3 C3          1.1723    1.7834    0.0004 C.ar      1 <0>        -0.1048
      4 C4          1.1610    3.1707    0.0057 C.ar      1 <0>        -0.1126
      5 C5         -0.0414    3.8444    0.0178 C.ar      1 <0>        -0.0772
      6 C6         -1.2314    3.1324    0.0281 C.ar      1 <0>        -0.1192
      7 C7         -0.1046    5.3502    0.0176 C.3       1 <0>        -0.1217
      8 C8          1.2517    5.9295    0.4208 C.3       1 <0>         0.0446
      9 N1          2.2938    5.2957   -0.4026 N.3       1 <0>        -0.6558
     10 C9          2.4798    3.8984    0.0013 C.3       1 <0>         0.1591
     11 H1          2.9011    3.9036    1.0174 H         1 <0>         0.1028
     12 C10         3.4189    3.2218   -0.9637 C.ar      1 <0>        -0.0767
     13 C11         3.3099    3.4665   -2.3199 C.ar      1 <0>        -0.0756
     14 C12         4.1736    2.8502   -3.2054 C.ar      1 <0>        -0.1487
     15 C13         5.1416    1.9793   -2.7347 C.ar      1 <0>         0.0976
     16 C14         5.2465    1.7310   -1.3766 C.ar      1 <0>        -0.1496
     17 C15         4.3850    2.3524   -0.4925 C.ar      1 <0>        -0.0842
     18 F1          5.9835    1.3727   -3.5998 F         1 <0>        -0.1391
     19 H2         -2.1478    1.2020    0.0203 H         1 <0>         0.1230
     20 H3          0.0021   -0.0041    0.0020 H         1 <0>         0.1228
     21 H4          2.1137    1.2542   -0.0099 H         1 <0>         0.1228
     22 H5         -2.1733    3.6607    0.0403 H         1 <0>         0.1220
     23 H6         -0.3654    5.7061   -0.9900 H         1 <0>         0.0804
     24 H7         -0.8691    5.6852    0.7341 H         1 <0>         0.0833
     25 H8          1.2505    7.0167    0.2533 H         1 <0>         0.0889
     26 H9          1.4369    5.7228    1.4852 H         1 <0>         0.0774
     27 H10         1.9948    5.3274   -1.4607 H         1 <0>         0.3405
     28 H11         2.5520    4.1426   -2.6872 H         1 <0>         0.1295
     29 H12         4.0909    3.0447   -4.2645 H         1 <0>         0.1366
     30 H13         6.0014    1.0521   -1.0083 H         1 <0>         0.1373
     31 H14         4.4664    2.1586    0.5668 H         1 <0>         0.1337
@<TRIPOS>BOND
     1    1    6 ar
     2    1    2 ar
     3    1   19 1
     4    2    3 ar
     5    2   20 1
     6    3    4 ar
     7    3   21 1
     8    4   10 1
     9    4    5 ar
    10    5    6 ar
    11    5    7 1
    12    6   22 1
    13    7    8 1
    14    7   23 1
    15    7   24 1
    16    8    9 1
    17    8   25 1
    18    8   26 1
    19    9   10 1
    20    9   27 1
    21   10   11 1
    22   10   12 1
    23   12   17 ar
    24   12   13 ar
    25   13   14 ar
    26   13   28 1
    27   14   15 ar
    28   14   29 1
    29   15   16 ar
    30   15   18 1
    31   16   17 ar
    32   16   30 1
    33   17   31 1
