@<TRIPOS>MOLECULE
ZINC03814420
   45    48     0     0     0
SMALL
USER_CHARGES
(8S,13S,14S,17S)-17-hydroxy-13,17-dimethyl-1,2,6,7,8,14,15,16-octahydrocyclopenta[a]phenanthren-3-one
@<TRIPOS>ATOM
      1 C1         -1.8342    0.1714    1.6972 C.3       1 <0>        -0.1766
      2 C2         -1.2152   -0.6970    0.6001 C.3       1 <0>         0.1409
      3 C3         -0.6923   -2.0195    1.1931 C.3       1 <0>        -0.1509
      4 C4          0.8510   -1.9941    1.0170 C.3       1 <0>        -0.1138
      5 C5          1.1599   -0.4965    0.9168 C.3       1 <0>        -0.0807
      6 H1          1.1124   -0.0185    1.8953 H         1 <0>         0.0845
      7 C6          0.0021   -0.0041    0.0020 C.3       1 <0>        -0.0329
      8 C7          0.0207    1.4861    0.0164 C.2       1 <0>        -0.0865
      9 C8          1.2172    2.0991    0.0221 C.2       1 <0>        -0.1547
     10 C9          2.4404    1.3780    0.0406 C.2       1 <0>        -0.0186
     11 C10         3.6116    2.0651   -0.0549 C.2       1 <0>        -0.1275
     12 C11         3.5470    3.5418   -0.3618 C.3       1 <0>        -0.0806
     13 C12         4.7051    4.2788    0.3040 C.3       1 <0>        -0.1598
     14 C13         5.9924    3.5377    0.0534 C.2       1 <0>         0.3853
     15 O1          7.0154    4.1548   -0.1697 O.2       1 <0>        -0.4711
     16 C14         6.0103    2.1397    0.0778 C.2       1 <0>        -0.2593
     17 C15         4.8496    1.4232    0.0954 C.2       1 <0>         0.0333
     18 C16         4.9232   -0.0750    0.2638 C.3       1 <0>        -0.0993
     19 C17         3.6701   -0.5515    1.0081 C.3       1 <0>        -0.1105
     20 C18         2.4452   -0.1274    0.2019 C.3       1 <0>        -0.0528
     21 H2          2.4689   -0.6057   -0.7773 H         1 <0>         0.1006
     22 C19         0.2282   -0.5062   -1.4254 C.3       1 <0>        -0.1291
     23 O2         -2.1791   -0.9719   -0.4184 O.3       1 <0>        -0.5546
     24 H3         -2.1412    1.1277    1.2738 H         1 <0>         0.0659
     25 H4         -2.7032   -0.3365    2.1156 H         1 <0>         0.0600
     26 H5         -1.0992    0.3416    2.4839 H         1 <0>         0.0676
     27 H6         -1.1156   -2.8720    0.6619 H         1 <0>         0.0769
     28 H7         -0.9472   -2.0743    2.2515 H         1 <0>         0.0712
     29 H8          1.1434   -2.5102    0.1025 H         1 <0>         0.0742
     30 H9          1.3480   -2.4334    1.8819 H         1 <0>         0.0715
     31 H10        -0.8973    2.0551    0.0176 H         1 <0>         0.1253
     32 H11         1.2492    3.1786    0.0122 H         1 <0>         0.1259
     33 H12         2.6042    3.9449    0.0079 H         1 <0>         0.0898
     34 H13         3.6015    3.6868   -1.4408 H         1 <0>         0.0815
     35 H14         4.5424    4.3345    1.2891 H         1 <0>         0.0889
     36 H15         4.7793    5.2844   -0.1099 H         1 <0>         0.0941
     37 H16         6.9568    1.6197    0.0824 H         1 <0>         0.1345
     38 H17         5.8112   -0.3346    0.8401 H         1 <0>         0.0868
     39 H18         4.9691   -0.5508   -0.7158 H         1 <0>         0.0894
     40 H19         3.6348   -0.0957    1.9976 H         1 <0>         0.0711
     41 H20         3.6893   -1.6371    1.1040 H         1 <0>         0.0794
     42 H21         1.1364   -0.0581   -1.8286 H         1 <0>         0.0555
     43 H22         0.3313   -1.5912   -1.4169 H         1 <0>         0.0622
     44 H23        -0.6219   -0.2269   -2.0478 H         1 <0>         0.0671
     45 H24        -2.9769   -1.4133   -0.0961 H         1 <0>         0.3758
@<TRIPOS>BOND
     1    1    2 1
     2    1   24 1
     3    1   25 1
     4    1   26 1
     5    2    7 1
     6    2    3 1
     7    2   23 1
     8    3    4 1
     9    3   27 1
    10    3   28 1
    11    4    5 1
    12    4   29 1
    13    4   30 1
    14    5    6 1
    15    5   20 1
    16    5    7 1
    17    7    8 1
    18    7   22 1
    19    8    9 2
    20    8   31 1
    21    9   10 1
    22    9   32 1
    23   10   20 1
    24   10   11 2
    25   11   17 1
    26   11   12 1
    27   12   13 1
    28   12   33 1
    29   12   34 1
    30   13   14 1
    31   13   35 1
    32   13   36 1
    33   14   15 2
    34   14   16 1
    35   16   17 2
    36   16   37 1
    37   17   18 1
    38   18   19 1
    39   18   38 1
    40   18   39 1
    41   19   20 1
    42   19   40 1
    43   19   41 1
    44   20   21 1
    45   22   42 1
    46   22   43 1
    47   22   44 1
    48   23   45 1
