@<TRIPOS>MOLECULE
ZINC14806830
   71    77     0     0     0
SMALL
USER_CHARGES
9-cyclohexyl-N-(4-morpholinophenyl)-2-(1-naphthyloxy)purin-6-amine
@<TRIPOS>ATOM
      1 C1          5.1481    2.5080    3.6943 C.ar      1 <0>        -0.1118
      2 C2          4.5304    3.1315    4.7768 C.ar      1 <0>        -0.1116
      3 C3          3.1886    3.3620    4.7802 C.ar      1 <0>        -0.1004
      4 C4          2.4134    2.9706    3.6769 C.ar      1 <0>        -0.0431
      5 C5          3.0399    2.3326    2.5778 C.ar      1 <0>        -0.0422
      6 C6          4.4278    2.1117    2.6098 C.ar      1 <0>        -0.1048
      7 C7          2.2649    1.9359    1.4750 C.ar      1 <0>        -0.0972
      8 C8          0.9223    2.1618    1.4720 C.ar      1 <0>        -0.1051
      9 C9          0.2961    2.7833    2.5487 C.ar      1 <0>        -0.1041
     10 C10         1.0204    3.1865    3.6479 C.ar      1 <0>         0.1065
     11 O1          0.3993    3.7920    4.6928 O.3       1 <0>        -0.2186
     12 C11        -0.0714    5.0496    4.5111 C.ar      1 <0>         0.5430
     13 N1         -0.7911    5.6084    5.4738 N.ar      1 <0>        -0.5549
     14 C12        -1.2750    6.8388    5.3437 C.ar      1 <0>         0.4758
     15 C13        -1.0079    7.5438    4.1570 C.ar      1 <0>        -0.0953
     16 C14        -0.2458    6.9082    3.1629 C.ar      1 <0>         0.3296
     17 N2          0.2036    5.6761    3.3805 N.ar      1 <0>        -0.5720
     18 N3         -0.1372    7.8099    2.1346 N.pl3     1 <0>        -0.4655
     19 C15        -0.8176    8.9334    2.5027 C.2       1 <0>         0.2578
     20 N4         -1.3275    8.7751    3.6893 N.2       1 <0>        -0.4492
     21 C16         0.5736    7.6020    0.8707 C.3       1 <0>         0.1408
     22 C17        -0.4100    7.7280   -0.2944 C.3       1 <0>        -0.1276
     23 C18         0.3324    7.5108   -1.6145 C.3       1 <0>        -0.1158
     24 C19         1.4328    8.5638   -1.7599 C.3       1 <0>        -0.1240
     25 C20         2.4165    8.4378   -0.5948 C.3       1 <0>        -0.1160
     26 C21         1.6741    8.6550    0.7252 C.3       1 <0>        -0.1272
     27 N5         -2.0259    7.4140    6.3542 N.pl3     1 <0>        -0.5404
     28 C22        -2.1800    6.7493    7.5773 C.ar      1 <0>         0.0463
     29 C23        -1.1293    6.0080    8.1018 C.ar      1 <0>        -0.0773
     30 C24        -1.2793    5.3573    9.3104 C.ar      1 <0>        -0.1614
     31 C25        -2.4845    5.4351    9.9960 C.ar      1 <0>         0.1142
     32 C26        -3.5371    6.1717    9.4686 C.ar      1 <0>        -0.1347
     33 C27        -3.3853    6.8267    8.2626 C.ar      1 <0>        -0.0656
     34 N6         -2.6384    4.7709   11.2181 N.pl3     1 <0>        -0.4880
     35 C28        -3.0367    5.7066   12.2798 C.3       1 <0>         0.0201
     36 C29        -3.2515    4.9308   13.5821 C.3       1 <0>         0.0611
     37 O2         -2.0557    4.2179   13.9092 O.3       1 <0>        -0.3830
     38 C30        -1.6392    3.2972   12.8973 C.3       1 <0>         0.0619
     39 C31        -1.4080    4.0564   11.5880 C.3       1 <0>         0.0121
     40 H1          6.2142    2.3370    3.7163 H         1 <0>         0.1262
     41 H2          5.1248    3.4367    5.6253 H         1 <0>         0.1254
     42 H3          2.7234    3.8466    5.6259 H         1 <0>         0.1267
     43 H4          4.9200    1.6296    1.7780 H         1 <0>         0.1315
     44 H5          2.7338    1.4526    0.6306 H         1 <0>         0.1332
     45 H6          0.3337    1.8541    0.6203 H         1 <0>         0.1310
     46 H7         -0.7704    2.9509    2.5216 H         1 <0>         0.1256
     47 H8         -0.9182    9.8230    1.8986 H         1 <0>         0.2222
     48 H9          1.0194    6.6073    0.8639 H         1 <0>         0.1073
     49 H10        -0.8558    8.7227   -0.2876 H         1 <0>         0.0739
     50 H11        -1.1940    6.9778   -0.1908 H         1 <0>         0.0706
     51 H12        -0.3684    7.6006   -2.4445 H         1 <0>         0.0728
     52 H13         0.7781    6.5162   -1.6213 H         1 <0>         0.0669
     53 H14         1.9617    8.4091   -2.7003 H         1 <0>         0.0689
     54 H15         0.9871    9.5585   -1.7531 H         1 <0>         0.0663
     55 H16         2.8622    7.4431   -0.6016 H         1 <0>         0.0668
     56 H17         3.2005    9.1880   -0.6984 H         1 <0>         0.0727
     57 H18         2.3749    8.5652    1.5552 H         1 <0>         0.0701
     58 H19         1.2283    9.6496    0.7320 H         1 <0>         0.0739
     59 H20        -1.6256    8.2949    6.6067 H         1 <0>         0.3801
     60 H21        -0.1935    5.9439    7.5665 H         1 <0>         0.1300
     61 H22        -0.4607    4.7845    9.7205 H         1 <0>         0.1282
     62 H23        -4.4742    6.2325   10.0019 H         1 <0>         0.1305
     63 H24        -4.2039    7.3995    7.8525 H         1 <0>         0.1340
     64 H25        -2.2518    6.4492   12.4237 H         1 <0>         0.0542
     65 H26        -3.9633    6.2057   11.9964 H         1 <0>         0.0944
     66 H27        -4.0725    4.2253   13.4543 H         1 <0>         0.0627
     67 H28        -3.4917    5.6269   14.3858 H         1 <0>         0.1037
     68 H29        -2.4133    2.5441   12.7495 H         1 <0>         0.0625
     69 H30        -0.7131    2.8116   13.2049 H         1 <0>         0.1035
     70 H31        -1.1458    3.3509   10.7996 H         1 <0>         0.0949
     71 H32        -0.5970    4.7725   11.7201 H         1 <0>         0.0566
@<TRIPOS>BOND
     1    1    6 ar
     2    1    2 ar
     3    1   40 1
     4    2    3 ar
     5    2   41 1
     6    3    4 ar
     7    3   42 1
     8    4   10 ar
     9    4    5 ar
    10    5    6 ar
    11    5    7 ar
    12    6   43 1
    13    7    8 ar
    14    7   44 1
    15    8    9 ar
    16    8   45 1
    17    9   10 ar
    18    9   46 1
    19   10   11 1
    20   11   12 1
    21   12   17 ar
    22   12   13 ar
    23   13   14 ar
    24   14   15 ar
    25   14   27 1
    26   15   20 1
    27   15   16 ar
    28   16   17 ar
    29   16   18 1
    30   18   19 1
    31   18   21 1
    32   19   20 2
    33   19   47 1
    34   21   26 1
    35   21   22 1
    36   21   48 1
    37   22   23 1
    38   22   49 1
    39   22   50 1
    40   23   24 1
    41   23   51 1
    42   23   52 1
    43   24   25 1
    44   24   53 1
    45   24   54 1
    46   25   26 1
    47   25   55 1
    48   25   56 1
    49   26   57 1
    50   26   58 1
    51   27   28 1
    52   27   59 1
    53   28   33 ar
    54   28   29 ar
    55   29   30 ar
    56   29   60 1
    57   30   31 ar
    58   30   61 1
    59   31   32 ar
    60   31   34 1
    61   32   33 ar
    62   32   62 1
    63   33   63 1
    64   34   39 1
    65   34   35 1
    66   35   36 1
    67   35   64 1
    68   35   65 1
    69   36   37 1
    70   36   66 1
    71   36   67 1
    72   37   38 1
    73   38   39 1
    74   38   68 1
    75   38   69 1
    76   39   70 1
    77   39   71 1
@<TRIPOS>MOLECULE
ZINC04098868
   72    77     0     0     0
SMALL
USER_CHARGES

@<TRIPOS>ATOM
      1 C1          0.0103    1.5347    0.0637 C.3       1 <0>        -0.1513
      2 C2          0.0229    0.0049    0.0434 C.3       1 <0>        -0.1057
      3 H1         -1.0037   -0.3610    0.0548 H         1 <0>         0.0973
      4 C3          0.7162   -0.4770   -1.2436 C.3       1 <0>        -0.1258
      5 C4          0.8096   -1.9888   -1.1535 C.3       1 <0>         0.0694
      6 H2         -0.1858   -2.4138   -1.0245 H         1 <0>         0.0836
      7 C5          1.6873   -2.3134    0.0882 C.3       1 <0>        -0.0281
      8 H3          2.6179   -1.7466    0.0586 H         1 <0>         0.1557
      9 C6          1.9609   -3.8055   -0.1329 C.3       1 <0>        -0.1147
     10 H4          2.9639   -4.0679    0.2035 H         1 <0>         0.1205
     11 C7          1.8419   -3.9541   -1.6670 C.3       1 <0>         0.1619
     12 O1          1.4896   -2.6613   -2.2106 O.3       1 <0>        -0.3197
     13 C8          0.7717   -4.9756   -2.0125 C.3       1 <0>        -0.1326
     14 C9          1.1684   -6.4033   -1.6570 C.3       1 <0>        -0.1121
     15 C10         2.5643   -6.4720   -1.0449 C.3       1 <0>        -0.0712
     16 H5          2.5553   -6.1137   -0.0156 H         1 <0>         0.0943
     17 C11         3.1312   -7.8883   -1.1250 C.3       1 <0>        -0.0890
     18 H6          2.7416   -8.4069   -2.0010 H         1 <0>         0.0858
     19 C12         2.9423   -8.7363    0.1236 C.3       1 <0>        -0.0750
     20 C13         3.7543   -9.9944   -0.0783 C.2       1 <0>        -0.1625
     21 C14         4.7829  -10.0743   -0.8758 C.2       1 <0>        -0.0981
     22 C15         5.4727  -11.4191   -1.0151 C.3       1 <0>        -0.1201
     23 C16         6.9774  -11.2249   -0.8122 C.3       1 <0>         0.1086
     24 H7          7.1673  -10.8940    0.2089 H         1 <0>         0.0547
     25 C17         7.4868  -10.1683   -1.7948 C.3       1 <0>        -0.1168
     26 C18         6.8368   -8.8215   -1.4770 C.3       1 <0>        -0.1024
     27 C19         5.3223   -8.9171   -1.6830 C.3       1 <0>        -0.0092
     28 C20         4.6570   -7.6309   -1.2742 C.3       1 <0>        -0.0771
     29 H8          5.0755   -7.3037   -0.3224 H         1 <0>         0.0754
     30 C21         4.6857   -6.4905   -2.3026 C.3       1 <0>        -0.0812
     31 C22         3.4958   -5.6236   -1.9125 C.2       1 <0>        -0.1028
     32 C23         3.1820   -4.3893   -2.2286 C.2       1 <0>        -0.1305
     33 C24         4.0622   -3.4961   -3.0644 C.3       1 <0>        -0.1002
     34 C25         5.0263   -9.1518   -3.1656 C.3       1 <0>        -0.1487
     35 O2          7.6541  -12.4615   -1.0467 O.3       1 <0>        -0.5666
     36 C26         0.9115   -4.6601    0.5809 C.3       1 <0>        -0.1995
     37 N1          0.9111   -1.9543    1.2649 N.4       1 <0>        -0.4848
     38 C27         0.7499   -0.5059    1.2841 C.3       1 <0>        -0.0126
     39 H9          1.0348    1.9067    0.0524 H         1 <0>         0.0696
     40 H10        -0.5205    1.9053   -0.8132 H         1 <0>         0.0808
     41 H11        -0.4925    1.8820    0.9664 H         1 <0>         0.0720
     42 H12         0.1254   -0.1917   -2.1140 H         1 <0>         0.1051
     43 H13         1.7149   -0.0457   -1.3125 H         1 <0>         0.0939
     44 H14        -0.1417   -4.7216   -1.4745 H         1 <0>         0.0714
     45 H15         0.5707   -4.9241   -3.0826 H         1 <0>         0.0818
     46 H16         0.4483   -6.8043   -0.9437 H         1 <0>         0.0726
     47 H17         1.1470   -7.0127   -2.5606 H         1 <0>         0.0752
     48 H18         3.3030   -8.1963    0.9991 H         1 <0>         0.0730
     49 H19         1.8891   -8.9882    0.2474 H         1 <0>         0.0723
     50 H20         3.4658  -10.8792    0.4696 H         1 <0>         0.1060
     51 H21         5.0882  -12.1066   -0.2618 H         1 <0>         0.0708
     52 H22         5.2874  -11.8234   -2.0103 H         1 <0>         0.0824
     53 H23         8.5694  -10.0796   -1.7041 H         1 <0>         0.0731
     54 H24         7.2304  -10.4644   -2.8120 H         1 <0>         0.0746
     55 H25         7.0456   -8.5536   -0.4413 H         1 <0>         0.0647
     56 H26         7.2450   -8.0569   -2.1379 H         1 <0>         0.0732
     57 H27         5.6110   -5.9207   -2.2173 H         1 <0>         0.0759
     58 H28         4.5676   -6.8824   -3.3129 H         1 <0>         0.0940
     59 H29         4.7408   -2.9436   -2.4145 H         1 <0>         0.0651
     60 H30         4.6403   -4.1041   -3.7604 H         1 <0>         0.0679
     61 H31         3.4423   -2.7948   -3.6229 H         1 <0>         0.0727
     62 H32         3.9491   -9.2285   -3.3134 H         1 <0>         0.0571
     63 H33         5.4147   -8.3178   -3.7501 H         1 <0>         0.0639
     64 H34         5.5042  -10.0763   -3.4897 H         1 <0>         0.0614
     65 H35         7.3776  -13.1786   -0.4599 H         1 <0>         0.3800
     66 H36        -0.0838   -4.3678    0.2463 H         1 <0>         0.0703
     67 H37         1.0792   -5.7115    0.3473 H         1 <0>         0.1158
     68 H38         0.9917   -4.5098    1.6575 H         1 <0>         0.0641
     69 H39        -0.0007   -2.3838    1.2184 H         1 <0>         0.4257
     70 H40         1.7367   -0.0454    1.3321 H         1 <0>         0.1321
     71 H41         0.1831   -0.2205    2.1703 H         1 <0>         0.1397
     72 H42         1.3918   -2.2579    2.0985 H         1 <0>         0.4327
@<TRIPOS>BOND
     1    1    2 1
     2    1   39 1
     3    1   40 1
     4    1   41 1
     5    2    3 1
     6    2   38 1
     7    2    4 1
     8    4    5 1
     9    4   42 1
    10    4   43 1
    11    5    6 1
    12    5   12 1
    13    5    7 1
    14    7    8 1
    15    7    9 1
    16    7   37 1
    17    9   10 1
    18    9   11 1
    19    9   36 1
    20   11   32 1
    21   11   12 1
    22   11   13 1
    23   13   14 1
    24   13   44 1
    25   13   45 1
    26   14   15 1
    27   14   46 1
    28   14   47 1
    29   15   16 1
    30   15   31 1
    31   15   17 1
    32   17   18 1
    33   17   28 1
    34   17   19 1
    35   19   20 1
    36   19   48 1
    37   19   49 1
    38   20   21 2
    39   20   50 1
    40   21   27 1
    41   21   22 1
    42   22   23 1
    43   22   51 1
    44   22   52 1
    45   23   24 1
    46   23   25 1
    47   23   35 1
    48   25   26 1
    49   25   53 1
    50   25   54 1
    51   26   27 1
    52   26   55 1
    53   26   56 1
    54   27   28 1
    55   27   34 1
    56   28   29 1
    57   28   30 1
    58   30   31 1
    59   30   57 1
    60   30   58 1
    61   31   32 2
    62   32   33 1
    63   33   59 1
    64   33   60 1
    65   33   61 1
    66   34   62 1
    67   34   63 1
    68   34   64 1
    69   35   65 1
    70   36   66 1
    71   36   67 1
    72   36   68 1
    73   37   38 1
    74   37   69 1
    75   37   72 1
    76   38   70 1
    77   38   71 1
@<TRIPOS>MOLECULE
ZINC00073547
   35    37     0     0     0
SMALL
USER_CHARGES

@<TRIPOS>ATOM
      1 C1         -4.3796    1.4560    1.6212 C.3       1 <0>        -0.2001
      2 C2         -4.3737   -0.0509    1.6157 C.2       1 <0>         0.3911
      3 O1         -5.1860   -0.6628    2.2761 O.2       1 <0>        -0.4469
      4 C3         -3.3821   -0.7801    0.8086 C.ar      1 <0>        -0.1356
      5 C4         -2.4401   -0.0770    0.0501 C.ar      1 <0>        -0.0897
      6 C5         -1.5124   -0.7636   -0.7051 C.ar      1 <0>        -0.0975
      7 C6         -1.5092   -2.1464   -0.7165 C.ar      1 <0>        -0.1125
      8 C7         -2.4409   -2.8557    0.0330 C.ar      1 <0>         0.1497
      9 C8         -3.3742   -2.1773    0.8013 C.ar      1 <0>        -0.1040
     10 N1         -2.4328   -4.2536    0.0164 N.pl3     1 <0>        -0.6126
     11 C9         -3.6231   -4.9550    0.1296 C.2       1 <0>         0.3585
     12 N2         -3.8180   -6.2559    0.2435 N.2       1 <0>        -0.5506
     13 C10        -5.0449   -6.7618    0.3431 C.2       1 <0>         0.1306
     14 C11        -6.1193   -5.9180    0.3269 C.2       1 <0>        -0.2299
     15 S1         -5.2997   -4.3371    0.1677 S.3       1 <0>         0.0265
     16 C12        -5.2438   -8.2260    0.4699 C.ar      1 <0>        -0.0272
     17 C13        -6.5312   -8.7513    0.5676 C.ar      1 <0>        -0.1031
     18 C14        -6.7102  -10.1146    0.6849 C.ar      1 <0>        -0.1209
     19 C15        -5.6150  -10.9594    0.7061 C.ar      1 <0>        -0.1133
     20 C16        -4.3351  -10.4437    0.6095 C.ar      1 <0>        -0.1241
     21 C17        -4.1442   -9.0825    0.4860 C.ar      1 <0>        -0.0855
     22 H1         -5.1781    1.8139    2.2711 H         1 <0>         0.0877
     23 H2         -3.4207    1.8217    1.9887 H         1 <0>         0.0960
     24 H3         -4.5440    1.8225    0.6079 H         1 <0>         0.0962
     25 H4         -2.4395    1.0029    0.0555 H         1 <0>         0.1394
     26 H5         -0.7859   -0.2191   -1.2900 H         1 <0>         0.1401
     27 H6         -0.7801   -2.6775   -1.3104 H         1 <0>         0.1369
     28 H7         -4.0954   -2.7266    1.3883 H         1 <0>         0.1428
     29 H8         -1.5943   -4.7327   -0.0743 H         1 <0>         0.4284
     30 H9         -7.1733   -6.1436    0.3952 H         1 <0>         0.1990
     31 H10        -7.3869   -8.0926    0.5519 H         1 <0>         0.1251
     32 H11        -7.7073  -10.5227    0.7607 H         1 <0>         0.1263
     33 H12        -5.7599  -12.0256    0.7987 H         1 <0>         0.1235
     34 H13        -3.4837  -11.1080    0.6265 H         1 <0>         0.1245
     35 H14        -3.1447   -8.6814    0.4062 H         1 <0>         0.1311
@<TRIPOS>BOND
     1    1    2 1
     2    1   22 1
     3    1   23 1
     4    1   24 1
     5    2    3 2
     6    2    4 1
     7    4    9 ar
     8    4    5 ar
     9    5    6 ar
    10    5   25 1
    11    6    7 ar
    12    6   26 1
    13    7    8 ar
    14    7   27 1
    15    8    9 ar
    16    8   10 1
    17    9   28 1
    18   10   11 1
    19   10   29 1
    20   11   15 1
    21   11   12 2
    22   12   13 1
    23   13   14 2
    24   13   16 1
    25   14   15 1
    26   14   30 1
    27   16   21 ar
    28   16   17 ar
    29   17   18 ar
    30   17   31 1
    31   18   19 ar
    32   18   32 1
    33   19   20 ar
    34   19   33 1
    35   20   21 ar
    36   20   34 1
    37   21   35 1
@<TRIPOS>MOLECULE
ZINC00190251
   32    34     0     0     0
SMALL
USER_CHARGES
N-(p-tolyl)-4-(2-pyridyl)thiazol-2-amine
@<TRIPOS>ATOM
      1 C1         10.4122    7.3435    0.3665 C.3       1 <0>        -0.1155
      2 C2          9.0016    6.8230    0.2639 C.ar      1 <0>        -0.1008
      3 C3          8.0212    7.5989   -0.3270 C.ar      1 <0>        -0.0885
      4 C4          6.7276    7.1250   -0.4226 C.ar      1 <0>        -0.1378
      5 C5          6.4117    5.8673    0.0756 C.ar      1 <0>         0.1514
      6 C6          7.3978    5.0928    0.6737 C.ar      1 <0>        -0.1520
      7 C7          8.6905    5.5707    0.7613 C.ar      1 <0>        -0.0839
      8 N1          5.1036    5.3846   -0.0196 N.pl3     1 <0>        -0.6116
      9 C8          4.8762    4.0282   -0.1923 C.2       1 <0>         0.3646
     10 N2          3.7335    3.3675   -0.1964 N.2       1 <0>        -0.5523
     11 C9          3.7013    2.0486   -0.3751 C.2       1 <0>         0.1189
     12 C10         4.8733    1.3716   -0.5678 C.2       1 <0>        -0.1844
     13 S1          6.0522    2.7126   -0.4756 S.3       1 <0>         0.0218
     14 C11         2.4093    1.3235   -0.3714 C.ar      1 <0>         0.1887
     15 C12         1.2216    2.0272   -0.1736 C.ar      1 <0>        -0.1367
     16 C13         0.0234    1.3363   -0.1728 C.ar      1 <0>        -0.0784
     17 C14         0.0503   -0.0380   -0.3699 C.ar      1 <0>        -0.1706
     18 C15         1.2631   -0.6723   -0.5599 C.ar      1 <0>         0.1026
     19 N3          2.3913    0.0092   -0.5563 N.ar      1 <0>        -0.4764
     20 H1         10.5320    7.8860    1.3043 H         1 <0>         0.0719
     21 H2         11.1109    6.5074    0.3386 H         1 <0>         0.0680
     22 H3         10.6139    8.0136   -0.4692 H         1 <0>         0.0678
     23 H4          8.2676    8.5765   -0.7144 H         1 <0>         0.1309
     24 H5          5.9625    7.7314   -0.8846 H         1 <0>         0.1307
     25 H6          7.1545    4.1165    1.0660 H         1 <0>         0.1310
     26 H7          9.4584    4.9674    1.2225 H         1 <0>         0.1305
     27 H8          4.3548    5.9988    0.0351 H         1 <0>         0.4265
     28 H9          5.0409    0.3172   -0.7305 H         1 <0>         0.2051
     29 H10         1.2371    3.0966   -0.0236 H         1 <0>         0.1432
     30 H11        -0.9126    1.8547   -0.0266 H         1 <0>         0.1371
     31 H12        -0.8683   -0.6060   -0.3743 H         1 <0>         0.1372
     32 H13         1.2869   -1.7411   -0.7137 H         1 <0>         0.1607
@<TRIPOS>BOND
     1    1    2 1
     2    1   20 1
     3    1   21 1
     4    1   22 1
     5    2    7 ar
     6    2    3 ar
     7    3    4 ar
     8    3   23 1
     9    4    5 ar
    10    4   24 1
    11    5    6 ar
    12    5    8 1
    13    6    7 ar
    14    6   25 1
    15    7   26 1
    16    8    9 1
    17    8   27 1
    18    9   13 1
    19    9   10 2
    20   10   11 1
    21   11   12 2
    22   11   14 1
    23   12   13 1
    24   12   28 1
    25   14   19 ar
    26   14   15 ar
    27   15   16 ar
    28   15   29 1
    29   16   17 ar
    30   16   30 1
    31   17   18 ar
    32   17   31 1
    33   18   19 ar
    34   18   32 1
@<TRIPOS>MOLECULE
ZINC19322689
   68    71     0     0     0
SMALL
USER_CHARGES

@<TRIPOS>ATOM
      1 C1         -1.2492    2.0805   -0.1600 C.3       1 <0>         0.1102
      2 N1         -0.8948    0.6591   -0.1376 N.pl3     1 <0>        -0.6931
      3 C2          0.4970    0.2480   -0.3379 C.3       1 <0>         0.1109
      4 C3         -1.8839   -0.3039    0.0748 C.ar      1 <0>         0.1953
      5 C4         -2.6819   -0.7269   -0.9809 C.ar      1 <0>        -0.1208
      6 C5         -3.6585   -1.6795   -0.7676 C.ar      1 <0>        -0.0762
      7 C6         -3.8430   -2.2122    0.4953 C.ar      1 <0>        -0.1175
      8 C7         -3.0509   -1.7932    1.5483 C.ar      1 <0>        -0.0858
      9 C8         -2.0680   -0.8451    1.3406 C.ar      1 <0>        -0.1674
     10 C9         -1.2007   -0.3939    2.4874 C.3       1 <0>         0.0502
     11 N2         -1.6978    0.8891    3.0020 N.4       1 <0>        -0.3778
     12 C10        -3.0351    0.6991    3.5796 C.3       1 <0>        -0.0143
     13 C11        -3.5585    2.0415    4.0978 C.3       1 <0>        -0.1417
     14 C12        -2.5705    2.6012    5.1257 C.3       1 <0>         0.0287
     15 N3         -1.2396    2.7012    4.5098 N.3       1 <0>        -0.5390
     16 C13        -0.7810    1.3900    4.0333 C.3       1 <0>         0.2491
     17 C14         0.6027    1.5240    3.4517 C.ar      1 <0>        -0.0978
     18 C15         0.8667    2.4497    2.4538 C.ar      1 <0>        -0.1352
     19 C16         2.1479    2.5440    1.9445 C.ar      1 <0>         0.1136
     20 N4          3.1124    1.7665    2.3964 N.ar      1 <0>        -0.4538
     21 C17         2.8978    0.8752    3.3442 C.ar      1 <0>         0.1154
     22 C18         1.6435    0.7283    3.9057 C.ar      1 <0>        -0.1484
     23 C19        -0.2705    3.2906    5.4432 C.3       1 <0>         0.1165
     24 C20        -0.4992    4.7775    5.5325 C.ar      1 <0>        -0.1023
     25 C21        -1.4152    5.3874    4.6977 C.ar      1 <0>        -0.1017
     26 C22        -1.6253    6.7516    4.7786 C.ar      1 <0>        -0.1239
     27 C23        -0.9200    7.5100    5.6953 C.ar      1 <0>        -0.1054
     28 C24        -0.0032    6.9065    6.5331 C.ar      1 <0>        -0.1219
     29 C25         0.2066    5.5352    6.4581 C.ar      1 <0>         0.1764
     30 N5          1.1294    4.9207    7.3076 N.pl3     1 <0>        -0.6885
     31 C26         0.6798    4.3200    8.5658 C.3       1 <0>         0.1158
     32 C27         2.5470    4.8771    6.9405 C.3       1 <0>         0.1161
     33 H1         -0.3429    2.6795   -0.2489 H         1 <0>         0.0814
     34 H2         -1.9009    2.2790   -1.0109 H         1 <0>         0.0579
     35 H3         -1.7675    2.3403    0.7630 H         1 <0>         0.0225
     36 H4          1.1187    1.1308   -0.4868 H         1 <0>         0.0748
     37 H5          0.8445   -0.2974    0.5395 H         1 <0>         0.0381
     38 H6          0.5631   -0.3953   -1.2153 H         1 <0>         0.0534
     39 H7         -2.5388   -0.3108   -1.9672 H         1 <0>         0.1349
     40 H8         -4.2791   -2.0088   -1.5878 H         1 <0>         0.1366
     41 H9         -4.6077   -2.9569    0.6595 H         1 <0>         0.1369
     42 H10        -3.1980   -2.2107    2.5334 H         1 <0>         0.1322
     43 H11        -1.2310   -1.1401    3.2814 H         1 <0>         0.1307
     44 H12        -0.1743   -0.2733    2.1411 H         1 <0>         0.1357
     45 H13        -3.7106    0.3160    2.8148 H         1 <0>         0.1356
     46 H14        -2.9776   -0.0117    4.4040 H         1 <0>         0.1279
     47 H15        -3.6549    2.7404    3.2669 H         1 <0>         0.0958
     48 H16        -4.5309    1.8965    4.5684 H         1 <0>         0.1222
     49 H17        -2.8990    3.5900    5.4459 H         1 <0>         0.1168
     50 H18        -2.5242    1.9349    5.9870 H         1 <0>         0.0615
     51 H19        -0.7564    0.6893    4.8679 H         1 <0>         0.1179
     52 H20         0.0808    3.0888    2.0791 H         1 <0>         0.1410
     53 H21         2.3617    3.2626    1.1671 H         1 <0>         0.1657
     54 H22         3.7127    0.2556    3.6887 H         1 <0>         0.1687
     55 H23         1.4752   -0.0001    4.6851 H         1 <0>         0.1433
     56 H24        -0.3976    2.8436    6.4292 H         1 <0>         0.0656
     57 H25         0.7412    3.0995    5.0853 H         1 <0>         0.0962
     58 H26        -1.9676    4.7982    3.9808 H         1 <0>         0.1293
     59 H27        -2.3415    7.2261    4.1242 H         1 <0>         0.1238
     60 H28        -1.0863    8.5754    5.7556 H         1 <0>         0.1258
     61 H29         0.5475    7.4994    7.2484 H         1 <0>         0.1250
     62 H30         0.5016    3.2550    8.4167 H         1 <0>         0.0295
     63 H31         1.4466    4.4568    9.3283 H         1 <0>         0.0602
     64 H32        -0.2435    4.8010    8.8886 H         1 <0>         0.0580
     65 H33         2.6887    5.3706    5.9790 H         1 <0>         0.0612
     66 H34         3.1355    5.3891    7.7019 H         1 <0>         0.0474
     67 H35         2.8716    3.8391    6.8675 H         1 <0>         0.0400
     68 H36        -1.7505    1.5561    2.2468 H         1 <0>         0.4210
@<TRIPOS>BOND
     1    1    2 1
     2    1   33 1
     3    1   34 1
     4    1   35 1
     5    2    3 1
     6    2    4 1
     7    3   36 1
     8    3   37 1
     9    3   38 1
    10    4    9 ar
    11    4    5 ar
    12    5    6 ar
    13    5   39 1
    14    6    7 ar
    15    6   40 1
    16    7    8 ar
    17    7   41 1
    18    8    9 ar
    19    8   42 1
    20    9   10 1
    21   10   11 1
    22   10   43 1
    23   10   44 1
    24   11   16 1
    25   11   12 1
    26   11   68 1
    27   12   13 1
    28   12   45 1
    29   12   46 1
    30   13   14 1
    31   13   47 1
    32   13   48 1
    33   14   15 1
    34   14   49 1
    35   14   50 1
    36   15   16 1
    37   15   23 1
    38   16   17 1
    39   16   51 1
    40   17   22 ar
    41   17   18 ar
    42   18   19 ar
    43   18   52 1
    44   19   20 ar
    45   19   53 1
    46   20   21 ar
    47   21   22 ar
    48   21   54 1
    49   22   55 1
    50   23   24 1
    51   23   56 1
    52   23   57 1
    53   24   29 ar
    54   24   25 ar
    55   25   26 ar
    56   25   58 1
    57   26   27 ar
    58   26   59 1
    59   27   28 ar
    60   27   60 1
    61   28   29 ar
    62   28   61 1
    63   29   30 1
    64   30   31 1
    65   30   32 1
    66   31   62 1
    67   31   63 1
    68   31   64 1
    69   32   65 1
    70   32   66 1
    71   32   67 1
@<TRIPOS>MOLECULE
ZINC19322689
   68    71     0     0     0
SMALL
USER_CHARGES

@<TRIPOS>ATOM
      1 C1          1.3113    2.8132   -0.2747 C.3       1 <0>         0.1125
      2 N1          1.7901    1.4288   -0.2958 N.pl3     1 <0>        -0.6759
      3 C2          3.1745    1.1269    0.0760 C.3       1 <0>         0.1225
      4 C3          0.9265    0.3969   -0.6703 C.ar      1 <0>         0.1935
      5 C4          0.7501    0.0897   -2.0137 C.ar      1 <0>        -0.1275
      6 C5         -0.1043   -0.9311   -2.3805 C.ar      1 <0>        -0.1024
      7 C6         -0.7845   -1.6472   -1.4123 C.ar      1 <0>        -0.1207
      8 C7         -0.6113   -1.3441   -0.0744 C.ar      1 <0>        -0.1061
      9 C8          0.2467   -0.3283    0.2997 C.ar      1 <0>        -0.1023
     10 C9          0.4401   -0.0032    1.7585 C.3       1 <0>         0.1081
     11 N2         -0.2903    1.2284    2.0867 N.3       1 <0>        -0.5078
     12 C10        -1.7325    1.0625    1.8573 C.3       1 <0>         0.0535
     13 C11        -2.4426    2.3911    2.1328 C.3       1 <0>        -0.1170
     14 C12        -2.1265    2.8412    3.5621 C.3       1 <0>         0.0518
     15 N3         -0.6694    2.9398    3.7269 N.3       1 <0>        -0.5229
     16 C13        -0.0217    1.6473    3.4685 C.3       1 <0>         0.2817
     17 C14         1.4655    1.7818    3.6719 C.ar      1 <0>         0.0505
     18 C15         2.1871    2.7609    3.0063 C.ar      1 <0>        -0.0789
     19 C16         3.5497    2.8540    3.2178 C.ar      1 <0>         0.1231
     20 N4          4.1628    2.0255    4.0403 N.ar      1 <0>        -0.4424
     21 C17         3.5086    1.0825    4.6899 C.ar      1 <0>         0.1333
     22 C18         2.1436    0.9330    4.5333 C.ar      1 <0>        -0.1312
     23 C19        -0.3236    3.4442    5.0626 C.3       1 <0>         0.1101
     24 C20        -0.5565    4.9323    5.1134 C.ar      1 <0>        -0.1015
     25 C21        -0.8953    5.6187    3.9637 C.ar      1 <0>        -0.0949
     26 C22        -1.1091    6.9840    4.0095 C.ar      1 <0>        -0.1245
     27 C23        -0.9842    7.6670    5.2057 C.ar      1 <0>        -0.1079
     28 C24        -0.6459    6.9869    6.3588 C.ar      1 <0>        -0.1256
     29 C25        -0.4364    5.6140    6.3175 C.ar      1 <0>         0.1695
     30 N5         -0.1001    4.9220    7.4832 N.pl3     1 <0>        -0.6885
     31 C26        -1.1510    4.3139    8.3030 C.3       1 <0>         0.1158
     32 C27         1.3035    4.8042    7.8861 C.3       1 <0>         0.1196
     33 H1          2.1200    3.4726    0.0402 H         1 <0>         0.0528
     34 H2          0.9782    3.0977   -1.2728 H         1 <0>         0.0371
     35 H3          0.4793    2.8993    0.4242 H         1 <0>         0.0673
     36 H4          3.2455    1.0225    1.1587 H         1 <0>         0.0085
     37 H5          3.4837    0.1962   -0.3997 H         1 <0>         0.0576
     38 H6          3.8245    1.9372   -0.2543 H         1 <0>         0.0558
     39 H7          1.2804    0.6490   -2.7703 H         1 <0>         0.1229
     40 H8         -0.2419   -1.1703   -3.4246 H         1 <0>         0.1255
     41 H9         -1.4528   -2.4446   -1.7019 H         1 <0>         0.1253
     42 H10        -1.1439   -1.9053    0.6791 H         1 <0>         0.1194
     43 H11         0.0604   -0.8239    2.3671 H         1 <0>         0.0428
     44 H12         1.5015    0.1388    1.9614 H         1 <0>         0.0755
     45 H13        -1.9048    0.7651    0.8229 H         1 <0>         0.0936
     46 H14        -2.1218    0.2958    2.5271 H         1 <0>         0.0380
     47 H15        -2.0922    3.1447    1.4275 H         1 <0>         0.0852
     48 H16        -3.5188    2.2590    2.0220 H         1 <0>         0.0825
     49 H17        -2.5805    3.8150    3.7460 H         1 <0>         0.0944
     50 H18        -2.5245    2.1136    4.2694 H         1 <0>         0.0399
     51 H19        -0.4155    0.8999    4.1573 H         1 <0>         0.0410
     52 H20         1.6908    3.4420    2.3309 H         1 <0>         0.1924
     53 H21         4.1190    3.6139    2.7032 H         1 <0>         0.2100
     54 H22         4.0451    0.4222    5.3551 H         1 <0>         0.2109
     55 H23         1.6126    0.1621    5.0719 H         1 <0>         0.1809
     56 H24        -0.9477    2.9531    5.8092 H         1 <0>         0.0568
     57 H25         0.7254    3.2334    5.2703 H         1 <0>         0.0697
     58 H26        -0.9928    5.0886    3.0279 H         1 <0>         0.1384
     59 H27        -1.3738    7.5183    3.1090 H         1 <0>         0.1237
     60 H28        -1.1513    8.7335    5.2378 H         1 <0>         0.1238
     61 H29        -0.5486    7.5208    7.2925 H         1 <0>         0.1219
     62 H30        -1.2678    3.2662    8.0256 H         1 <0>         0.0309
     63 H31        -0.8761    4.3825    9.3556 H         1 <0>         0.0582
     64 H32        -2.0910    4.8404    8.1379 H         1 <0>         0.0594
     65 H33         1.5695    5.6453    8.5263 H         1 <0>         0.0379
     66 H34         1.4477    3.8720    8.4322 H         1 <0>         0.0556
     67 H35         1.9375    4.8077    6.9994 H         1 <0>         0.0449
     68 H36         5.1201    2.1116    4.1707 H         1 <0>         0.4521
@<TRIPOS>BOND
     1    1    2 1
     2    1   33 1
     3    1   34 1
     4    1   35 1
     5    2    3 1
     6    2    4 1
     7    3   36 1
     8    3   37 1
     9    3   38 1
    10    4    9 ar
    11    4    5 ar
    12    5    6 ar
    13    5   39 1
    14    6    7 ar
    15    6   40 1
    16    7    8 ar
    17    7   41 1
    18    8    9 ar
    19    8   42 1
    20    9   10 1
    21   10   11 1
    22   10   43 1
    23   10   44 1
    24   11   16 1
    25   11   12 1
    26   12   13 1
    27   12   45 1
    28   12   46 1
    29   13   14 1
    30   13   47 1
    31   13   48 1
    32   14   15 1
    33   14   49 1
    34   14   50 1
    35   15   16 1
    36   15   23 1
    37   16   17 1
    38   16   51 1
    39   17   22 ar
    40   17   18 ar
    41   18   19 ar
    42   18   52 1
    43   19   20 ar
    44   19   53 1
    45   20   21 ar
    46   20   68 1
    47   21   22 ar
    48   21   54 1
    49   22   55 1
    50   23   24 1
    51   23   56 1
    52   23   57 1
    53   24   29 ar
    54   24   25 ar
    55   25   26 ar
    56   25   58 1
    57   26   27 ar
    58   26   59 1
    59   27   28 ar
    60   27   60 1
    61   28   29 ar
    62   28   61 1
    63   29   30 1
    64   30   31 1
    65   30   32 1
    66   31   62 1
    67   31   63 1
    68   31   64 1
    69   32   65 1
    70   32   66 1
    71   32   67 1
@<TRIPOS>MOLECULE
ZINC37866044
   45    49     0     0     0
SMALL
USER_CHARGES

@<TRIPOS>ATOM
      1 C1         -0.2961    1.5112    0.7842 C.ar      1 <0>        -0.1589
      2 C2          0.8256    2.2895    0.9775 C.ar      1 <0>         0.1050
      3 N1          2.0353    1.7865    0.8179 N.ar      1 <0>        -0.4777
      4 C3          2.2301    0.5285    0.4695 C.ar      1 <0>         0.1071
      5 C4          1.1646   -0.3202    0.2559 C.ar      1 <0>        -0.1574
      6 C5         -0.1364    0.1710    0.4139 C.ar      1 <0>         0.0151
      7 C6         -1.3108   -0.7028    0.1959 C.2       1 <0>        -0.0559
      8 C7         -1.6733   -1.6630    1.1381 C.2       1 <0>        -0.0556
      9 C8         -2.7872   -2.4528    0.8753 C.2       1 <0>        -0.1044
     10 S1         -3.3299   -1.8402   -0.7100 S.3       1 <0>         0.1513
     11 C9         -2.0863   -0.5841   -0.9522 C.2       1 <0>        -0.1044
     12 C10        -1.9209    0.3450   -2.0861 C.ar      1 <0>         0.0350
     13 C11        -0.7958    1.1755   -2.1790 C.ar      1 <0>        -0.1588
     14 C12        -0.6824    2.0285   -3.2561 C.ar      1 <0>         0.1096
     15 N2         -1.6143    2.0693   -4.1898 N.ar      1 <0>        -0.4781
     16 C13        -2.6893    1.3051   -4.1415 C.ar      1 <0>         0.1090
     17 C14        -2.8816    0.4180   -3.1038 C.ar      1 <0>        -0.1608
     18 C15        -3.3727   -3.5271    1.6997 C.ar      1 <0>         0.0349
     19 C16        -2.9029   -3.7777    2.9961 C.ar      1 <0>        -0.1594
     20 C17        -3.4793   -4.7918    3.7308 C.ar      1 <0>         0.1094
     21 N3         -4.4586   -5.5207    3.2291 N.ar      1 <0>        -0.4780
     22 C18        -4.9310   -5.3187    2.0134 C.ar      1 <0>         0.1090
     23 C19        -4.4181   -4.3220    1.2107 C.ar      1 <0>        -0.1607
     24 C20        -0.8940   -1.8380    2.3839 C.ar      1 <0>         0.0139
     25 C21        -0.0904   -2.9676    2.5769 C.ar      1 <0>        -0.1579
     26 C22         0.6193   -3.0901    3.7527 C.ar      1 <0>         0.1040
     27 N4          0.5478   -2.1612    4.6874 N.ar      1 <0>        -0.4775
     28 C23        -0.1975   -1.0813    4.5458 C.ar      1 <0>         0.1068
     29 C24        -0.9357   -0.8758    3.3995 C.ar      1 <0>        -0.1563
     30 H1         -1.2828    1.9284    0.9209 H         1 <0>         0.1360
     31 H2          0.7128    3.3250    1.2630 H         1 <0>         0.1605
     32 H3          3.2378    0.1590    0.3498 H         1 <0>         0.1595
     33 H4          1.3315   -1.3484   -0.0293 H         1 <0>         0.1347
     34 H5         -0.0297    1.1479   -1.4183 H         1 <0>         0.1433
     35 H6          0.1808    2.6724   -3.3368 H         1 <0>         0.1610
     36 H7         -3.4262    1.3722   -4.9282 H         1 <0>         0.1634
     37 H8         -3.7612   -0.2079   -3.0734 H         1 <0>         0.1371
     38 H9         -2.1015   -3.1858    3.4129 H         1 <0>         0.1440
     39 H10        -3.1244   -4.9929    4.7309 H         1 <0>         0.1610
     40 H11        -5.7335   -5.9398    1.6439 H         1 <0>         0.1633
     41 H12        -4.8130   -4.1592    0.2188 H         1 <0>         0.1371
     42 H13        -0.0273   -3.7318    1.8164 H         1 <0>         0.1360
     43 H14         1.2420   -3.9582    3.9110 H         1 <0>         0.1605
     44 H15        -0.2263   -0.3465    5.3368 H         1 <0>         0.1594
     45 H16        -1.5398    0.0125    3.2884 H         1 <0>         0.1345
@<TRIPOS>BOND
     1    1    6 ar
     2    1    2 ar
     3    1   30 1
     4    2    3 ar
     5    2   31 1
     6    3    4 ar
     7    4    5 ar
     8    4   32 1
     9    5    6 ar
    10    5   33 1
    11    6    7 1
    12    7   11 2
    13    7    8 1
    14    8    9 2
    15    8   24 1
    16    9   10 1
    17    9   18 1
    18   10   11 1
    19   11   12 1
    20   12   17 ar
    21   12   13 ar
    22   13   14 ar
    23   13   34 1
    24   14   15 ar
    25   14   35 1
    26   15   16 ar
    27   16   17 ar
    28   16   36 1
    29   17   37 1
    30   18   23 ar
    31   18   19 ar
    32   19   20 ar
    33   19   38 1
    34   20   21 ar
    35   20   39 1
    36   21   22 ar
    37   22   23 ar
    38   22   40 1
    39   23   41 1
    40   24   29 ar
    41   24   25 ar
    42   25   26 ar
    43   25   42 1
    44   26   27 ar
    45   26   43 1
    46   27   28 ar
    47   28   29 ar
    48   28   44 1
    49   29   45 1
@<TRIPOS>MOLECULE
ZINC40899447
   41    43     0     0     0
SMALL
USER_CHARGES

@<TRIPOS>ATOM
      1 C1         -0.0873    1.7033    0.0392 C.3       1 <0>        -0.6476
      2 S1         -0.0429   -0.1100    0.0102 S.o2      1 <0>         2.4979
      3 O1          0.7927   -0.5959    1.0518 O.2       1 <0>        -0.9273
      4 O2         -1.3537   -0.6288   -0.1687 O.2       1 <0>        -0.9277
      5 C2          0.8091   -0.5183   -1.4771 C.ar      1 <0>        -0.6265
      6 C3          0.0990   -0.6883   -2.6532 C.ar      1 <0>        -0.0273
      7 C4          0.7586   -1.0075   -3.8213 C.ar      1 <0>        -0.0937
      8 C5          2.1467   -1.1594   -3.8168 C.ar      1 <0>        -0.0791
      9 C6          2.8578   -0.9866   -2.6267 C.ar      1 <0>        -0.0061
     10 C7          2.1843   -0.6617   -1.4651 C.ar      1 <0>        -0.0223
     11 Cl1         4.5837   -1.1735   -2.6089 Cl        1 <0>        -0.0115
     12 C8          2.8599   -1.5018   -5.0645 C.2       1 <0>         0.5500
     13 O3          4.0685   -1.6334   -5.0573 O.2       1 <0>        -0.4798
     14 N1          2.1708   -1.6683   -6.2107 N.am      1 <0>        -0.6651
     15 C9          2.8531   -1.9008   -7.4098 C.ar      1 <0>         0.1450
     16 C10         2.3654   -1.3745   -8.6002 C.ar      1 <0>        -0.1202
     17 C11         3.0362   -1.6012   -9.7865 C.ar      1 <0>        -0.0931
     18 C12         4.1958   -2.3530   -9.7964 C.ar      1 <0>        -0.0172
     19 C13         4.6922   -2.8848   -8.6064 C.ar      1 <0>        -0.0167
     20 C14         4.0188   -2.6513   -7.4097 C.ar      1 <0>        -0.0877
     21 C15         5.9363   -3.6923   -8.6144 C.ar      1 <0>         0.1617
     22 C16         5.9590   -4.9329   -7.9802 C.ar      1 <0>        -0.1514
     23 C17         7.1271   -5.6749   -7.9961 C.ar      1 <0>        -0.0743
     24 C18         8.2357   -5.1514   -8.6466 C.ar      1 <0>        -0.1678
     25 C19         8.1429   -3.9137   -9.2553 C.ar      1 <0>         0.1027
     26 N2          7.0167   -3.2301   -9.2300 N.ar      1 <0>        -0.4578
     27 Cl2         5.0343   -2.6358  -11.2899 Cl        1 <0>        -0.0482
     28 H1          0.9312    2.0917    0.0383 H         1 <0>         0.1344
     29 H2         -0.6160    2.0679   -0.8414 H         1 <0>         0.1342
     30 H3         -0.6036    2.0397    0.9383 H         1 <0>         0.1384
     31 H4         -0.9746   -0.5710   -2.6558 H         1 <0>         0.1588
     32 H5          0.2028   -1.1401   -4.7377 H         1 <0>         0.1467
     33 H6          2.7325   -0.5237   -0.5449 H         1 <0>         0.1622
     34 H7          1.2017   -1.6269   -6.2043 H         1 <0>         0.4132
     35 H8          1.4592   -0.7870   -8.5978 H         1 <0>         0.1392
     36 H9          2.6531   -1.1901  -10.7088 H         1 <0>         0.1436
     37 H10         4.4013   -3.0574   -6.4850 H         1 <0>         0.1515
     38 H11         5.0775   -5.3098   -7.4829 H         1 <0>         0.1349
     39 H12         7.1750   -6.6396   -7.5128 H         1 <0>         0.1378
     40 H13         9.1622   -5.7056   -8.6766 H         1 <0>         0.1372
     41 H14         9.0038   -3.5034   -9.7621 H         1 <0>         0.1591
@<TRIPOS>BOND
     1    1    2 1
     2    1   28 1
     3    1   29 1
     4    1   30 1
     5    2    3 2
     6    2    4 2
     7    2    5 1
     8    5   10 ar
     9    5    6 ar
    10    6    7 ar
    11    6   31 1
    12    7    8 ar
    13    7   32 1
    14    8    9 ar
    15    8   12 1
    16    9   10 ar
    17    9   11 1
    18   10   33 1
    19   12   13 2
    20   12   14 am
    21   14   15 1
    22   14   34 1
    23   15   20 ar
    24   15   16 ar
    25   16   17 ar
    26   16   35 1
    27   17   18 ar
    28   17   36 1
    29   18   19 ar
    30   18   27 1
    31   19   20 ar
    32   19   21 1
    33   20   37 1
    34   21   26 ar
    35   21   22 ar
    36   22   23 ar
    37   22   38 1
    38   23   24 ar
    39   23   39 1
    40   24   25 ar
    41   24   40 1
    42   25   26 ar
    43   25   41 1
@<TRIPOS>MOLECULE
ZINC05393202
   57    59     0     0     0
SMALL
USER_CHARGES
(E)-3-[4-(5-pentyl-2-pyridyl)phenyl]-1-(1-piperidyl)prop-2-en-1-one
@<TRIPOS>ATOM
      1 C1         14.6345    8.2479   -2.7913 C.3       1 <0>        -0.1544
      2 C2         13.2969    7.5051   -2.7937 C.3       1 <0>        -0.1261
      3 C3         12.7959    7.3522   -1.3562 C.3       1 <0>        -0.1207
      4 C4         11.4583    6.6094   -1.3586 C.3       1 <0>        -0.1149
      5 C5         10.9572    6.4565    0.0789 C.3       1 <0>        -0.0779
      6 C6          9.6397    5.7249    0.0765 C.ar      1 <0>        -0.1316
      7 C7          8.4475    6.4293   -0.0151 C.ar      1 <0>        -0.0710
      8 C8          7.2593    5.7195   -0.0188 C.ar      1 <0>        -0.1571
      9 C9          7.3006    4.3297    0.0800 C.ar      1 <0>         0.1572
     10 N1          8.4622    3.6941    0.1659 N.ar      1 <0>        -0.4732
     11 C10         9.6073    4.3452    0.1661 C.ar      1 <0>         0.1087
     12 C11         6.0367    3.5551    0.0830 C.ar      1 <0>        -0.0363
     13 C12         6.0728    2.1631    0.1759 C.ar      1 <0>        -0.0818
     14 C13         4.9007    1.4422    0.1793 C.ar      1 <0>        -0.0969
     15 C14         3.6719    2.1059    0.0895 C.ar      1 <0>        -0.0676
     16 C15         3.6382    3.5015   -0.0090 C.ar      1 <0>        -0.1030
     17 C16         4.8124    4.2189   -0.0067 C.ar      1 <0>        -0.1034
     18 C17         2.4177    1.3372    0.0924 C.2       1 <0>        -0.0150
     19 C18         1.2339    1.9779    0.0058 C.2       1 <0>        -0.2170
     20 C19        -0.0144    1.2128    0.0087 C.2       1 <0>         0.5497
     21 O1          0.0174   -0.0037   -0.0023 O.2       1 <0>        -0.5445
     22 N2         -1.1989    1.8558    0.0179 N.am      1 <0>        -0.6096
     23 C20        -1.2561    3.3208   -0.0779 C.3       1 <0>         0.1041
     24 C21        -2.1890    3.6984   -1.2385 C.3       1 <0>        -0.1368
     25 C22        -3.5494    3.0289   -1.0305 C.3       1 <0>        -0.1217
     26 C23        -3.3763    1.5084   -1.0272 C.3       1 <0>        -0.1355
     27 C24        -2.4571    1.1055    0.1302 C.3       1 <0>         0.1098
     28 H1         15.3632    7.6821   -2.2108 H         1 <0>         0.0539
     29 H2         14.9915    8.3568   -3.8154 H         1 <0>         0.0539
     30 H3         14.5018    9.2338   -2.3460 H         1 <0>         0.0536
     31 H4         13.4296    6.5191   -3.2391 H         1 <0>         0.0611
     32 H5         12.5682    8.0709   -3.3742 H         1 <0>         0.0605
     33 H6         12.6632    8.3381   -0.9109 H         1 <0>         0.0626
     34 H7         13.5246    6.7864   -0.7757 H         1 <0>         0.0634
     35 H8         11.5910    5.6234   -1.8040 H         1 <0>         0.0644
     36 H9         10.7295    7.1752   -1.9391 H         1 <0>         0.0630
     37 H10        10.8245    7.4425    0.5243 H         1 <0>         0.0755
     38 H11        11.6859    5.8907    0.6594 H         1 <0>         0.0773
     39 H12         8.4471    7.5070   -0.0860 H         1 <0>         0.1366
     40 H13         6.3135    6.2354   -0.0932 H         1 <0>         0.1378
     41 H14        10.5333    3.7941    0.2375 H         1 <0>         0.1576
     42 H15         7.0213    1.6513    0.2448 H         1 <0>         0.1397
     43 H16         4.9291    0.3650    0.2516 H         1 <0>         0.1331
     44 H17         2.6911    4.0153   -0.0829 H         1 <0>         0.1302
     45 H18         4.7867    5.2962   -0.0786 H         1 <0>         0.1304
     46 H19         2.4448    0.2599    0.1639 H         1 <0>         0.1377
     47 H20         1.2068    3.0551   -0.0657 H         1 <0>         0.1328
     48 H21        -1.6425    3.7332    0.8542 H         1 <0>         0.0716
     49 H22        -0.2572    3.7139   -0.2674 H         1 <0>         0.0874
     50 H23        -1.7573    3.3600   -2.1805 H         1 <0>         0.0683
     51 H24        -2.3163    4.7807   -1.2641 H         1 <0>         0.0770
     52 H25        -4.2227    3.3161   -1.8381 H         1 <0>         0.0670
     53 H26        -3.9694    3.3487   -0.0768 H         1 <0>         0.0652
     54 H27        -2.9334    1.1906   -1.9711 H         1 <0>         0.0670
     55 H28        -4.3487    1.0318   -0.9024 H         1 <0>         0.0763
     56 H29        -2.2510    0.0365    0.0781 H         1 <0>         0.0937
     57 H30        -2.9395    1.3409    1.0789 H         1 <0>         0.0680
@<TRIPOS>BOND
     1    1    2 1
     2    1   28 1
     3    1   29 1
     4    1   30 1
     5    2    3 1
     6    2   31 1
     7    2   32 1
     8    3    4 1
     9    3   33 1
    10    3   34 1
    11    4    5 1
    12    4   35 1
    13    4   36 1
    14    5    6 1
    15    5   37 1
    16    5   38 1
    17    6   11 ar
    18    6    7 ar
    19    7    8 ar
    20    7   39 1
    21    8    9 ar
    22    8   40 1
    23    9   10 ar
    24    9   12 1
    25   10   11 ar
    26   11   41 1
    27   12   17 ar
    28   12   13 ar
    29   13   14 ar
    30   13   42 1
    31   14   15 ar
    32   14   43 1
    33   15   16 ar
    34   15   18 1
    35   16   17 ar
    36   16   44 1
    37   17   45 1
    38   18   19 2
    39   18   46 1
    40   19   20 1
    41   19   47 1
    42   20   21 2
    43   20   22 am
    44   22   27 1
    45   22   23 1
    46   23   24 1
    47   23   48 1
    48   23   49 1
    49   24   25 1
    50   24   50 1
    51   24   51 1
    52   25   26 1
    53   25   52 1
    54   25   53 1
    55   26   27 1
    56   26   54 1
    57   26   55 1
    58   27   56 1
    59   27   57 1
@<TRIPOS>MOLECULE
ZINC42855864
   83    87     0     0     0
SMALL
USER_CHARGES

@<TRIPOS>ATOM
      1 C1          1.4914   -0.2343    1.5864 C.3       1 <0>        -0.1557
      2 C2          1.9054    1.1196    1.0062 C.3       1 <0>        -0.0498
      3 C3          0.6683    1.8467    0.4753 C.3       1 <0>        -0.1510
      4 C4          2.5628    1.9637    2.1000 C.3       1 <0>        -0.1472
      5 C5          2.8991    0.9024   -0.1367 C.3       1 <0>        -0.1390
      6 C6          2.2516    0.0710   -1.2141 C.2       1 <0>         0.5271
      7 O1          1.1399   -0.3831   -1.0438 O.2       1 <0>        -0.5229
      8 N1          2.9078   -0.1679   -2.3668 N.am      1 <0>        -0.6022
      9 C7          4.2923    0.2830   -2.5284 C.3       1 <0>         0.1458
     10 C8          5.2307   -0.8528   -2.2116 C.ar      1 <0>        -0.0809
     11 C9          5.6099   -1.0912   -0.9032 C.ar      1 <0>        -0.1438
     12 C10         6.4706   -2.1323   -0.6093 C.ar      1 <0>        -0.0719
     13 C11         6.9546   -2.9371   -1.6226 C.ar      1 <0>        -0.1972
     14 C12         6.5758   -2.7001   -2.9358 C.ar      1 <0>         0.1318
     15 C13         5.7070   -1.6583   -3.2275 C.ar      1 <0>        -0.1421
     16 O2          7.0505   -3.4904   -3.9343 O.3       1 <0>        -0.3170
     17 C14         7.9361   -4.5474   -3.5597 C.3       1 <0>         0.0247
     18 C15         2.2367   -0.8785   -3.4580 C.3       1 <0>         0.1418
     19 H1          2.8911   -0.9547   -4.3264 H         1 <0>         0.1310
     20 C16         1.7744   -2.2849   -2.9943 C.3       1 <0>        -0.1540
     21 C17         0.5843   -2.5536   -3.9488 C.3       1 <0>         0.0054
     22 H2          0.9445   -2.9158   -4.9118 H         1 <0>         0.1653
     23 N2         -0.0765   -1.2406   -4.1072 N.4       1 <0>        -0.3699
     24 C18         0.9131   -0.1788   -3.8321 C.3       1 <0>        -0.0270
     25 C19        -0.5767   -1.1014   -5.4814 C.3       1 <0>         0.0507
     26 C20        -1.3553    0.1829   -5.6050 C.ar      1 <0>        -0.1538
     27 C21        -2.7139    0.1932   -5.3494 C.ar      1 <0>        -0.0707
     28 C22        -3.4324    1.3690   -5.4609 C.ar      1 <0>        -0.0989
     29 C23        -2.7917    2.5406   -5.8299 C.ar      1 <0>         0.0729
     30 C24        -1.4231    2.5303   -6.0874 C.ar      1 <0>         0.0389
     31 C25        -0.7084    1.3494   -5.9681 C.ar      1 <0>        -0.0822
     32 O3         -1.0337    3.7934   -6.4281 O.3       1 <0>        -0.3016
     33 C26        -2.2460    4.4894   -6.7735 C.3       1 <0>         0.2114
     34 O4         -3.2598    3.8103   -6.0092 O.3       1 <0>        -0.2982
     35 C27        -0.3649   -3.5508   -3.3361 C.2       1 <0>         0.5141
     36 O5         -1.5116   -3.2321   -3.1024 O.2       1 <0>        -0.5243
     37 N3          0.0603   -4.7968   -3.0477 N.am      1 <0>        -0.5853
     38 C28         1.4482   -5.2021   -3.3174 C.3       1 <0>         0.0966
     39 C29         1.4270   -6.5098   -4.1159 C.3       1 <0>         0.0404
     40 N4          0.6176   -7.5044   -3.3993 N.3       1 <0>        -0.6894
     41 C30        -0.7819   -7.0720   -3.2876 C.3       1 <0>         0.0413
     42 C31        -0.8496   -5.7855   -2.4495 C.3       1 <0>         0.1131
     43 H3          1.0231   -0.8356    0.8072 H         1 <0>         0.0822
     44 H4          2.3727   -0.7522    1.9647 H         1 <0>         0.0470
     45 H5          0.7835   -0.0795    2.4006 H         1 <0>         0.0544
     46 H6         -0.0396    2.0015    1.2895 H         1 <0>         0.0573
     47 H7          0.9632    2.8112    0.0619 H         1 <0>         0.0483
     48 H8          0.2000    1.2454   -0.3040 H         1 <0>         0.0704
     49 H9          3.4441    1.4457    2.4783 H         1 <0>         0.0572
     50 H10         2.8577    2.9282    1.6867 H         1 <0>         0.0570
     51 H11         1.8549    2.1184    2.9143 H         1 <0>         0.0628
     52 H12         3.1940    1.8669   -0.5500 H         1 <0>         0.0995
     53 H13         3.7804    0.3844    0.2416 H         1 <0>         0.1022
     54 H14         4.4505    0.6090   -3.5564 H         1 <0>         0.0981
     55 H15         4.4854    1.1139   -1.8499 H         1 <0>         0.1069
     56 H16         5.2332   -0.4627   -0.1098 H         1 <0>         0.1241
     57 H17         6.7652   -2.3164    0.4133 H         1 <0>         0.1298
     58 H18         7.6276   -3.7499   -1.3926 H         1 <0>         0.1321
     59 H19         5.4069   -1.4747   -4.2486 H         1 <0>         0.1288
     60 H20         7.4270   -5.2208   -2.8702 H         1 <0>         0.0580
     61 H21         8.2396   -5.0995   -4.4492 H         1 <0>         0.1052
     62 H22         8.8173   -4.1282   -3.0740 H         1 <0>         0.0596
     63 H23         2.5641   -3.0224   -3.1377 H         1 <0>         0.1264
     64 H24         1.4449   -2.2648   -1.9555 H         1 <0>         0.1278
     65 H25         0.5723    0.4387   -3.0010 H         1 <0>         0.1434
     66 H26         1.0573    0.4372   -4.7198 H         1 <0>         0.1392
     67 H27         0.2646   -1.0844   -6.1743 H         1 <0>         0.1391
     68 H28        -1.2260   -1.9442   -5.7189 H         1 <0>         0.1402
     69 H29        -3.2152   -0.7194   -5.0623 H         1 <0>         0.1495
     70 H30        -4.4936    1.3741   -5.2606 H         1 <0>         0.1503
     71 H31         0.3539    1.3393   -6.1628 H         1 <0>         0.1422
     72 H32        -2.1828    5.5373   -6.4803 H         1 <0>         0.1435
     73 H33        -2.4475    4.4009   -7.8411 H         1 <0>         0.0965
     74 H34         1.9499   -4.4272   -3.8970 H         1 <0>         0.0883
     75 H35         1.9741   -5.3568   -2.3753 H         1 <0>         0.0934
     76 H36         0.9935   -6.3285   -5.0994 H         1 <0>         0.0397
     77 H37         2.4448   -6.8830   -4.2298 H         1 <0>         0.0970
     78 H38         0.6824   -8.4093   -3.8408 H         1 <0>         0.3579
     79 H39        -1.1846   -6.8828   -4.2826 H         1 <0>         0.0404
     80 H40        -1.3660   -7.8529   -2.8007 H         1 <0>         0.0983
     81 H41        -0.5403   -5.9952   -1.4255 H         1 <0>         0.0893
     82 H42        -1.8678   -5.3965   -2.4550 H         1 <0>         0.1034
     83 H43        -0.8455   -1.1670   -3.4582 H         1 <0>         0.4369
@<TRIPOS>BOND
     1    1    2 1
     2    1   43 1
     3    1   44 1
     4    1   45 1
     5    2    3 1
     6    2    4 1
     7    2    5 1
     8    3   46 1
     9    3   47 1
    10    3   48 1
    11    4   49 1
    12    4   50 1
    13    4   51 1
    14    5    6 1
    15    5   52 1
    16    5   53 1
    17    6    7 2
    18    6    8 am
    19    8    9 1
    20    8   18 1
    21    9   10 1
    22    9   54 1
    23    9   55 1
    24   10   15 ar
    25   10   11 ar
    26   11   12 ar
    27   11   56 1
    28   12   13 ar
    29   12   57 1
    30   13   14 ar
    31   13   58 1
    32   14   15 ar
    33   14   16 1
    34   15   59 1
    35   16   17 1
    36   17   60 1
    37   17   61 1
    38   17   62 1
    39   18   19 1
    40   18   24 1
    41   18   20 1
    42   20   21 1
    43   20   63 1
    44   20   64 1
    45   21   22 1
    46   21   23 1
    47   21   35 1
    48   23   24 1
    49   23   25 1
    50   23   83 1
    51   24   65 1
    52   24   66 1
    53   25   26 1
    54   25   67 1
    55   25   68 1
    56   26   31 ar
    57   26   27 ar
    58   27   28 ar
    59   27   69 1
    60   28   29 ar
    61   28   70 1
    62   29   34 1
    63   29   30 ar
    64   30   31 ar
    65   30   32 1
    66   31   71 1
    67   32   33 1
    68   33   34 1
    69   33   72 1
    70   33   73 1
    71   35   36 2
    72   35   37 am
    73   37   42 1
    74   37   38 1
    75   38   39 1
    76   38   74 1
    77   38   75 1
    78   39   40 1
    79   39   76 1
    80   39   77 1
    81   40   41 1
    82   40   78 1
    83   41   42 1
    84   41   79 1
    85   41   80 1
    86   42   81 1
    87   42   82 1
@<TRIPOS>MOLECULE
ZINC00307577
   33    35     0     0     0
SMALL
USER_CHARGES

@<TRIPOS>ATOM
      1 C1          1.5570    1.1035    0.5871 C.3       1 <0>         0.0262
      2 O1          1.0516   -0.2181    0.3870 O.3       1 <0>        -0.3153
      3 C2          1.1020   -0.7134   -0.8788 C.ar      1 <0>         0.1063
      4 C3          1.6313    0.0535   -1.9035 C.ar      1 <0>        -0.1602
      5 C4          1.6825   -0.4509   -3.1900 C.ar      1 <0>        -0.0891
      6 C5          1.2055   -1.7219   -3.4581 C.ar      1 <0>        -0.0300
      7 C6          0.6751   -2.4935   -2.4403 C.ar      1 <0>        -0.1282
      8 C7          0.6266   -1.9954   -1.1462 C.ar      1 <0>         0.1527
      9 N1          0.0959   -2.7768   -0.1128 N.pl3     1 <0>        -0.5967
     10 C8          0.0598   -4.1567   -0.2361 C.2       1 <0>         0.3611
     11 N2         -0.5064   -5.0511    0.5535 N.2       1 <0>        -0.5509
     12 C9         -0.4416   -6.3514    0.2778 C.2       1 <0>         0.1340
     13 C10         0.2227   -6.7651   -0.8420 C.2       1 <0>        -0.2327
     14 S1          0.7605   -5.1963   -1.5098 S.3       1 <0>         0.0315
     15 C11        -1.0834   -7.3409    1.1769 C.ar      1 <0>        -0.0767
     16 C12        -1.8565   -6.9180    2.2624 C.ar      1 <0>        -0.0432
     17 C13        -2.4346   -7.8809    3.0712 C.ar      1 <0>        -0.1741
     18 C14        -2.2309   -9.2183    2.7826 C.ar      1 <0>         0.1018
     19 N3         -1.4959   -9.5872    1.7515 N.ar      1 <0>        -0.4821
     20 C15        -0.9305   -8.7074    0.9503 C.ar      1 <0>         0.1165
     21 Cl1         1.2723   -2.3488   -5.0756 Cl        1 <0>        -0.0536
     22 H1          2.6081    1.1378    0.3008 H         1 <0>         0.0608
     23 H2          0.9906    1.8056   -0.0249 H         1 <0>         0.0608
     24 H3          1.4576    1.3752    1.6380 H         1 <0>         0.1060
     25 H4          2.0038    1.0461   -1.6978 H         1 <0>         0.1482
     26 H5          2.0956    0.1487   -3.9876 H         1 <0>         0.1441
     27 H6          0.3027   -3.4850   -2.6519 H         1 <0>         0.1506
     28 H7         -0.2464   -2.3524    0.6894 H         1 <0>         0.4339
     29 H8          0.3770   -7.7644   -1.2214 H         1 <0>         0.2008
     30 H9         -1.9988   -5.8667    2.4647 H         1 <0>         0.1427
     31 H10        -3.0379   -7.5912    3.9188 H         1 <0>         0.1385
     32 H11        -2.6805   -9.9722    3.4117 H         1 <0>         0.1585
     33 H12        -0.3394   -9.0482    0.1131 H         1 <0>         0.1579
@<TRIPOS>BOND
     1    1    2 1
     2    1   22 1
     3    1   23 1
     4    1   24 1
     5    2    3 1
     6    3    8 ar
     7    3    4 ar
     8    4    5 ar
     9    4   25 1
    10    5    6 ar
    11    5   26 1
    12    6    7 ar
    13    6   21 1
    14    7    8 ar
    15    7   27 1
    16    8    9 1
    17    9   10 1
    18    9   28 1
    19   10   14 1
    20   10   11 2
    21   11   12 1
    22   12   13 2
    23   12   15 1
    24   13   14 1
    25   13   29 1
    26   15   20 ar
    27   15   16 ar
    28   16   17 ar
    29   16   30 1
    30   17   18 ar
    31   17   31 1
    32   18   19 ar
    33   18   32 1
    34   19   20 ar
    35   20   33 1
@<TRIPOS>MOLECULE
ZINC01212495
   60    63     0     0     0
SMALL
USER_CHARGES
N-[3-(1H-benzoimidazol-2-yl)-4-chloro-phenyl]-3,4,5-triethoxy-benzamide
@<TRIPOS>ATOM
      1 C1          3.4860    3.2334    3.2776 C.3       1 <0>        -0.1533
      2 C2          2.3051    4.1448    2.9370 C.3       1 <0>         0.0493
      3 O1          1.2398    3.3616    2.3950 O.3       1 <0>        -0.2959
      4 C3          0.1069    4.0236    2.0372 C.ar      1 <0>         0.1483
      5 C4          0.0272    5.3939    2.2002 C.ar      1 <0>        -0.2032
      6 C5         -1.1389    6.0727    1.8374 C.ar      1 <0>        -0.0659
      7 C6         -2.2197    5.3646    1.3059 C.ar      1 <0>        -0.1694
      8 C7         -2.1330    3.9950    1.1404 C.ar      1 <0>         0.1479
      9 C8         -0.9697    3.3211    1.5024 C.ar      1 <0>         0.0626
     10 O2         -0.8869    1.9746    1.3387 O.3       1 <0>        -0.3098
     11 C9         -0.3833    1.5030    0.0873 C.3       1 <0>         0.0628
     12 C10        -0.3640   -0.0269    0.0893 C.3       1 <0>        -0.1496
     13 O3         -3.1848    3.3052    0.6231 O.3       1 <0>        -0.2963
     14 C11        -4.3468    4.0600    0.2735 C.3       1 <0>         0.0485
     15 C12        -5.4158    3.1200   -0.2872 C.3       1 <0>        -0.1520
     16 C13        -1.2285    7.5350    2.0147 C.2       1 <0>         0.5651
     17 O4         -2.2438    8.1248    1.6982 O.2       1 <0>        -0.5031
     18 N1         -0.1852    8.2169    2.5275 N.am      1 <0>        -0.6680
     19 C14        -0.2281    9.6138    2.5961 C.ar      1 <0>         0.1544
     20 C15        -0.8953   10.3375    1.6145 C.ar      1 <0>        -0.0921
     21 C16        -0.9449   11.7168    1.6799 C.ar      1 <0>        -0.0879
     22 C17        -0.3225   12.3864    2.7159 C.ar      1 <0>        -0.0114
     23 C18         0.3547   11.6681    3.7038 C.ar      1 <0>        -0.0002
     24 C19         0.3995   10.2757    3.6396 C.ar      1 <0>        -0.1200
     25 C20         1.0223   12.3816    4.8138 C.2       1 <0>         0.3139
     26 N2          1.8090   11.7937    5.7673 N.pl3     1 <0>        -0.5976
     27 H1          2.0311   10.8211    5.8363 H         1 <0>         0.4266
     28 C21         2.2387   12.7948    6.6163 C.ar      1 <0>         0.0567
     29 C22         3.0438   12.8200    7.7468 C.ar      1 <0>        -0.1153
     30 C23         3.2888   14.0176    8.3849 C.ar      1 <0>        -0.0954
     31 C24         2.7355   15.1965    7.9052 C.ar      1 <0>        -0.1282
     32 C25         1.9409   15.1920    6.7943 C.ar      1 <0>        -0.0586
     33 C26         1.6785   13.9894    6.1299 C.ar      1 <0>         0.0451
     34 N3          0.9542   13.6725    5.0292 N.2       1 <0>        -0.4484
     35 Cl1        -0.3819   14.1198    2.7893 Cl        1 <0>        -0.0195
     36 H2          3.1718    2.4904    4.0106 H         1 <0>         0.0695
     37 H3          3.8287    2.7298    2.3737 H         1 <0>         0.0683
     38 H4          4.2985    3.8308    3.6910 H         1 <0>         0.0812
     39 H5          2.6192    4.8878    2.2040 H         1 <0>         0.0644
     40 H6          1.9623    4.6484    3.8409 H         1 <0>         0.0648
     41 H7          0.8642    5.9390    2.6109 H         1 <0>         0.1363
     42 H8         -3.1224    5.8869    1.0250 H         1 <0>         0.1516
     43 H9          0.6289    1.8789   -0.0619 H         1 <0>         0.0525
     44 H10        -1.0250    1.8572   -0.7194 H         1 <0>         0.0532
     45 H11         0.2777   -0.3812    0.8960 H         1 <0>         0.0652
     46 H12        -1.3762   -0.4028    0.2384 H         1 <0>         0.0656
     47 H13         0.0202   -0.3867   -0.8652 H         1 <0>         0.0750
     48 H14        -4.7337    4.5627    1.1599 H         1 <0>         0.0679
     49 H15        -4.0845    4.8026   -0.4800 H         1 <0>         0.0669
     50 H16        -6.3021    3.6957   -0.5539 H         1 <0>         0.0820
     51 H17        -5.0289    2.6173   -1.1736 H         1 <0>         0.0673
     52 H18        -5.6781    2.3774    0.4663 H         1 <0>         0.0686
     53 H19         0.5954    7.7393    2.8490 H         1 <0>         0.4120
     54 H20        -1.3797    9.8196    0.7999 H         1 <0>         0.1497
     55 H21        -1.4682   12.2734    0.9166 H         1 <0>         0.1479
     56 H22         0.9214    9.7149    4.4008 H         1 <0>         0.1325
     57 H23         3.4764   11.9056    8.1251 H         1 <0>         0.1235
     58 H24         3.9150   14.0382    9.2646 H         1 <0>         0.1318
     59 H25         2.9357   16.1272    8.4153 H         1 <0>         0.1312
     60 H26         1.5156   16.1154    6.4297 H         1 <0>         0.1308
@<TRIPOS>BOND
     1    1    2 1
     2    1   36 1
     3    1   37 1
     4    1   38 1
     5    2    3 1
     6    2   39 1
     7    2   40 1
     8    3    4 1
     9    4    9 ar
    10    4    5 ar
    11    5    6 ar
    12    5   41 1
    13    6    7 ar
    14    6   16 1
    15    7    8 ar
    16    7   42 1
    17    8    9 ar
    18    8   13 1
    19    9   10 1
    20   10   11 1
    21   11   12 1
    22   11   43 1
    23   11   44 1
    24   12   45 1
    25   12   46 1
    26   12   47 1
    27   13   14 1
    28   14   15 1
    29   14   48 1
    30   14   49 1
    31   15   50 1
    32   15   51 1
    33   15   52 1
    34   16   17 2
    35   16   18 am
    36   18   19 1
    37   18   53 1
    38   19   24 ar
    39   19   20 ar
    40   20   21 ar
    41   20   54 1
    42   21   22 ar
    43   21   55 1
    44   22   23 ar
    45   22   35 1
    46   23   24 ar
    47   23   25 1
    48   24   56 1
    49   25   34 2
    50   25   26 1
    51   26   27 1
    52   26   28 1
    53   28   33 ar
    54   28   29 ar
    55   29   30 ar
    56   29   57 1
    57   30   31 ar
    58   30   58 1
    59   31   32 ar
    60   31   59 1
    61   32   33 ar
    62   32   60 1
    63   33   34 1
@<TRIPOS>MOLECULE
ZINC00755692
   43    46     0     0     0
SMALL
USER_CHARGES
N-(4-ethoxyphenyl)-4-(8-methyl-6,9-diazabicyclo[4.3.0]nona-2,4,7,9-tetraen-7-yl)-thiazol-2-amine
@<TRIPOS>ATOM
      1 C1          8.4636    5.7599    1.0298 C.3       1 <0>        -0.1537
      2 C2          7.0178    5.2593    1.0179 C.3       1 <0>         0.0527
      3 O1          6.1809    6.2356    0.3946 O.3       1 <0>        -0.3136
      4 C3          4.8558    5.9443    0.3021 C.ar      1 <0>         0.1199
      5 C4          3.9871    6.8482   -0.2916 C.ar      1 <0>        -0.1203
      6 C5          2.6414    6.5532   -0.3858 C.ar      1 <0>        -0.0975
      7 C6          2.1577    5.3513    0.1144 C.ar      1 <0>         0.1160
      8 C7          3.0272    4.4494    0.7137 C.ar      1 <0>        -0.1129
      9 C8          4.3735    4.7436    0.8020 C.ar      1 <0>        -0.1736
     10 N1          0.7935    5.0517    0.0197 N.pl3     1 <0>        -0.6063
     11 C9          0.3826    3.7392   -0.1521 C.2       1 <0>         0.3760
     12 N2         -0.8405    3.2410   -0.1552 N.2       1 <0>        -0.5488
     13 C10        -1.0533    1.9399   -0.3425 C.2       1 <0>         0.1892
     14 C11         0.0168    1.1073   -0.5242 C.2       1 <0>        -0.2636
     15 S1          1.3679    2.2741   -0.4287 S.3       1 <0>         0.0237
     16 C12        -2.4302    1.4008   -0.3501 C.2       1 <0>        -0.0216
     17 C13        -3.5218    1.9493    0.2587 C.2       1 <0>         0.1145
     18 N3         -4.5750    1.1690    0.0211 N.2       1 <0>        -0.4921
     19 C14        -4.2006    0.1349   -0.7207 C.2       1 <0>         0.2372
     20 N4         -2.8576    0.2538   -0.9769 N.pl3     1 <0>        -0.3513
     21 C15        -2.2085   -0.6895   -1.7201 C.2       1 <0>         0.0523
     22 C16        -2.8785   -1.7467   -2.2251 C.2       1 <0>        -0.1391
     23 C17        -4.2550   -1.8932   -1.9853 C.2       1 <0>        -0.0976
     24 C18        -4.9130   -0.9635   -1.2409 C.2       1 <0>        -0.0793
     25 C19        -3.5335    3.2228    1.0644 C.3       1 <0>        -0.0649
     26 H1          8.5197    6.6953    1.5865 H         1 <0>         0.0673
     27 H2          9.1020    5.0152    1.5052 H         1 <0>         0.0799
     28 H3          8.7991    5.9257    0.0061 H         1 <0>         0.0673
     29 H4          6.6823    5.0935    2.0416 H         1 <0>         0.0636
     30 H5          6.9618    4.3239    0.4611 H         1 <0>         0.0636
     31 H6          4.3635    7.7828   -0.6805 H         1 <0>         0.1409
     32 H7          1.9653    7.2568   -0.8488 H         1 <0>         0.1393
     33 H8          2.6512    3.5165    1.1070 H         1 <0>         0.1339
     34 H9          5.0506    4.0404    1.2641 H         1 <0>         0.1360
     35 H10         0.1359    5.7626    0.0743 H         1 <0>         0.4282
     36 H11         0.0390    0.0396   -0.6856 H         1 <0>         0.1908
     37 H12        -1.1503   -0.5863   -1.9099 H         1 <0>         0.1625
     38 H13        -2.3542   -2.4833   -2.8157 H         1 <0>         0.1537
     39 H14        -4.7889   -2.7400   -2.3906 H         1 <0>         0.1459
     40 H15        -5.9712   -1.0665   -1.0509 H         1 <0>         0.1547
     41 H16        -3.7416    4.0668    0.4068 H         1 <0>         0.0777
     42 H17        -4.3057    3.1605    1.8312 H         1 <0>         0.0707
     43 H18        -2.5617    3.3621    1.5379 H         1 <0>         0.0786
@<TRIPOS>BOND
     1    1    2 1
     2    1   26 1
     3    1   27 1
     4    1   28 1
     5    2    3 1
     6    2   29 1
     7    2   30 1
     8    3    4 1
     9    4    9 ar
    10    4    5 ar
    11    5    6 ar
    12    5   31 1
    13    6    7 ar
    14    6   32 1
    15    7    8 ar
    16    7   10 1
    17    8    9 ar
    18    8   33 1
    19    9   34 1
    20   10   11 1
    21   10   35 1
    22   11   15 1
    23   11   12 2
    24   12   13 1
    25   13   14 2
    26   13   16 1
    27   14   15 1
    28   14   36 1
    29   16   20 1
    30   16   17 2
    31   17   18 1
    32   17   25 1
    33   18   19 2
    34   19   24 1
    35   19   20 1
    36   20   21 1
    37   21   22 2
    38   21   37 1
    39   22   23 1
    40   22   38 1
    41   23   24 2
    42   23   39 1
    43   24   40 1
    44   25   41 1
    45   25   42 1
    46   25   43 1
@<TRIPOS>MOLECULE
ZINC19893370
   55    58     0     0     0
SMALL
USER_CHARGES

@<TRIPOS>ATOM
      1 C1          0.1772   -1.3457   -0.5945 C.3       1 <0>        -0.0731
      2 C2          0.0910   -0.0477    0.1662 C.2       1 <0>         0.1152
      3 C3         -0.0273    1.2389   -0.4024 C.2       1 <0>        -0.1811
      4 C4         -0.0748    2.1430    0.6358 C.2       1 <0>         0.1108
      5 N1          0.0106    1.4400    1.7869 N.pl3     1 <0>        -0.3191
      6 N2          0.1070    0.0810    1.4660 N.2       1 <0>        -0.2938
      7 C5         -0.0011    1.9789    3.0804 C.ar      1 <0>         0.1489
      8 C6         -0.8892    2.9967    3.4020 C.ar      1 <0>        -0.1253
      9 C7         -0.8986    3.5255    4.6779 C.ar      1 <0>        -0.1007
     10 C8         -0.0248    3.0423    5.6346 C.ar      1 <0>        -0.1171
     11 C9          0.8609    2.0288    5.3174 C.ar      1 <0>        -0.1018
     12 C10         0.8715    1.4923    4.0447 C.ar      1 <0>        -0.1058
     13 C11        -0.1983    3.6397    0.5111 C.3       1 <0>        -0.0982
     14 C12        -0.0882    1.5568   -1.8432 C.2       1 <0>         0.0929
     15 N3         -0.0327    0.6035   -2.7203 N.2       1 <0>        -0.2223
     16 N4          0.0333    0.9108   -4.0856 N.pl3     1 <0>        -0.5460
     17 C13         0.1881   -0.1508   -5.0917 C.3       1 <0>         0.1679
     18 C14         1.3579    0.2164   -6.0109 C.3       1 <0>         0.0380
     19 N5          1.1432    1.5632   -6.5570 N.3       1 <0>        -0.5304
     20 C15         1.1289    2.5742   -5.4913 C.3       1 <0>         0.0410
     21 C16        -0.0564    2.3030   -4.5513 C.3       1 <0>         0.1053
     22 C17         2.1521    1.8855   -7.5749 C.3       1 <0>         0.0937
     23 C18         1.7629    3.1576   -8.2828 C.ar      1 <0>        -0.0796
     24 C19         0.9678    3.1046   -9.4124 C.ar      1 <0>        -0.0974
     25 C20         0.6108    4.2715  -10.0617 C.ar      1 <0>        -0.1201
     26 C21         1.0485    5.4916   -9.5812 C.ar      1 <0>        -0.1192
     27 C22         1.8428    5.5447   -8.4511 C.ar      1 <0>        -0.1207
     28 C23         2.1963    4.3780   -7.7993 C.ar      1 <0>        -0.1163
     29 H1         -0.8263   -1.7390   -0.7570 H         1 <0>         0.0779
     30 H2          0.6595   -1.1717   -1.5565 H         1 <0>         0.0948
     31 H3          0.7609   -2.0653   -0.0204 H         1 <0>         0.0684
     32 H4         -1.5716    3.3747    2.6552 H         1 <0>         0.1309
     33 H5         -1.5889    4.3173    4.9286 H         1 <0>         0.1341
     34 H6         -0.0338    3.4577    6.6315 H         1 <0>         0.1307
     35 H7          1.5421    1.6536    6.0667 H         1 <0>         0.1333
     36 H8          1.5606    0.6979    3.7987 H         1 <0>         0.1325
     37 H9         -1.2502    3.9115    0.4233 H         1 <0>         0.0871
     38 H10         0.2270    4.1143    1.3953 H         1 <0>         0.0777
     39 H11         0.3390    3.9760   -0.3757 H         1 <0>         0.0881
     40 H12        -0.1789    2.5833   -2.1663 H         1 <0>         0.1123
     41 H13         0.3963   -1.0985   -4.5950 H         1 <0>         0.0875
     42 H14        -0.7264   -0.2351   -5.6788 H         1 <0>         0.0655
     43 H15         2.2872    0.1986   -5.4416 H         1 <0>         0.0394
     44 H16         1.4177   -0.5022   -6.8283 H         1 <0>         0.0886
     45 H17         2.0614    2.5236   -4.9293 H         1 <0>         0.0363
     46 H18         1.0226    3.5655   -5.9319 H         1 <0>         0.0886
     47 H19        -0.9940    2.4501   -5.0874 H         1 <0>         0.0684
     48 H20        -0.0100    2.9785   -3.6971 H         1 <0>         0.0788
     49 H21         3.1221    2.0184   -7.0957 H         1 <0>         0.0431
     50 H22         2.2123    1.0715   -8.2973 H         1 <0>         0.0858
     51 H23         0.6259    2.1514   -9.7877 H         1 <0>         0.1226
     52 H24        -0.0098    4.2300  -10.9446 H         1 <0>         0.1222
     53 H25         0.7702    6.4032  -10.0890 H         1 <0>         0.1212
     54 H26         2.1851    6.4978   -8.0760 H         1 <0>         0.1213
     55 H27         2.8138    4.4198   -6.9143 H         1 <0>         0.1170
@<TRIPOS>BOND
     1    1    2 1
     2    1   29 1
     3    1   30 1
     4    1   31 1
     5    2    6 2
     6    2    3 1
     7    3    4 2
     8    3   14 1
     9    4    5 1
    10    4   13 1
    11    5    6 1
    12    5    7 1
    13    7   12 ar
    14    7    8 ar
    15    8    9 ar
    16    8   32 1
    17    9   10 ar
    18    9   33 1
    19   10   11 ar
    20   10   34 1
    21   11   12 ar
    22   11   35 1
    23   12   36 1
    24   13   37 1
    25   13   38 1
    26   13   39 1
    27   14   15 2
    28   14   40 1
    29   15   16 1
    30   16   21 1
    31   16   17 1
    32   17   18 1
    33   17   41 1
    34   17   42 1
    35   18   19 1
    36   18   43 1
    37   18   44 1
    38   19   20 1
    39   19   22 1
    40   20   21 1
    41   20   45 1
    42   20   46 1
    43   21   47 1
    44   21   48 1
    45   22   23 1
    46   22   49 1
    47   22   50 1
    48   23   28 ar
    49   23   24 ar
    50   24   25 ar
    51   24   51 1
    52   25   26 ar
    53   25   52 1
    54   26   27 ar
    55   26   53 1
    56   27   28 ar
    57   27   54 1
    58   28   55 1
@<TRIPOS>MOLECULE
ZINC02436092
   51    54     0     0     0
SMALL
USER_CHARGES
N-[3-(1H-benzoimidazol-2-yl)-4-chloro-phenyl]-3,4,5-trimethoxy-benzamide
@<TRIPOS>ATOM
      1 C1         -0.5775    1.1028   -0.4060 C.3       1 <0>         0.0205
      2 O1         -1.1114    1.5352    0.8470 O.3       1 <0>        -0.2976
      3 C2         -1.0822    2.8706    1.1028 C.ar      1 <0>         0.1448
      4 C3         -0.5523    3.7412    0.1689 C.ar      1 <0>        -0.1680
      5 C4         -0.5231    5.1130    0.4321 C.ar      1 <0>        -0.0659
      6 C5         -1.0299    5.6012    1.6391 C.ar      1 <0>        -0.2016
      7 C6         -1.5587    4.7264    2.5695 C.ar      1 <0>         0.1450
      8 C7         -1.5915    3.3603    2.3025 C.ar      1 <0>         0.0612
      9 O2         -2.1170    2.5029    3.2165 O.3       1 <0>        -0.3116
     10 C8         -1.2215    1.9654    4.1918 C.3       1 <0>         0.0353
     11 O3         -2.0527    5.2011    3.7444 O.3       1 <0>        -0.2973
     12 C9         -1.9926    6.6139    3.9499 C.3       1 <0>         0.0207
     13 C10         0.0426    6.0447   -0.5629 C.2       1 <0>         0.5651
     14 O4          0.4838    5.6186   -1.6129 O.2       1 <0>        -0.5029
     15 N1          0.0702    7.3678   -0.3078 N.am      1 <0>        -0.6679
     16 C11         0.7023    8.2395   -1.2013 C.ar      1 <0>         0.1541
     17 C12         1.8237    7.8185   -1.9068 C.ar      1 <0>        -0.0920
     18 C13         2.4489    8.6735   -2.7940 C.ar      1 <0>        -0.0879
     19 C14         1.9698    9.9563   -2.9780 C.ar      1 <0>        -0.0113
     20 C15         0.8469   10.3899   -2.2698 C.ar      1 <0>         0.0000
     21 C16         0.2135    9.5242   -1.3785 C.ar      1 <0>        -0.1199
     22 C17         0.3317   11.7625   -2.4638 C.2       1 <0>         0.3137
     23 N2         -0.6832   12.3316   -1.7430 N.pl3     1 <0>        -0.5975
     24 H1         -1.2003   11.9003   -1.0037 H         1 <0>         0.4266
     25 C18        -0.8597   13.6129   -2.2275 C.ar      1 <0>         0.0567
     26 C19        -1.7185   14.6550   -1.9060 C.ar      1 <0>        -0.1154
     27 C20        -1.6392   15.8446   -2.5988 C.ar      1 <0>        -0.0953
     28 C21        -0.7074   16.0065   -3.6144 C.ar      1 <0>        -0.1282
     29 C22         0.1464   14.9930   -3.9450 C.ar      1 <0>        -0.0585
     30 C23         0.0848   13.7771   -3.2562 C.ar      1 <0>         0.0450
     31 N3          0.7819   12.6186   -3.3481 N.2       1 <0>        -0.4483
     32 Cl1         2.7634   11.0289   -4.0886 Cl        1 <0>        -0.0193
     33 H2         -0.6621    0.0188   -0.4824 H         1 <0>         0.1078
     34 H3          0.4716    1.3910   -0.4728 H         1 <0>         0.0609
     35 H4         -1.1348    1.5689   -1.2186 H         1 <0>         0.0620
     36 H5         -0.1615    3.3613   -0.7635 H         1 <0>         0.1528
     37 H6         -1.0082    6.6612    1.8451 H         1 <0>         0.1375
     38 H7         -0.7841    2.7787    4.7708 H         1 <0>         0.0470
     39 H8         -1.7680    1.2980    4.8582 H         1 <0>         0.0970
     40 H9         -0.4294    1.4094    3.6904 H         1 <0>         0.0476
     41 H10        -0.9538    6.9424    3.9148 H         1 <0>         0.0587
     42 H11        -2.5599    7.1192    3.1682 H         1 <0>         0.0590
     43 H12        -2.4182    6.8580    4.9232 H         1 <0>         0.1078
     44 H13        -0.3482    7.7157    0.4952 H         1 <0>         0.4121
     45 H14         2.2053    6.8183   -1.7637 H         1 <0>         0.1497
     46 H15         3.3173    8.3395   -3.3424 H         1 <0>         0.1479
     47 H16        -0.6554    9.8538   -0.8282 H         1 <0>         0.1326
     48 H17        -2.4459   14.5345   -1.1168 H         1 <0>         0.1236
     49 H18        -2.3072   16.6558   -2.3496 H         1 <0>         0.1318
     50 H19        -0.6566   16.9438   -4.1487 H         1 <0>         0.1312
     51 H20         0.8677   15.1300   -4.7371 H         1 <0>         0.1308
@<TRIPOS>BOND
     1    1    2 1
     2    1   33 1
     3    1   34 1
     4    1   35 1
     5    2    3 1
     6    3    8 ar
     7    3    4 ar
     8    4    5 ar
     9    4   36 1
    10    5    6 ar
    11    5   13 1
    12    6    7 ar
    13    6   37 1
    14    7    8 ar
    15    7   11 1
    16    8    9 1
    17    9   10 1
    18   10   38 1
    19   10   39 1
    20   10   40 1
    21   11   12 1
    22   12   41 1
    23   12   42 1
    24   12   43 1
    25   13   14 2
    26   13   15 am
    27   15   16 1
    28   15   44 1
    29   16   21 ar
    30   16   17 ar
    31   17   18 ar
    32   17   45 1
    33   18   19 ar
    34   18   46 1
    35   19   20 ar
    36   19   32 1
    37   20   21 ar
    38   20   22 1
    39   21   47 1
    40   22   31 2
    41   22   23 1
    42   23   24 1
    43   23   25 1
    44   25   30 ar
    45   25   26 ar
    46   26   27 ar
    47   26   48 1
    48   27   28 ar
    49   27   49 1
    50   28   29 ar
    51   28   50 1
    52   29   30 ar
    53   29   51 1
    54   30   31 1
@<TRIPOS>MOLECULE
ZINC08019642
   43    46     0     0     0
SMALL
USER_CHARGES
N-[3-(1H-benzimidazol-2-yl)-4-chloro-phenyl]-4-methoxy-benzamide
@<TRIPOS>ATOM
      1 C1          1.2486   -4.7630    0.0199 C.3       1 <0>         0.0230
      2 O1          0.2479   -4.1116    0.8049 O.3       1 <0>        -0.3104
      3 C2          0.2433   -2.7545    0.7946 C.ar      1 <0>         0.1621
      4 C3         -0.7038   -2.0589    1.5368 C.ar      1 <0>        -0.1594
      5 C4         -0.7121   -0.6819    1.5287 C.ar      1 <0>        -0.0123
      6 C5          0.2338    0.0161    0.7731 C.ar      1 <0>        -0.1826
      7 C6          1.1814   -0.6871    0.0243 C.ar      1 <0>        -0.0413
      8 C7          1.1862   -2.0640    0.0421 C.ar      1 <0>        -0.2176
      9 C8          0.2283    1.4918    0.7610 C.2       1 <0>         0.5672
     10 O2         -0.6033    2.1019    1.4051 O.2       1 <0>        -0.5123
     11 N1          1.1414    2.1632    0.0317 N.am      1 <0>        -0.6722
     12 C9          1.0700    3.5571   -0.0673 C.ar      1 <0>         0.1567
     13 C10        -0.1669    4.1915   -0.0645 C.ar      1 <0>        -0.0923
     14 C11        -0.2430    5.5680   -0.1571 C.ar      1 <0>        -0.0883
     15 C12         0.9098    6.3223   -0.2637 C.ar      1 <0>        -0.0125
     16 C13         2.1566    5.6934   -0.2727 C.ar      1 <0>        -0.0011
     17 C14         2.2324    4.3043   -0.1738 C.ar      1 <0>        -0.1216
     18 C15         3.3924    6.4976   -0.3871 C.2       1 <0>         0.3150
     19 N2          4.6548    5.9861   -0.5233 N.pl3     1 <0>        -0.5977
     20 H1          4.9018    5.0179   -0.5620 H         1 <0>         0.4267
     21 C16         5.5237    7.0572   -0.5973 C.ar      1 <0>         0.0562
     22 C17         6.8998    7.1738   -0.7364 C.ar      1 <0>        -0.1153
     23 C18         7.4789    8.4245   -0.7792 C.ar      1 <0>        -0.0959
     24 C19         6.6958    9.5662   -0.6832 C.ar      1 <0>        -0.1284
     25 C20         5.3402    9.4718   -0.5455 C.ar      1 <0>        -0.0587
     26 C21         4.7300    8.2139   -0.5001 C.ar      1 <0>         0.0452
     27 N3          3.4430    7.8071   -0.3791 N.2       1 <0>        -0.4489
     28 Cl1         0.8081    8.0509   -0.3870 Cl        1 <0>        -0.0209
     29 H2          1.1402   -5.8433    0.1167 H         1 <0>         0.1055
     30 H3          1.1322   -4.4785   -1.0259 H         1 <0>         0.0599
     31 H4          2.2366   -4.4641    0.3699 H         1 <0>         0.0597
     32 H5         -1.4345   -2.5991    2.1205 H         1 <0>         0.1423
     33 H6         -1.4484   -0.1421    2.1057 H         1 <0>         0.1468
     34 H7          1.9115   -0.1513   -0.5641 H         1 <0>         0.1284
     35 H8          1.9209   -2.6081   -0.5328 H         1 <0>         0.1375
     36 H9          1.8480    1.6801   -0.4247 H         1 <0>         0.4115
     37 H10        -1.0714    3.6066    0.0145 H         1 <0>         0.1501
     38 H11        -1.2066    6.0555   -0.1506 H         1 <0>         0.1473
     39 H12         3.1939    3.8125   -0.1799 H         1 <0>         0.1320
     40 H13         7.5143    6.2888   -0.8117 H         1 <0>         0.1234
     41 H14         8.5496    8.5162   -0.8873 H         1 <0>         0.1315
     42 H15         7.1630   10.5393   -0.7182 H         1 <0>         0.1310
     43 H16         4.7404   10.3669   -0.4714 H         1 <0>         0.1307
@<TRIPOS>BOND
     1    1    2 1
     2    1   29 1
     3    1   30 1
     4    1   31 1
     5    2    3 1
     6    3    8 ar
     7    3    4 ar
     8    4    5 ar
     9    4   32 1
    10    5    6 ar
    11    5   33 1
    12    6    7 ar
    13    6    9 1
    14    7    8 ar
    15    7   34 1
    16    8   35 1
    17    9   10 2
    18    9   11 am
    19   11   12 1
    20   11   36 1
    21   12   17 ar
    22   12   13 ar
    23   13   14 ar
    24   13   37 1
    25   14   15 ar
    26   14   38 1
    27   15   16 ar
    28   15   28 1
    29   16   17 ar
    30   16   18 1
    31   17   39 1
    32   18   27 2
    33   18   19 1
    34   19   20 1
    35   19   21 1
    36   21   26 ar
    37   21   22 ar
    38   22   23 ar
    39   22   40 1
    40   23   24 ar
    41   23   41 1
    42   24   25 ar
    43   24   42 1
    44   25   26 ar
    45   25   43 1
    46   26   27 1
@<TRIPOS>MOLECULE
ZINC00444391
   39    42     0     0     0
SMALL
USER_CHARGES
N-[3-(1H-benzimidazol-2-yl)-4-chloro-phenyl]benzamide
@<TRIPOS>ATOM
      1 C1          0.0913    1.5480   -0.8031 C.ar      1 <0>        -0.0875
      2 C2          1.1478    2.0536   -0.0665 C.ar      1 <0>        -0.1263
      3 C3          2.3622    1.3993   -0.0579 C.ar      1 <0>        -0.0858
      4 C4          2.5238    0.2246   -0.7944 C.ar      1 <0>        -0.1414
      5 C5          1.4538   -0.2801   -1.5353 C.ar      1 <0>        -0.0549
      6 C6          0.2447    0.3841   -1.5353 C.ar      1 <0>        -0.1256
      7 C7          3.8224   -0.4815   -0.7902 C.2       1 <0>         0.5627
      8 O1          3.9603   -1.5041   -1.4329 O.2       1 <0>        -0.5092
      9 N1          4.8535    0.0084   -0.0737 N.am      1 <0>        -0.6706
     10 C8          6.0480   -0.7146    0.0175 C.ar      1 <0>         0.1557
     11 C9          6.0203   -2.1044    0.0223 C.ar      1 <0>        -0.0926
     12 C10         7.1972   -2.8234    0.1073 C.ar      1 <0>        -0.0881
     13 C11         8.4087   -2.1653    0.1989 C.ar      1 <0>        -0.0122
     14 C12         8.4460   -0.7693    0.2002 C.ar      1 <0>        -0.0007
     15 C13         7.2578   -0.0447    0.1090 C.ar      1 <0>        -0.1209
     16 C14         9.7409   -0.0617    0.2986 C.2       1 <0>         0.3146
     17 N2          9.8901    1.2929    0.4262 N.pl3     1 <0>        -0.5975
     18 H1          9.1549    1.9695    0.4689 H         1 <0>         0.4268
     19 C15        11.2457    1.5508    0.4850 C.ar      1 <0>         0.0564
     20 C16        12.0019    2.7080    0.6108 C.ar      1 <0>        -0.1152
     21 C17        13.3780    2.6254    0.6400 C.ar      1 <0>        -0.0958
     22 C18        14.0112    1.3942    0.5436 C.ar      1 <0>        -0.1284
     23 C19        13.2843    0.2445    0.4192 C.ar      1 <0>        -0.0587
     24 C20        11.8872    0.3032    0.3878 C.ar      1 <0>         0.0451
     25 N3         10.9178   -0.6380    0.2823 N.2       1 <0>        -0.4488
     26 Cl1         9.8838   -3.0735    0.3128 Cl        1 <0>        -0.0204
     27 H2         -0.8561    2.0666   -0.8100 H         1 <0>         0.1307
     28 H3          1.0214    2.9626    0.5030 H         1 <0>         0.1319
     29 H4          3.1861    1.7951    0.5175 H         1 <0>         0.1252
     30 H5          1.5724   -1.1883   -2.1076 H         1 <0>         0.1389
     31 H6         -0.5838   -0.0051   -2.1084 H         1 <0>         0.1337
     32 H7          4.7676    0.8621    0.3786 H         1 <0>         0.4126
     33 H8          5.0759   -2.6241   -0.0449 H         1 <0>         0.1495
     34 H9          7.1697   -3.9030    0.1068 H         1 <0>         0.1475
     35 H10         7.2805    1.0351    0.1091 H         1 <0>         0.1324
     36 H11        11.5146    3.6688    0.6862 H         1 <0>         0.1235
     37 H12        13.9673    3.5252    0.7378 H         1 <0>         0.1316
     38 H13        15.0898    1.3446    0.5674 H         1 <0>         0.1311
     39 H14        13.7875   -0.7082    0.3450 H         1 <0>         0.1307
@<TRIPOS>BOND
     1    1    6 ar
     2    1    2 ar
     3    1   27 1
     4    2    3 ar
     5    2   28 1
     6    3    4 ar
     7    3   29 1
     8    4    5 ar
     9    4    7 1
    10    5    6 ar
    11    5   30 1
    12    6   31 1
    13    7    8 2
    14    7    9 am
    15    9   10 1
    16    9   32 1
    17   10   15 ar
    18   10   11 ar
    19   11   12 ar
    20   11   33 1
    21   12   13 ar
    22   12   34 1
    23   13   14 ar
    24   13   26 1
    25   14   15 ar
    26   14   16 1
    27   15   35 1
    28   16   25 2
    29   16   17 1
    30   17   18 1
    31   17   19 1
    32   19   24 ar
    33   19   20 ar
    34   20   21 ar
    35   20   36 1
    36   21   22 ar
    37   21   37 1
    38   22   23 ar
    39   22   38 1
    40   23   24 ar
    41   23   39 1
    42   24   25 1
@<TRIPOS>MOLECULE
ZINC09404848
   60    63     0     0     0
SMALL
USER_CHARGES
N-[3-(1H-benzoimidazol-2-yl)phenyl]-3,4,5-triethoxy-benzamide
@<TRIPOS>ATOM
      1 C1          3.3587    3.2233    3.7504 C.3       1 <0>        -0.1529
      2 C2          2.2392    4.1388    3.2510 C.3       1 <0>         0.0490
      3 O1          1.2590    3.3602    2.5617 O.3       1 <0>        -0.2965
      4 C3          0.1889    4.0263    2.0510 C.ar      1 <0>         0.1481
      5 C4          0.0897    5.3963    2.2066 C.ar      1 <0>        -0.2034
      6 C5         -1.0125    6.0792    1.6863 C.ar      1 <0>        -0.0630
      7 C6         -2.0095    5.3758    1.0057 C.ar      1 <0>        -0.1700
      8 C7         -1.9031    4.0066    0.8486 C.ar      1 <0>         0.1478
      9 C8         -0.8034    3.3285    1.3677 C.ar      1 <0>         0.0605
     10 O2         -0.7012    1.9823    1.2119 O.3       1 <0>        -0.3097
     11 C9         -0.0277    1.5139    0.0418 C.3       1 <0>         0.0626
     12 C10        -0.0120   -0.0160    0.0405 C.3       1 <0>        -0.1494
     13 O3         -2.8732    3.3213    0.1861 O.3       1 <0>        -0.2968
     14 C11        -3.9731    4.0802   -0.3201 C.3       1 <0>         0.0482
     15 C12        -4.9547    3.1449   -1.0290 C.3       1 <0>        -0.1515
     16 C13        -1.1233    7.5411    1.8550 C.2       1 <0>         0.5609
     17 O4         -2.0828    8.1345    1.4015 O.2       1 <0>        -0.4990
     18 N1         -0.1609    8.2185    2.5119 N.am      1 <0>        -0.6682
     19 C14        -0.2159    9.6141    2.5883 C.ar      1 <0>         0.1447
     20 C15         0.9581   10.3581    2.5697 C.ar      1 <0>        -0.1271
     21 C16         0.9085   11.7375    2.6387 C.ar      1 <0>        -0.0958
     22 C17        -0.3066   12.3848    2.7389 C.ar      1 <0>        -0.1159
     23 C18        -1.4905   11.6465    2.7641 C.ar      1 <0>        -0.0109
     24 C19        -1.4410   10.2551    2.6883 C.ar      1 <0>        -0.0727
     25 C20        -2.7940   12.3379    2.8705 C.2       1 <0>         0.3239
     26 N2         -2.9612   13.6937    2.9563 N.pl3     1 <0>        -0.5980
     27 H1         -2.2358   14.3820    2.9596 H         1 <0>         0.4284
     28 C21        -4.3188   13.9334    3.0375 C.ar      1 <0>         0.0533
     29 C22        -5.0900   15.0831    3.1400 C.ar      1 <0>        -0.1137
     30 C23        -6.4634   14.9809    3.2086 C.ar      1 <0>        -0.0979
     31 C24        -7.0790   13.7375    3.1768 C.ar      1 <0>        -0.1274
     32 C25        -6.3373   12.5950    3.0762 C.ar      1 <0>        -0.0616
     33 C26        -4.9425   12.6735    3.0047 C.ar      1 <0>         0.0479
     34 N3         -3.9616   11.7441    2.9025 N.2       1 <0>        -0.4710
     35 H2          2.9434    2.4784    4.4292 H         1 <0>         0.0692
     36 H3          3.8240    2.7220    2.9016 H         1 <0>         0.0677
     37 H4          4.1064    3.8171    4.2761 H         1 <0>         0.0812
     38 H5          2.6546    4.8836    2.5722 H         1 <0>         0.0642
     39 H6          1.7740    4.6400    4.0997 H         1 <0>         0.0656
     40 H7          0.8617    5.9377    2.7332 H         1 <0>         0.1368
     41 H8         -2.8627    5.9013    0.6029 H         1 <0>         0.1514
     42 H9          0.9961    1.8878    0.0377 H         1 <0>         0.0521
     43 H10        -0.5492    1.8727   -0.8456 H         1 <0>         0.0527
     44 H11         0.5017   -0.3733   -0.8520 H         1 <0>         0.0745
     45 H12         0.5094   -0.3747    0.9280 H         1 <0>         0.0651
     46 H13        -1.0358   -0.3899    0.0447 H         1 <0>         0.0654
     47 H14        -4.4796    4.5807    0.5051 H         1 <0>         0.0684
     48 H15        -3.6062    4.8248   -1.0265 H         1 <0>         0.0666
     49 H16        -4.4482    2.6444   -1.8543 H         1 <0>         0.0668
     50 H17        -5.3216    2.4002   -0.3227 H         1 <0>         0.0685
     51 H18        -5.7937    3.7238   -1.4152 H         1 <0>         0.0817
     52 H19         0.5699    7.7383    2.9316 H         1 <0>         0.4117
     53 H20         1.9119    9.8568    2.4966 H         1 <0>         0.1323
     54 H21         1.8236   12.3107    2.6189 H         1 <0>         0.1363
     55 H22        -0.3410   13.4627    2.7975 H         1 <0>         0.1230
     56 H23        -2.3541    9.6786    2.7077 H         1 <0>         0.1583
     57 H24        -4.6164   16.0534    3.1652 H         1 <0>         0.1241
     58 H25        -7.0642   15.8748    3.2880 H         1 <0>         0.1318
     59 H26        -8.1556   13.6726    3.2317 H         1 <0>         0.1312
     60 H27        -6.8268   11.6326    3.0523 H         1 <0>         0.1307
@<TRIPOS>BOND
     1    1    2 1
     2    1   35 1
     3    1   36 1
     4    1   37 1
     5    2    3 1
     6    2   38 1
     7    2   39 1
     8    3    4 1
     9    4    9 ar
    10    4    5 ar
    11    5    6 ar
    12    5   40 1
    13    6    7 ar
    14    6   16 1
    15    7    8 ar
    16    7   41 1
    17    8    9 ar
    18    8   13 1
    19    9   10 1
    20   10   11 1
    21   11   12 1
    22   11   42 1
    23   11   43 1
    24   12   44 1
    25   12   45 1
    26   12   46 1
    27   13   14 1
    28   14   15 1
    29   14   47 1
    30   14   48 1
    31   15   49 1
    32   15   50 1
    33   15   51 1
    34   16   17 2
    35   16   18 am
    36   18   19 1
    37   18   52 1
    38   19   24 ar
    39   19   20 ar
    40   20   21 ar
    41   20   53 1
    42   21   22 ar
    43   21   54 1
    44   22   23 ar
    45   22   55 1
    46   23   24 ar
    47   23   25 1
    48   24   56 1
    49   25   34 2
    50   25   26 1
    51   26   27 1
    52   26   28 1
    53   28   33 ar
    54   28   29 ar
    55   29   30 ar
    56   29   57 1
    57   30   31 ar
    58   30   58 1
    59   31   32 ar
    60   31   59 1
    61   32   33 ar
    62   32   60 1
    63   33   34 1
