@<TRIPOS>MOLECULE
ZINC43170519
   72    76     0     0     0
SMALL
USER_CHARGES

@<TRIPOS>ATOM
      1 C1          0.2065    1.9793   -0.0342 C.3       1 <0>        -0.1665
      2 C2         -0.0710    0.4975    0.2268 C.3       1 <0>         0.1267
      3 N1          0.6656   -0.3156   -0.7441 N.pl3     1 <0>        -0.3596
      4 C3          1.5251   -1.3103   -0.4474 C.2       1 <0>         0.0834
      5 C4          1.9992   -1.8173   -1.6224 C.2       1 <0>        -0.2084
      6 C5          1.3909   -1.0872   -2.6763 C.2       1 <0>         0.1396
      7 N2          0.5906   -0.1944   -2.1367 N.2       1 <0>        -0.2737
      8 C6          1.6135   -1.2974   -4.1269 C.ar      1 <0>        -0.0306
      9 C7          1.6870   -2.5911   -4.6418 C.ar      1 <0>        -0.0653
     10 C8          1.8936   -2.7840   -5.9912 C.ar      1 <0>        -0.1479
     11 C9          2.0291   -1.6904   -6.8379 C.ar      1 <0>         0.1764
     12 C10         1.9568   -0.4000   -6.3271 C.ar      1 <0>        -0.1210
     13 C11         1.7441   -0.2018   -4.9794 C.ar      1 <0>        -0.0692
     14 N3          2.2392   -1.8888   -8.2064 N.am      1 <0>        -0.6868
     15 C12         1.7319   -1.0162   -9.0995 C.2       1 <0>         0.7025
     16 O1          1.0144   -0.1094   -8.7235 O.2       1 <0>        -0.5649
     17 N4          2.0199   -1.1486  -10.4095 N.am      1 <0>        -0.6331
     18 C13         1.4684   -0.2001  -11.3803 C.3       1 <0>         0.0998
     19 C14         2.8843   -2.2412  -10.8626 C.3       1 <0>         0.0747
     20 C15         2.9696   -2.9253   -1.7705 C.ar      1 <0>         0.1046
     21 C16         2.6505   -4.2210   -1.3636 C.ar      1 <0>        -0.1961
     22 C17         3.5843   -5.2284   -1.5193 C.ar      1 <0>         0.1572
     23 N5          4.7712   -4.9970   -2.0426 N.ar      1 <0>        -0.5068
     24 C18         5.1367   -3.7881   -2.4493 C.ar      1 <0>         0.3000
     25 C19         4.2446   -2.7061   -2.3328 C.ar      1 <0>        -0.1366
     26 C20         4.9036   -1.5649   -2.8480 C.2       1 <0>        -0.1235
     27 C21         6.1360   -1.9531   -3.2596 C.2       1 <0>         0.0868
     28 N6          6.2920   -3.3007   -3.0153 N.pl3     1 <0>        -0.5749
     29 H1          7.0840   -3.8226   -3.2186 H         1 <0>         0.4155
     30 C22         7.1551   -1.0687   -3.8637 C.ar      1 <0>        -0.0002
     31 C23         6.8859    0.2889   -4.0459 C.ar      1 <0>        -0.0681
     32 C24         7.8411    1.1086   -4.6101 C.ar      1 <0>        -0.1012
     33 C25         9.0640    0.5879   -4.9952 C.ar      1 <0>        -0.0993
     34 C26         9.3370   -0.7566   -4.8179 C.ar      1 <0>        -0.1519
     35 C27         8.3926   -1.5862   -4.2490 C.ar      1 <0>        -0.0991
     36 C28        10.6713   -1.3151   -5.2407 C.3       1 <0>         0.0432
     37 N7         11.6166   -1.2266   -4.1197 N.4       1 <0>        -0.3867
     38 C29        12.8795   -1.8784   -4.4916 C.3       1 <0>        -0.0479
     39 C30        11.8691    0.1853   -3.8024 C.3       1 <0>        -0.0538
     40 H2          1.2746    2.1722    0.0663 H         1 <0>         0.0600
     41 H3         -0.1160    2.2372   -1.0429 H         1 <0>         0.0725
     42 H4         -0.3415    2.5843    0.6882 H         1 <0>         0.0790
     43 H5          0.2515    0.2396    1.2356 H         1 <0>         0.1000
     44 H6         -1.1390    0.3046    0.1263 H         1 <0>         0.0906
     45 H7          1.7916   -1.6461    0.5439 H         1 <0>         0.1791
     46 H8          1.5824   -3.4413   -3.9841 H         1 <0>         0.1255
     47 H9          1.9505   -3.7859   -6.3905 H         1 <0>         0.1262
     48 H10         2.0628    0.4482   -6.9871 H         1 <0>         0.1382
     49 H11         1.6832    0.8012   -4.5836 H         1 <0>         0.1279
     50 H12         2.7500   -2.6545   -8.5128 H         1 <0>         0.4060
     51 H13         2.1557    0.6373  -11.5008 H         1 <0>         0.0561
     52 H14         1.3327   -0.6996  -12.3395 H         1 <0>         0.0734
     53 H15         0.5067    0.1678  -11.0228 H         1 <0>         0.0809
     54 H16         2.2747   -3.1143  -11.0953 H         1 <0>         0.0612
     55 H17         3.4271   -1.9289  -11.7548 H         1 <0>         0.0805
     56 H18         3.5944   -2.4933  -10.0750 H         1 <0>         0.0647
     57 H19         1.6842   -4.4347   -0.9313 H         1 <0>         0.1414
     58 H20         3.3348   -6.2306   -1.2035 H         1 <0>         0.1659
     59 H21         4.4984   -0.5653   -2.9034 H         1 <0>         0.1472
     60 H22         5.9318    0.6965   -3.7460 H         1 <0>         0.1417
     61 H23         7.6340    2.1590   -4.7519 H         1 <0>         0.1419
     62 H24         9.8085    1.2340   -5.4365 H         1 <0>         0.1335
     63 H25         8.6088   -2.6347   -4.1062 H         1 <0>         0.1259
     64 H26        10.5522   -2.3580   -5.5341 H         1 <0>         0.1362
     65 H27        11.0541   -0.7416   -6.0849 H         1 <0>         0.1377
     66 H28        13.3025   -1.3801   -5.3638 H         1 <0>         0.1231
     67 H29        13.5809   -1.8128   -3.6598 H         1 <0>         0.1252
     68 H30        12.6920   -2.9261   -4.7270 H         1 <0>         0.1234
     69 H31        10.9321    0.6689   -3.5265 H         1 <0>         0.1242
     70 H32        12.5705    0.2509   -2.9706 H         1 <0>         0.1244
     71 H33        12.2922    0.6837   -4.6746 H         1 <0>         0.1229
     72 H34        11.2250   -1.6880   -3.3123 H         1 <0>         0.4260
@<TRIPOS>BOND
     1    1    2 1
     2    1   40 1
     3    1   41 1
     4    1   42 1
     5    2    3 1
     6    2   43 1
     7    2   44 1
     8    3    7 1
     9    3    4 1
    10    4    5 2
    11    4   45 1
    12    5    6 1
    13    5   20 1
    14    6    7 2
    15    6    8 1
    16    8   13 ar
    17    8    9 ar
    18    9   10 ar
    19    9   46 1
    20   10   11 ar
    21   10   47 1
    22   11   12 ar
    23   11   14 1
    24   12   13 ar
    25   12   48 1
    26   13   49 1
    27   14   15 am
    28   14   50 1
    29   15   16 2
    30   15   17 am
    31   17   18 1
    32   17   19 1
    33   18   51 1
    34   18   52 1
    35   18   53 1
    36   19   54 1
    37   19   55 1
    38   19   56 1
    39   20   25 ar
    40   20   21 ar
    41   21   22 ar
    42   21   57 1
    43   22   23 ar
    44   22   58 1
    45   23   24 ar
    46   24   28 1
    47   24   25 ar
    48   25   26 1
    49   26   27 2
    50   26   59 1
    51   27   28 1
    52   27   30 1
    53   28   29 1
    54   30   35 ar
    55   30   31 ar
    56   31   32 ar
    57   31   60 1
    58   32   33 ar
    59   32   61 1
    60   33   34 ar
    61   33   62 1
    62   34   35 ar
    63   34   36 1
    64   35   63 1
    65   36   37 1
    66   36   64 1
    67   36   65 1
    68   37   38 1
    69   37   39 1
    70   37   72 1
    71   38   66 1
    72   38   67 1
    73   38   68 1
    74   39   69 1
    75   39   70 1
    76   39   71 1
@<TRIPOS>MOLECULE
ZINC21982951
   60    63     0     0     0
SMALL
USER_CHARGES

@<TRIPOS>ATOM
      1 C1         -2.0700    1.6928    0.2333 C.3       1 <0>        -0.1170
      2 C2         -1.6482    0.2604    0.0301 C.ar      1 <0>        -0.0813
      3 C3         -1.8479   -0.3525   -1.1919 C.ar      1 <0>        -0.1034
      4 C4         -1.4615   -1.6665   -1.3798 C.ar      1 <0>        -0.0990
      5 C5         -0.8738   -2.3725   -0.3459 C.ar      1 <0>        -0.1046
      6 C6         -0.6714   -1.7660    0.8791 C.ar      1 <0>        -0.0220
      7 C7         -1.0534   -0.4428    1.0688 C.ar      1 <0>         0.1347
      8 N1         -0.8441    0.1769    2.3055 N.am      1 <0>        -0.6659
      9 C8         -1.2819   -0.4110    3.4365 C.2       1 <0>         0.6018
     10 O1         -1.7689   -1.5261    3.3939 O.2       1 <0>        -0.4722
     11 C9         -1.1720    0.2905    4.7149 C.2       1 <0>        -0.2635
     12 C10        -1.5472   -0.1201    5.9866 C.2       1 <0>         0.1512
     13 N2         -1.3262    0.7270    6.9599 N.2       1 <0>        -0.5510
     14 C11        -0.7756    1.9070    6.7361 C.2       1 <0>         0.2513
     15 S1         -0.5107    1.9100    5.0742 S.3       1 <0>         0.2445
     16 N3         -0.4817    2.8997    7.6498 N.pl3     1 <0>        -0.5870
     17 C12        -0.6908    2.6801    9.0050 C.ar      1 <0>         0.4543
     18 C13        -1.0534    1.4192    9.4679 C.ar      1 <0>        -0.2926
     19 C14        -1.2512    1.2508   10.8352 C.ar      1 <0>         0.4935
     20 N4         -1.0875    2.2952   11.6453 N.ar      1 <0>        -0.5328
     21 C15        -0.7435    3.4737   11.1677 C.ar      1 <0>         0.4541
     22 N5         -0.5417    3.6719    9.8809 N.ar      1 <0>        -0.5672
     23 C16        -0.5694    4.6273   12.1217 C.3       1 <0>        -0.1251
     24 N6         -1.6138    0.0143   11.3464 N.pl3     1 <0>        -0.5370
     25 C17        -2.0559   -0.1253   12.7422 C.3       1 <0>         0.1090
     26 C18        -3.3866   -0.8852   12.7576 C.3       1 <0>         0.0383
     27 N7         -3.2335   -2.1493   12.0251 N.3       1 <0>        -0.5289
     28 C19        -2.9165   -1.9105   10.6107 C.3       1 <0>         0.0343
     29 C20        -1.5725   -1.1917   10.5056 C.3       1 <0>         0.1057
     30 C21        -4.4334   -2.9856   12.1619 C.3       1 <0>         0.0545
     31 C22        -4.1483   -4.3816   11.6043 C.3       1 <0>         0.0776
     32 O2         -3.1500   -5.0191   12.4038 O.3       1 <0>        -0.5606
     33 Cl1         0.0658   -2.6526    2.1768 Cl        1 <0>        -0.0453
     34 H1         -1.2464    2.3553   -0.0328 H         1 <0>         0.0773
     35 H2         -2.9308    1.9112   -0.3987 H         1 <0>         0.0785
     36 H3         -2.3379    1.8478    1.2784 H         1 <0>         0.0640
     37 H4         -2.3069    0.1956   -2.0014 H         1 <0>         0.1372
     38 H5         -1.6193   -2.1430   -2.3361 H         1 <0>         0.1391
     39 H6         -0.5731   -3.3989   -0.4959 H         1 <0>         0.1403
     40 H7         -0.3838    1.0296    2.3489 H         1 <0>         0.4083
     41 H8         -1.9972   -1.0858    6.1634 H         1 <0>         0.2027
     42 H9         -0.1293    3.7505    7.3451 H         1 <0>         0.4460
     43 H10        -1.1784    0.5927    8.7841 H         1 <0>         0.2218
     44 H11         0.4644    4.6619   12.4652 H         1 <0>         0.1245
     45 H12        -0.8146    5.5596   11.6130 H         1 <0>         0.1071
     46 H13        -1.2322    4.4948   12.9768 H         1 <0>         0.1273
     47 H14        -1.3096   -0.6823   13.3087 H         1 <0>         0.0989
     48 H15        -2.1929    0.8619   13.1834 H         1 <0>         0.1094
     49 H16        -3.6740   -1.0944   13.7880 H         1 <0>         0.1036
     50 H17        -4.1569   -0.2794   12.2806 H         1 <0>         0.0428
     51 H18        -2.8631   -2.8634   10.0841 H         1 <0>         0.1043
     52 H19        -3.6935   -1.2904   10.1636 H         1 <0>         0.0450
     53 H20        -1.3900   -0.9091    9.4688 H         1 <0>         0.1029
     54 H21        -0.7788   -1.8532   10.8529 H         1 <0>         0.1042
     55 H22        -4.7041   -3.0633   13.2149 H         1 <0>         0.0912
     56 H23        -5.2561   -2.5340   11.6075 H         1 <0>         0.0533
     57 H24        -5.0627   -4.9745   11.6240 H         1 <0>         0.0547
     58 H25        -3.7921   -4.2970   10.5776 H         1 <0>         0.0454
     59 H26        -2.9188   -5.9101   12.1076 H         1 <0>         0.3805
     60 H27        -0.2852    4.5531    9.5669 H         1 <0>         0.4414
@<TRIPOS>BOND
     1    1    2 1
     2    1   34 1
     3    1   35 1
     4    1   36 1
     5    2    7 ar
     6    2    3 ar
     7    3    4 ar
     8    3   37 1
     9    4    5 ar
    10    4   38 1
    11    5    6 ar
    12    5   39 1
    13    6    7 ar
    14    6   33 1
    15    7    8 1
    16    8    9 am
    17    8   40 1
    18    9   10 2
    19    9   11 1
    20   11   15 1
    21   11   12 2
    22   12   13 1
    23   12   41 1
    24   13   14 2
    25   14   15 1
    26   14   16 1
    27   16   17 1
    28   16   42 1
    29   17   22 ar
    30   17   18 ar
    31   18   19 ar
    32   18   43 1
    33   19   20 ar
    34   19   24 1
    35   20   21 ar
    36   21   22 ar
    37   21   23 1
    38   22   60 1
    39   23   44 1
    40   23   45 1
    41   23   46 1
    42   24   29 1
    43   24   25 1
    44   25   26 1
    45   25   47 1
    46   25   48 1
    47   26   27 1
    48   26   49 1
    49   26   50 1
    50   27   28 1
    51   27   30 1
    52   28   29 1
    53   28   51 1
    54   28   52 1
    55   29   53 1
    56   29   54 1
    57   30   31 1
    58   30   55 1
    59   30   56 1
    60   31   32 1
    61   31   57 1
    62   31   58 1
    63   32   59 1
@<TRIPOS>MOLECULE
ZINC21982951
   60    63     0     0     0
SMALL
USER_CHARGES

@<TRIPOS>ATOM
      1 C1          3.2739    6.6585    1.8418 C.3       1 <0>        -0.1168
      2 C2          2.5810    7.9910    1.9663 C.ar      1 <0>        -0.0823
      3 C3          2.8983    9.0189    1.0995 C.ar      1 <0>        -0.1038
      4 C4          2.2635   10.2419    1.2126 C.ar      1 <0>        -0.1008
      5 C5          1.3088   10.4411    2.1933 C.ar      1 <0>        -0.1049
      6 C6          0.9869    9.4175    3.0639 C.ar      1 <0>        -0.0226
      7 C7          1.6192    8.1849    2.9486 C.ar      1 <0>         0.1373
      8 N1          1.2913    7.1440    3.8238 N.am      1 <0>        -0.6678
      9 C8          1.3128    7.3511    5.1554 C.2       1 <0>         0.6036
     10 O1          1.5184    8.4680    5.5945 O.2       1 <0>        -0.4759
     11 C9          1.0891    6.2346    6.0728 C.2       1 <0>        -0.2694
     12 C10         1.0619    6.2190    7.4604 C.2       1 <0>         0.1522
     13 N2          0.8357    5.0596    8.0247 N.2       1 <0>        -0.5060
     14 C11         0.6446    3.9678    7.3056 C.2       1 <0>         0.2464
     15 S1          0.7674    4.5141    5.7185 S.3       1 <0>         0.2029
     16 N3          0.3973    2.6842    7.7505 N.pl3     1 <0>        -0.5650
     17 C12         0.2197    2.4414    9.1063 C.ar      1 <0>         0.4999
     18 C13        -0.1342    1.1736    9.5555 C.ar      1 <0>        -0.3181
     19 C14        -0.3003    0.9817   10.9244 C.ar      1 <0>         0.4940
     20 N4         -0.1157    2.0114   11.7481 N.ar      1 <0>        -0.5712
     21 C15         0.2193    3.1978   11.2829 C.ar      1 <0>         0.4509
     22 N5          0.3911    3.4178    9.9956 N.ar      1 <0>        -0.4879
     23 C16         0.4179    4.3344   12.2523 C.3       1 <0>        -0.1253
     24 N6         -0.6531   -0.2629   11.4224 N.pl3     1 <0>        -0.5744
     25 C17        -0.9639   -0.4449   12.8484 C.3       1 <0>         0.1013
     26 C18        -2.3114   -1.1652   12.9649 C.3       1 <0>         0.0387
     27 N7         -2.2712   -2.4031   12.1749 N.3       1 <0>        -0.5277
     28 C19        -2.0835   -2.1176   10.7462 C.3       1 <0>         0.0305
     29 C20        -0.7325   -1.4351   10.5377 C.3       1 <0>         0.1149
     30 C21        -3.4796   -3.2085   12.3965 C.3       1 <0>         0.0543
     31 C22        -3.2958   -4.5889   11.7629 C.3       1 <0>         0.0774
     32 O2         -2.2472   -5.2869   12.4378 O.3       1 <0>        -0.5615
     33 Cl1        -0.2110    9.6681    4.2952 Cl        1 <0>        -0.0453
     34 H1          2.7121    6.0191    1.1609 H         1 <0>         0.0767
     35 H2          4.2810    6.8077    1.4524 H         1 <0>         0.0779
     36 H3          3.3298    6.1850    2.8220 H         1 <0>         0.0648
     37 H4          3.6435    8.8670    0.3327 H         1 <0>         0.1365
     38 H5          2.5139   11.0437    0.5337 H         1 <0>         0.1383
     39 H6          0.8148   11.3976    2.2790 H         1 <0>         0.1396
     40 H7          1.0484    6.2731    3.4723 H         1 <0>         0.4083
     41 H8          1.2191    7.1147    8.0430 H         1 <0>         0.1979
     42 H9          0.3477    1.9521    7.1161 H         1 <0>         0.4525
     43 H10        -0.2767    0.3593    8.8606 H         1 <0>         0.1835
     44 H11         1.4596    4.3615   12.5720 H         1 <0>         0.1250
     45 H12         0.1626    5.2758   11.7656 H         1 <0>         0.1301
     46 H13        -0.2249    4.1881   13.1203 H         1 <0>         0.1049
     47 H14        -0.1857   -1.0458   13.3190 H         1 <0>         0.1119
     48 H15        -1.0251    0.5276   13.3369 H         1 <0>         0.0843
     49 H16        -2.5057   -1.4068   14.0099 H         1 <0>         0.1076
     50 H17        -3.1034   -0.5184   12.5874 H         1 <0>         0.0465
     51 H18        -2.1124   -3.0499   10.1822 H         1 <0>         0.1076
     52 H19        -2.8786   -1.4576   10.3996 H         1 <0>         0.0467
     53 H20        -0.6409   -1.1170    9.4992 H         1 <0>         0.1034
     54 H21         0.0684   -2.1330   10.7819 H         1 <0>         0.1075
     55 H22        -3.6507   -3.3200   13.4672 H         1 <0>         0.0925
     56 H23        -4.3362   -2.7111   11.9416 H         1 <0>         0.0553
     57 H24        -4.2233   -5.1548   11.8494 H         1 <0>         0.0565
     58 H25        -3.0370   -4.4741   10.7103 H         1 <0>         0.0456
     59 H26        -2.0752   -6.1719   12.0881 H         1 <0>         0.3821
     60 H27        -0.2297    1.8867   12.7033 H         1 <0>         0.4392
@<TRIPOS>BOND
     1    1    2 1
     2    1   34 1
     3    1   35 1
     4    1   36 1
     5    2    7 ar
     6    2    3 ar
     7    3    4 ar
     8    3   37 1
     9    4    5 ar
    10    4   38 1
    11    5    6 ar
    12    5   39 1
    13    6    7 ar
    14    6   33 1
    15    7    8 1
    16    8    9 am
    17    8   40 1
    18    9   10 2
    19    9   11 1
    20   11   15 1
    21   11   12 2
    22   12   13 1
    23   12   41 1
    24   13   14 2
    25   14   15 1
    26   14   16 1
    27   16   17 1
    28   16   42 1
    29   17   18 ar
    30   17   22 ar
    31   18   43 1
    32   18   19 ar
    33   19   24 1
    34   19   20 ar
    35   20   60 1
    36   20   21 ar
    37   21   23 1
    38   21   22 ar
    39   23   44 1
    40   23   45 1
    41   23   46 1
    42   24   29 1
    43   24   25 1
    44   25   26 1
    45   25   47 1
    46   25   48 1
    47   26   27 1
    48   26   49 1
    49   26   50 1
    50   27   28 1
    51   27   30 1
    52   28   29 1
    53   28   51 1
    54   28   52 1
    55   29   53 1
    56   29   54 1
    57   30   31 1
    58   30   55 1
    59   30   56 1
    60   31   32 1
    61   31   57 1
    62   31   58 1
    63   32   59 1
@<TRIPOS>MOLECULE
ZINC21982951
   59    62     0     0     0
SMALL
USER_CHARGES

@<TRIPOS>ATOM
      1 C1          3.4106    6.6420    1.8847 C.3       1 <0>        -0.1165
      2 C2          2.6976    7.9659    1.9845 C.ar      1 <0>        -0.0852
      3 C3          3.0204    8.9921    1.1176 C.ar      1 <0>        -0.1055
      4 C4          2.3672   10.2073    1.2080 C.ar      1 <0>        -0.1070
      5 C5          1.3885   10.4004    2.1660 C.ar      1 <0>        -0.1064
      6 C6          1.0609    9.3785    3.0365 C.ar      1 <0>        -0.0243
      7 C7          1.7118    8.1536    2.9438 C.ar      1 <0>         0.1460
      8 N1          1.3783    7.1144    3.8189 N.am      1 <0>        -0.6734
      9 C8          1.3676    7.3308    5.1492 C.2       1 <0>         0.6131
     10 O1          1.5489    8.4533    5.5848 O.2       1 <0>        -0.4899
     11 C9          1.1384    6.2176    6.0693 C.2       1 <0>        -0.3092
     12 C10         1.0807    6.2111    7.4561 C.2       1 <0>         0.1722
     13 N2          0.8573    5.0526    8.0233 N.2       1 <0>        -0.5180
     14 C11         0.6966    3.9535    7.3079 C.2       1 <0>         0.3121
     15 S1          0.8472    4.4907    5.7202 S.3       1 <0>         0.1340
     16 N3          0.4564    2.6698    7.7563 N.pl3     1 <0>        -0.5904
     17 C12         0.2490    2.4343    9.1091 C.ar      1 <0>         0.4412
     18 C13        -0.1036    1.1661    9.5586 C.ar      1 <0>        -0.3412
     19 C14        -0.3003    0.9817   10.9244 C.ar      1 <0>         0.4686
     20 N4         -0.1450    2.0186   11.7452 N.ar      1 <0>        -0.5923
     21 C15         0.1898    3.2050   11.2799 C.ar      1 <0>         0.3946
     22 N5          0.3901    3.4182    9.9956 N.ar      1 <0>        -0.5459
     23 C16         0.3546    4.3498   12.2460 C.3       1 <0>        -0.0834
     24 N6         -0.6531   -0.2629   11.4224 N.pl3     1 <0>        -0.5966
     25 C17        -1.0693   -0.4249   12.8237 C.3       1 <0>         0.1300
     26 C18        -2.3993   -1.1856   12.8517 C.3       1 <0>         0.0401
     27 N7         -2.2595   -2.4378   12.0965 N.3       1 <0>        -0.5276
     28 C19        -1.9688   -2.1765   10.6804 C.3       1 <0>         0.0363
     29 C20        -0.6270   -1.4554   10.5619 C.3       1 <0>         0.1269
     30 C21        -3.4565   -3.2768   12.2420 C.3       1 <0>         0.0537
     31 C22        -3.1814   -4.6636   11.6572 C.3       1 <0>         0.0792
     32 O2         -2.1684   -5.3132   12.4279 O.3       1 <0>        -0.5589
     33 Cl1        -0.1672    9.6214    4.2392 Cl        1 <0>        -0.0433
     34 H1          2.8725    5.9906    1.1961 H         1 <0>         0.0754
     35 H2          4.4240    6.8020    1.5166 H         1 <0>         0.0754
     36 H3          3.4510    6.1760    2.8692 H         1 <0>         0.0676
     37 H4          3.7844    8.8450    0.3685 H         1 <0>         0.1337
     38 H5          2.6220   11.0077    0.5292 H         1 <0>         0.1350
     39 H6          0.8801   11.3508    2.2339 H         1 <0>         0.1371
     40 H7          1.1547    6.2381    3.4683 H         1 <0>         0.4085
     41 H8          1.2132    7.1127    8.0357 H         1 <0>         0.1884
     42 H9          0.4325    1.9325    7.1264 H         1 <0>         0.4387
     43 H10        -0.2220    0.3459    8.8660 H         1 <0>         0.1413
     44 H11         1.3882    4.3890   12.5900 H         1 <0>         0.0870
     45 H12         0.1021    5.2855   11.7470 H         1 <0>         0.0890
     46 H13        -0.3072    4.2031   13.0995 H         1 <0>         0.0846
     47 H14        -0.3126   -0.9904   13.3674 H         1 <0>         0.0744
     48 H15        -1.1984    0.5551   13.2831 H         1 <0>         0.1008
     49 H16        -2.6676   -1.4113   13.8837 H         1 <0>         0.0903
     50 H17        -3.1785   -0.5727   12.3986 H         1 <0>         0.0372
     51 H18        -1.9249   -3.1208   10.1378 H         1 <0>         0.0905
     52 H19        -2.7540   -1.5497   10.2576 H         1 <0>         0.0380
     53 H20        -0.4638   -1.1563    9.5265 H         1 <0>         0.0877
     54 H21         0.1731   -2.1219   10.8840 H         1 <0>         0.0802
     55 H22        -3.7077   -3.3713   13.2985 H         1 <0>         0.0861
     56 H23        -4.2894   -2.8169   11.7102 H         1 <0>         0.0487
     57 H24        -4.0952   -5.2572   11.6843 H         1 <0>         0.0498
     58 H25        -2.8443   -4.5626   10.6256 H         1 <0>         0.0451
     59 H26        -1.9426   -6.1994   12.1134 H         1 <0>         0.3762
@<TRIPOS>BOND
     1    1    2 1
     2    1   34 1
     3    1   35 1
     4    1   36 1
     5    2    7 ar
     6    2    3 ar
     7    3    4 ar
     8    3   37 1
     9    4    5 ar
    10    4   38 1
    11    5    6 ar
    12    5   39 1
    13    6    7 ar
    14    6   33 1
    15    7    8 1
    16    8    9 am
    17    8   40 1
    18    9   10 2
    19    9   11 1
    20   11   15 1
    21   11   12 2
    22   12   13 1
    23   12   41 1
    24   13   14 2
    25   14   15 1
    26   14   16 1
    27   16   17 1
    28   16   42 1
    29   17   18 ar
    30   17   22 ar
    31   18   43 1
    32   18   19 ar
    33   19   24 1
    34   19   20 ar
    35   20   21 ar
    36   21   23 1
    37   21   22 ar
    38   23   44 1
    39   23   45 1
    40   23   46 1
    41   24   29 1
    42   24   25 1
    43   25   26 1
    44   25   47 1
    45   25   48 1
    46   26   27 1
    47   26   49 1
    48   26   50 1
    49   27   28 1
    50   27   30 1
    51   28   29 1
    52   28   51 1
    53   28   52 1
    54   29   53 1
    55   29   54 1
    56   30   31 1
    57   30   55 1
    58   30   56 1
    59   31   32 1
    60   31   57 1
    61   31   58 1
    62   32   59 1
@<TRIPOS>MOLECULE
ZINC21982951
   61    64     0     0     0
SMALL
USER_CHARGES

@<TRIPOS>ATOM
      1 C1          3.2770    6.6581    1.8427 C.3       1 <0>        -0.1166
      2 C2          2.5837    7.9904    1.9667 C.ar      1 <0>        -0.0814
      3 C3          2.9012    9.0183    1.0999 C.ar      1 <0>        -0.1028
      4 C4          2.2660   10.2411    1.2125 C.ar      1 <0>        -0.0975
      5 C5          1.3108   10.4402    2.1928 C.ar      1 <0>        -0.1039
      6 C6          0.9888    9.4167    3.0634 C.ar      1 <0>        -0.0218
      7 C7          1.6215    8.1842    2.9485 C.ar      1 <0>         0.1327
      8 N1          1.2933    7.1433    3.8237 N.am      1 <0>        -0.6648
      9 C8          1.3141    7.3507    5.1552 C.2       1 <0>         0.5983
     10 O1          1.5193    8.4677    5.5943 O.2       1 <0>        -0.4690
     11 C9          1.0903    6.2342    6.0727 C.2       1 <0>        -0.2500
     12 C10         1.0624    6.2188    7.4604 C.2       1 <0>         0.1439
     13 N2          0.8362    5.0594    8.0246 N.2       1 <0>        -0.4984
     14 C11         0.6458    3.9675    7.3056 C.2       1 <0>         0.2172
     15 S1          0.7692    4.5136    5.7185 S.3       1 <0>         0.2242
     16 N3          0.3986    2.6839    7.7506 N.pl3     1 <0>        -0.5513
     17 C12         0.2203    2.4413    9.1063 C.ar      1 <0>         0.5098
     18 C13        -0.1335    1.1734    9.5556 C.ar      1 <0>        -0.3097
     19 C14        -0.3003    0.9817   10.9244 C.ar      1 <0>         0.4927
     20 N4         -0.1163    2.0116   11.7481 N.ar      1 <0>        -0.5695
     21 C15         0.2187    3.1980   11.2828 C.ar      1 <0>         0.4589
     22 N5          0.3911    3.4178    9.9956 N.ar      1 <0>        -0.4762
     23 C16         0.4165    4.3348   12.2521 C.3       1 <0>        -0.1303
     24 N6         -0.6531   -0.2629   11.4224 N.pl3     1 <0>        -0.6123
     25 C17        -0.9643   -0.4465   12.8484 C.3       1 <0>         0.0782
     26 C18        -2.3027   -1.1838   12.9625 C.3       1 <0>        -0.0204
     27 N7         -2.2406   -2.4311   12.1903 N.4       1 <0>        -0.3852
     28 C19        -2.0770   -2.1279   10.7629 C.3       1 <0>        -0.0304
     29 C20        -0.7330   -1.4363   10.5388 C.3       1 <0>         0.0932
     30 C21        -3.4827   -3.1900   12.3886 C.3       1 <0>        -0.0061
     31 C22        -3.3702   -4.5448   11.6865 C.3       1 <0>         0.0434
     32 O2         -2.3479   -5.3224   12.3128 O.3       1 <0>        -0.5819
     33 Cl1        -0.2098    9.6671    4.2940 Cl        1 <0>        -0.0466
     34 H1          2.7157    6.0184    1.1617 H         1 <0>         0.0770
     35 H2          4.2843    6.8074    1.4538 H         1 <0>         0.0791
     36 H3          3.3325    6.1847    2.8230 H         1 <0>         0.0631
     37 H4          3.6468    8.8665    0.3335 H         1 <0>         0.1380
     38 H5          2.5166   11.0428    0.5336 H         1 <0>         0.1401
     39 H6          0.8165   11.3966    2.2780 H         1 <0>         0.1410
     40 H7          1.0508    6.2723    3.4722 H         1 <0>         0.4077
     41 H8          1.2191    7.1146    8.0429 H         1 <0>         0.2016
     42 H9          0.3494    1.9517    7.1163 H         1 <0>         0.4545
     43 H10        -0.2756    0.3590    8.8607 H         1 <0>         0.1860
     44 H11         1.4581    4.3621   12.5724 H         1 <0>         0.1309
     45 H12         0.1613    5.2760   11.7653 H         1 <0>         0.1358
     46 H13        -0.2267    4.1885   13.1199 H         1 <0>         0.1083
     47 H14        -0.1795   -1.0367   13.3215 H         1 <0>         0.1249
     48 H15        -1.0392    0.5259   13.3352 H         1 <0>         0.1232
     49 H16        -2.5028   -1.4138   14.0090 H         1 <0>         0.1602
     50 H17        -3.0999   -0.5526   12.5701 H         1 <0>         0.1410
     51 H18        -2.1110   -3.0537   10.1885 H         1 <0>         0.1585
     52 H19        -2.8811   -1.4682   10.4370 H         1 <0>         0.1418
     53 H20        -0.6550   -1.1179    9.4992 H         1 <0>         0.1416
     54 H21         0.0756   -2.1281   10.7747 H         1 <0>         0.1211
     55 H22        -3.6469   -3.3459   13.4548 H         1 <0>         0.1465
     56 H23        -4.3202   -2.6321   11.9697 H         1 <0>         0.1464
     57 H24        -4.3221   -5.0710   11.7578 H         1 <0>         0.1026
     58 H25        -3.1180   -4.3904   10.6374 H         1 <0>         0.0719
     59 H26        -2.2211   -6.1961   11.9183 H         1 <0>         0.4154
     60 H27        -0.2308    1.8869   12.7032 H         1 <0>         0.4393
     61 H28        -1.4578   -2.9831   12.5075 H         1 <0>         0.4359
@<TRIPOS>BOND
     1    1    2 1
     2    1   34 1
     3    1   35 1
     4    1   36 1
     5    2    7 ar
     6    2    3 ar
     7    3    4 ar
     8    3   37 1
     9    4    5 ar
    10    4   38 1
    11    5    6 ar
    12    5   39 1
    13    6    7 ar
    14    6   33 1
    15    7    8 1
    16    8    9 am
    17    8   40 1
    18    9   10 2
    19    9   11 1
    20   11   15 1
    21   11   12 2
    22   12   13 1
    23   12   41 1
    24   13   14 2
    25   14   15 1
    26   14   16 1
    27   16   17 1
    28   16   42 1
    29   17   18 ar
    30   17   22 ar
    31   18   43 1
    32   18   19 ar
    33   19   24 1
    34   19   20 ar
    35   20   60 1
    36   20   21 ar
    37   21   23 1
    38   21   22 ar
    39   23   44 1
    40   23   45 1
    41   23   46 1
    42   24   29 1
    43   24   25 1
    44   25   26 1
    45   25   47 1
    46   25   48 1
    47   26   27 1
    48   26   49 1
    49   26   50 1
    50   27   28 1
    51   27   30 1
    52   27   61 1
    53   28   29 1
    54   28   51 1
    55   28   52 1
    56   29   53 1
    57   29   54 1
    58   30   31 1
    59   30   55 1
    60   30   56 1
    61   31   32 1
    62   31   57 1
    63   31   58 1
    64   32   59 1
@<TRIPOS>MOLECULE
ZINC03814434
   62    69     0     0     0
SMALL
USER_CHARGES

@<TRIPOS>ATOM
      1 C1         -0.1295    1.5952   -0.2973 C.3       1 <0>        -0.1687
      2 C2         -0.0862    0.0696   -0.1900 C.3       1 <0>         0.3342
      3 C3          0.5692   -0.4501   -1.4637 C.3       1 <0>         0.0405
      4 H1          1.4796    0.1159   -1.6612 H         1 <0>         0.1372
      5 C4          0.9167   -1.9328   -1.2889 C.3       1 <0>        -0.0061
      6 H2          1.3963   -2.3075   -2.1932 H         1 <0>         0.1555
      7 C5          1.8785   -2.0596   -0.1021 C.3       1 <0>        -0.1827
      8 C6          1.2061   -1.5198    1.1541 C.3       1 <0>         0.2999
      9 H3          1.9797   -1.4243    1.9161 H         1 <0>         0.1550
     10 O1          0.6555   -0.2442    0.9666 O.3       1 <0>        -0.3234
     11 N1          0.2189   -2.4746    1.6600 N.pl3     1 <0>        -0.5366
     12 C7          0.4705   -3.5508    2.4739 C.ar      1 <0>         0.1469
     13 C8          1.6649   -4.0152    3.0240 C.ar      1 <0>        -0.1522
     14 C9          1.5948   -5.1456    3.8201 C.ar      1 <0>        -0.0582
     15 C10         0.4006   -5.7997    4.0696 C.ar      1 <0>        -0.1457
     16 C11        -0.7984   -5.3597    3.5358 C.ar      1 <0>        -0.0280
     17 C12        -0.7487   -4.2198    2.7307 C.ar      1 <0>        -0.1131
     18 C13        -1.7893   -3.4830    2.0197 C.ar      1 <0>         0.0276
     19 C14        -1.1442   -2.4197    1.3841 C.ar      1 <0>         0.0376
     20 C15        -1.8806   -1.5095    0.6175 C.ar      1 <0>         0.0894
     21 N2         -1.4718   -0.3951   -0.1095 N.pl3     1 <0>        -0.5183
     22 C16        -2.5611    0.1913   -0.7090 C.ar      1 <0>         0.1618
     23 C17        -2.6521    1.3277   -1.5118 C.ar      1 <0>        -0.1305
     24 C18        -3.9109    1.6745   -1.9733 C.ar      1 <0>        -0.0737
     25 C19        -5.0393    0.9368   -1.6616 C.ar      1 <0>        -0.1358
     26 C20        -4.9745   -0.1955   -0.8662 C.ar      1 <0>        -0.0503
     27 C21        -3.7147   -0.5596   -0.3919 C.ar      1 <0>        -0.1042
     28 C22        -3.2693   -1.6660    0.4845 C.ar      1 <0>        -0.0360
     29 C23        -3.9084   -2.7313    1.1102 C.ar      1 <0>        -0.0288
     30 C24        -3.1873   -3.6421    1.8754 C.ar      1 <0>        -0.1255
     31 C25        -4.1221   -4.6480    2.4030 C.2       1 <0>         0.5632
     32 O2         -3.8062   -5.5851    3.1110 O.2       1 <0>        -0.5106
     33 N3         -5.3744   -4.3851    1.9926 N.am      1 <0>        -0.7162
     34 C26        -5.3495   -3.1771    1.1601 C.3       1 <0>         0.1358
     35 N4         -0.3067   -2.7008   -1.0216 N.4       1 <0>        -0.5252
     36 C27         0.0145   -4.1336   -0.9773 C.3       1 <0>        -0.0497
     37 O3         -0.3340   -0.2979   -2.5607 O.3       1 <0>        -0.3614
     38 C28         0.3101   -0.0933   -3.8198 C.3       1 <0>         0.0162
     39 H4          0.8261    2.0094    0.0240 H         1 <0>         0.0984
     40 H5         -0.3202    1.8814   -1.3317 H         1 <0>         0.1036
     41 H6         -0.9255    1.9818    0.3392 H         1 <0>         0.0921
     42 H7          2.1370   -3.1081    0.0458 H         1 <0>         0.1233
     43 H8          2.7835   -1.4869   -0.3048 H         1 <0>         0.1455
     44 H9          2.6036   -3.5149    2.8368 H         1 <0>         0.1365
     45 H10         2.5026   -5.5304    4.2610 H         1 <0>         0.1359
     46 H11         0.4045   -6.6780    4.6980 H         1 <0>         0.1352
     47 H12        -1.7278   -5.8736    3.7323 H         1 <0>         0.1600
     48 H13        -1.7792    1.9122   -1.7624 H         1 <0>         0.1440
     49 H14        -4.0153    2.5500   -2.5970 H         1 <0>         0.1336
     50 H15        -5.9967    1.2527   -2.0488 H         1 <0>         0.1332
     51 H16        -5.8575   -0.7687   -0.6249 H         1 <0>         0.1415
     52 H17        -6.1628   -4.9065    2.2103 H         1 <0>         0.4348
     53 H18        -5.9671   -2.3994    1.6094 H         1 <0>         0.1115
     54 H19        -5.7060   -3.4063    0.1559 H         1 <0>         0.1103
     55 H20        -0.6958   -2.4158   -0.1353 H         1 <0>         0.4186
     56 H21         0.4349   -4.4415   -1.9347 H         1 <0>         0.1256
     57 H22         0.7403   -4.3189   -0.1854 H         1 <0>         0.1191
     58 H23        -0.8932   -4.7035   -0.7789 H         1 <0>         0.1256
     59 H24         0.9168    0.8112   -3.7748 H         1 <0>         0.0633
     60 H25         0.9482   -0.9479   -4.0446 H         1 <0>         0.0514
     61 H26        -0.4433    0.0130   -4.6003 H         1 <0>         0.1100
     62 H27        -0.9785   -2.5293   -1.7546 H         1 <0>         0.4274
@<TRIPOS>BOND
     1    1    2 1
     2    1   39 1
     3    1   40 1
     4    1   41 1
     5    2   10 1
     6    2   21 1
     7    2    3 1
     8    3    4 1
     9    3    5 1
    10    3   37 1
    11    5    6 1
    12    5    7 1
    13    5   35 1
    14    7    8 1
    15    7   42 1
    16    7   43 1
    17    8    9 1
    18    8   10 1
    19    8   11 1
    20   11   19 1
    21   11   12 1
    22   12   17 ar
    23   12   13 ar
    24   13   14 ar
    25   13   44 1
    26   14   15 ar
    27   14   45 1
    28   15   16 ar
    29   15   46 1
    30   16   17 ar
    31   16   47 1
    32   17   18 1
    33   18   30 ar
    34   18   19 ar
    35   19   20 ar
    36   20   28 ar
    37   20   21 1
    38   21   22 1
    39   22   27 ar
    40   22   23 ar
    41   23   24 ar
    42   23   48 1
    43   24   25 ar
    44   24   49 1
    45   25   26 ar
    46   25   50 1
    47   26   27 ar
    48   26   51 1
    49   27   28 1
    50   28   29 ar
    51   29   34 1
    52   29   30 ar
    53   30   31 1
    54   31   32 2
    55   31   33 am
    56   33   34 1
    57   33   52 1
    58   34   53 1
    59   34   54 1
    60   35   36 1
    61   35   55 1
    62   35   62 1
    63   36   56 1
    64   36   57 1
    65   36   58 1
    66   37   38 1
    67   38   59 1
    68   38   60 1
    69   38   61 1
@<TRIPOS>MOLECULE
ZINC03938688
   39    41     0     0     0
SMALL
USER_CHARGES

@<TRIPOS>ATOM
      1 C1         -0.0095    1.3826    0.0704 C.ar      1 <0>        -0.0343
      2 C2          0.5587    1.0580   -1.1482 C.ar      1 <0>        -0.1609
      3 C3          1.7655    0.3862   -1.1955 C.ar      1 <0>         0.1753
      4 C4          2.4129    0.0342   -0.0053 C.ar      1 <0>        -0.1954
      5 C5          1.8304    0.3669    1.2233 C.ar      1 <0>         0.1741
      6 C6          0.6231    1.0388    1.2514 C.ar      1 <0>        -0.1610
      7 F1          2.4463    0.0317    2.3781 F         1 <0>        -0.1212
      8 C7          3.6999   -0.6827   -0.0456 C.2       1 <0>         0.6210
      9 O1          4.7383   -0.0615   -0.1600 O.2       1 <0>        -0.4669
     10 N1          3.7255   -2.0272    0.0446 N.am      1 <0>        -0.3962
     11 C8          4.8314   -2.8210    0.1249 C.2       1 <0>         0.5948
     12 N2          4.4249   -4.0694    0.1979 N.2       1 <0>        -0.5873
     13 C9          3.0869   -4.1118    0.1675 C.2       1 <0>         0.5191
     14 N3          2.6183   -2.8904    0.0808 N.2       1 <0>        -0.3480
     15 N4          2.3148   -5.2702    0.2247 N.pl3     1 <0>        -0.6226
     16 C10         2.9267   -6.5079    0.4407 C.ar      1 <0>         0.2365
     17 C11         4.1432   -6.5760    1.1080 C.ar      1 <0>        -0.1584
     18 C12         4.7450   -7.8008    1.3202 C.ar      1 <0>         0.0098
     19 C13         4.1379   -8.9586    0.8692 C.ar      1 <0>        -0.7033
     20 C14         2.9269   -8.8944    0.2046 C.ar      1 <0>         0.0112
     21 C15         2.3170   -7.6734   -0.0063 C.ar      1 <0>        -0.1777
     22 S1          4.9094  -10.5191    1.1415 S.o2      1 <0>         2.7034
     23 O2          4.4084  -11.3993    0.1448 O.2       1 <0>        -0.9656
     24 O3          6.2977  -10.2630    1.3036 O.2       1 <0>        -0.9650
     25 N5          4.3605  -11.0895    2.5960 N.pl3     1 <0>        -1.2510
     26 N6          6.1422   -2.3912    0.1281 N.pl3     1 <0>        -0.7911
     27 F2          2.3185    0.0697   -2.3868 F         1 <0>        -0.1201
     28 H1         -0.9506    1.9116    0.0998 H         1 <0>         0.1546
     29 H2          0.0576    1.3300   -2.0654 H         1 <0>         0.1549
     30 H3          0.1721    1.2963    2.1984 H         1 <0>         0.1546
     31 H4          1.3525   -5.2176    0.1147 H         1 <0>         0.4325
     32 H5          4.6180   -5.6722    1.4601 H         1 <0>         0.1556
     33 H6          5.6909   -7.8544    1.8385 H         1 <0>         0.1456
     34 H7          2.4556   -9.8005   -0.1466 H         1 <0>         0.1475
     35 H8          1.3691   -7.6243   -0.5215 H         1 <0>         0.1387
     36 H9          3.7284  -10.5673    3.1145 H         1 <0>         0.4165
     37 H10         4.6709  -11.9458    2.9296 H         1 <0>         0.4206
     38 H11         6.3422   -1.4439    0.0694 H         1 <0>         0.4292
     39 H12         6.8640   -3.0364    0.1890 H         1 <0>         0.4303
@<TRIPOS>BOND
     1    1    6 ar
     2    1    2 ar
     3    1   28 1
     4    2    3 ar
     5    2   29 1
     6    3    4 ar
     7    3   27 1
     8    4    5 ar
     9    4    8 1
    10    5    6 ar
    11    5    7 1
    12    6   30 1
    13    8    9 2
    14    8   10 am
    15   10   14 1
    16   10   11 1
    17   11   12 2
    18   11   26 1
    19   12   13 1
    20   13   14 2
    21   13   15 1
    22   15   16 1
    23   15   31 1
    24   16   21 ar
    25   16   17 ar
    26   17   18 ar
    27   17   32 1
    28   18   19 ar
    29   18   33 1
    30   19   20 ar
    31   19   22 1
    32   20   21 ar
    33   20   34 1
    34   21   35 1
    35   22   23 2
    36   22   24 2
    37   22   25 1
    38   25   36 1
    39   25   37 1
    40   26   38 1
    41   26   39 1
@<TRIPOS>MOLECULE
ZINC03834198
   55    58     0     0     0
SMALL
USER_CHARGES

@<TRIPOS>ATOM
      1 C1          2.2102    1.3214   -1.5438 C.3       1 <0>        -0.0473
      2 N1          2.0302   -0.1310   -1.4177 N.4       1 <0>        -0.3861
      3 C2          2.8485   -0.8135   -2.4272 C.3       1 <0>        -0.0039
      4 C3          2.6029   -2.3220   -2.3537 C.3       1 <0>        -0.1426
      5 C4          2.9828   -2.8281   -0.9591 C.3       1 <0>        -0.0980
      6 C5          2.1768   -2.0570    0.0901 C.3       1 <0>        -0.1436
      7 C6          2.4382   -0.5583   -0.0740 C.3       1 <0>        -0.0065
      8 C7          2.6653   -4.3210   -0.8526 C.3       1 <0>         0.0553
      9 O1          3.1265   -4.8175    0.4056 O.3       1 <0>        -0.2959
     10 C8          2.9210   -6.1358    0.6612 C.ar      1 <0>         0.1621
     11 C9          2.2972   -6.9233   -0.2811 C.ar      1 <0>        -0.1791
     12 C10         2.0867   -8.2816   -0.0149 C.ar      1 <0>         0.2018
     13 C11         2.5192   -8.8246    1.2204 C.ar      1 <0>        -0.1784
     14 C12         3.1508   -8.0026    2.1612 C.ar      1 <0>        -0.1424
     15 C13         3.3512   -6.6812    1.8787 C.ar      1 <0>         0.1099
     16 O2          3.9702   -5.8850    2.7909 O.3       1 <0>        -0.3030
     17 C14         4.3854   -6.4992    4.0125 C.3       1 <0>         0.0198
     18 C15         2.2930  -10.2009    1.4605 C.ar      1 <0>         0.4667
     19 N2          1.6881  -10.9114    0.5174 N.ar      1 <0>        -0.5768
     20 C16         1.3012  -10.3606   -0.6222 C.ar      1 <0>         0.3478
     21 N3          1.4842   -9.0917   -0.8996 N.ar      1 <0>        -0.5414
     22 N4          2.6915  -10.7885    2.6441 N.pl3     1 <0>        -0.6296
     23 C17         2.5831  -12.1741    2.8088 C.ar      1 <0>         0.1376
     24 C18         2.4560  -12.9987    1.6992 C.ar      1 <0>        -0.1039
     25 C19         2.3491  -14.3660    1.8644 C.ar      1 <0>        -0.0732
     26 C20         2.3685  -14.9152    3.1341 C.ar      1 <0>        -0.0857
     27 C21         2.4949  -14.0974    4.2430 C.ar      1 <0>        -0.1007
     28 C22         2.6081  -12.7284    4.0841 C.ar      1 <0>         0.0686
     29 F1          2.7372  -11.9301    5.1664 F         1 <0>        -0.1332
     30 Br1         2.2212  -16.7875    3.3546 Br        1 <0>        -0.0295
     31 H1          3.2589    1.5727   -1.3848 H         1 <0>         0.1219
     32 H2          1.9075    1.6398   -2.5414 H         1 <0>         0.1242
     33 H3          1.5979    1.8295   -0.7989 H         1 <0>         0.1242
     34 H4          2.5792   -0.4499   -3.4189 H         1 <0>         0.1343
     35 H5          3.9024   -0.6078   -2.2397 H         1 <0>         0.1306
     36 H6          1.5493   -2.5288   -2.5414 H         1 <0>         0.0934
     37 H7          3.2127   -2.8271   -3.1028 H         1 <0>         0.1176
     38 H8          4.0478   -2.6678   -0.7908 H         1 <0>         0.1030
     39 H9          1.1143   -2.2583   -0.0469 H         1 <0>         0.0893
     40 H10         2.4820   -2.3726    1.0878 H         1 <0>         0.1210
     41 H11         3.5008   -0.3580    0.0634 H         1 <0>         0.1299
     42 H12         1.8660   -0.0063    0.6716 H         1 <0>         0.1325
     43 H13         1.5883   -4.4698   -0.9292 H         1 <0>         0.0742
     44 H14         3.1645   -4.8571   -1.6597 H         1 <0>         0.0787
     45 H15         1.9724   -6.4960   -1.2182 H         1 <0>         0.1540
     46 H16         3.4818   -8.4122    3.1042 H         1 <0>         0.1414
     47 H17         4.8638   -5.7549    4.6491 H         1 <0>         0.1093
     48 H18         3.5165   -6.9116    4.5254 H         1 <0>         0.0597
     49 H19         5.0925   -7.2996    3.7947 H         1 <0>         0.0600
     50 H20         0.8133  -10.9840   -1.3569 H         1 <0>         0.2036
     51 H21         3.0467  -10.2411    3.3618 H         1 <0>         0.4241
     52 H22         2.4404  -12.5714    0.7074 H         1 <0>         0.1818
     53 H23         2.2499  -15.0072    1.0010 H         1 <0>         0.1463
     54 H24         2.5094  -14.5289    5.2329 H         1 <0>         0.1515
     55 H25         1.0589   -0.3624   -1.5626 H         1 <0>         0.4246
@<TRIPOS>BOND
     1    1    2 1
     2    1   31 1
     3    1   32 1
     4    1   33 1
     5    2    7 1
     6    2    3 1
     7    2   55 1
     8    3    4 1
     9    3   34 1
    10    3   35 1
    11    4    5 1
    12    4   36 1
    13    4   37 1
    14    5    6 1
    15    5    8 1
    16    5   38 1
    17    6    7 1
    18    6   39 1
    19    6   40 1
    20    7   41 1
    21    7   42 1
    22    8    9 1
    23    8   43 1
    24    8   44 1
    25    9   10 1
    26   10   15 ar
    27   10   11 ar
    28   11   12 ar
    29   11   45 1
    30   12   21 ar
    31   12   13 ar
    32   13   14 ar
    33   13   18 ar
    34   14   15 ar
    35   14   46 1
    36   15   16 1
    37   16   17 1
    38   17   47 1
    39   17   48 1
    40   17   49 1
    41   18   19 ar
    42   18   22 1
    43   19   20 ar
    44   20   21 ar
    45   20   50 1
    46   22   23 1
    47   22   51 1
    48   23   28 ar
    49   23   24 ar
    50   24   25 ar
    51   24   52 1
    52   25   26 ar
    53   25   53 1
    54   26   27 ar
    55   26   30 1
    56   27   28 ar
    57   27   54 1
    58   28   29 1
@<TRIPOS>MOLECULE
ZINC18825334
   48    52     0     0     0
SMALL
USER_CHARGES
4-[[9-chloro-7-(2,6-difluorophenyl)-5H-pyrimido[5,4-d][2]benzazepin-2-yl]amino]benzoic acid
@<TRIPOS>ATOM
      1 C1          2.2776    0.3903   -0.5698 C.ar      1 <0>        -0.0509
      2 C2          1.1421    1.1799   -0.5633 C.ar      1 <0>        -0.1622
      3 C3         -0.1043    0.6031   -0.4066 C.ar      1 <0>         0.1578
      4 C4         -0.2153   -0.7818   -0.2549 C.ar      1 <0>        -0.1229
      5 C5          0.9369   -1.5728   -0.2630 C.ar      1 <0>         0.1499
      6 C6          2.1761   -0.9809   -0.4208 C.ar      1 <0>        -0.1633
      7 F1          0.8397   -2.9124   -0.1175 F         1 <0>        -0.1231
      8 C7         -1.5453   -1.4071   -0.0861 C.2       1 <0>         0.2536
      9 N1         -2.1650   -1.7678   -1.1512 N.2       1 <0>        -0.4634
     10 C8         -3.4819   -2.3942   -1.1195 C.3       1 <0>         0.0964
     11 C9         -4.4898   -1.4068   -0.6038 C.ar      1 <0>        -0.2574
     12 C10        -5.5098   -0.9746   -1.4374 C.ar      1 <0>         0.2162
     13 N2         -6.3794   -0.0861   -0.9844 N.ar      1 <0>        -0.5366
     14 C11        -6.2835    0.3896    0.2490 C.ar      1 <0>         0.5701
     15 N3         -5.3286   -0.0031    1.0745 N.ar      1 <0>        -0.5552
     16 C12        -4.4183   -0.9022    0.6848 C.ar      1 <0>         0.2552
     17 C13        -3.3769   -1.3202    1.6484 C.ar      1 <0>        -0.0142
     18 C14        -2.0497   -1.5581    1.2881 C.ar      1 <0>        -0.0587
     19 C15        -1.1358   -1.9616    2.2712 C.ar      1 <0>        -0.0846
     20 C16        -1.5377   -2.1181    3.5805 C.ar      1 <0>        -0.0213
     21 C17        -2.8549   -1.8776    3.9370 C.ar      1 <0>        -0.0981
     22 C18        -3.7670   -1.4826    2.9833 C.ar      1 <0>        -0.0636
     23 Cl1        -0.3917   -2.6181    4.7848 Cl        1 <0>        -0.0577
     24 N4         -7.2095    1.3241    0.6851 N.pl3     1 <0>        -0.6261
     25 C19        -8.1519    1.8366   -0.2021 C.ar      1 <0>         0.1418
     26 C20        -9.4292    2.1564    0.2498 C.ar      1 <0>        -0.1598
     27 C21       -10.3616    2.6678   -0.6235 C.ar      1 <0>        -0.0590
     28 C22       -10.0281    2.8564   -1.9684 C.ar      1 <0>        -0.1232
     29 C23        -8.7457    2.5290   -2.4200 C.ar      1 <0>        -0.0681
     30 C24        -7.8166    2.0227   -1.5403 C.ar      1 <0>        -0.1261
     31 C25       -11.0259    3.3995   -2.9077 C.2       1 <0>         0.4893
     32 O1        -10.7345    3.5633   -4.0760 O.co2     1 <0>        -0.6323
     33 F2         -1.2128    1.3755   -0.4056 F         1 <0>        -0.1209
     34 H1          3.2486    0.8468   -0.6927 H         1 <0>         0.1483
     35 H2          1.2295    2.2500   -0.6806 H         1 <0>         0.1486
     36 H3          3.0673   -1.5909   -0.4273 H         1 <0>         0.1485
     37 H4         -3.4574   -3.2644   -0.4636 H         1 <0>         0.0791
     38 H5         -3.7607   -2.7058   -2.1261 H         1 <0>         0.1121
     39 H6         -5.5938   -1.3585   -2.4434 H         1 <0>         0.1778
     40 H7         -0.1076   -2.1514    2.0006 H         1 <0>         0.1393
     41 H8         -3.1667   -1.9996    4.9638 H         1 <0>         0.1452
     42 H9         -4.7921   -1.2962    3.2678 H         1 <0>         0.1468
     43 H10        -7.2009    1.6210    1.6085 H         1 <0>         0.4210
     44 H11        -9.6873    2.0066    1.2877 H         1 <0>         0.1185
     45 H12       -11.3510    2.9199   -0.2713 H         1 <0>         0.1349
     46 H13        -8.4848    2.6738   -3.4580 H         1 <0>         0.1294
     47 H14        -6.8261    1.7696   -1.8885 H         1 <0>         0.1253
     48 O2        -12.2611    3.7145   -2.4709 O.co2     1 <0>        -0.7564
@<TRIPOS>BOND
     1    1    6 ar
     2    1    2 ar
     3    1   34 1
     4    2    3 ar
     5    2   35 1
     6    3    4 ar
     7    3   33 1
     8    4    5 ar
     9    4    8 1
    10    5    6 ar
    11    5    7 1
    12    6   36 1
    13    8   18 1
    14    8    9 2
    15    9   10 1
    16   10   11 1
    17   10   37 1
    18   10   38 1
    19   11   16 ar
    20   11   12 ar
    21   12   13 ar
    22   12   39 1
    23   13   14 ar
    24   14   15 ar
    25   14   24 1
    26   15   16 ar
    27   16   17 1
    28   17   22 ar
    29   17   18 ar
    30   18   19 ar
    31   19   20 ar
    32   19   40 1
    33   20   21 ar
    34   20   23 1
    35   21   22 ar
    36   21   41 1
    37   22   42 1
    38   24   25 1
    39   24   43 1
    40   25   30 ar
    41   25   26 ar
    42   26   27 ar
    43   26   44 1
    44   27   28 ar
    45   27   45 1
    46   28   29 ar
    47   28   31 1
    48   29   30 ar
    49   29   46 1
    50   30   47 1
    51   31   32 2
    52   31   48 1
@<TRIPOS>MOLECULE
ZINC11617039
   55    58     0     0     0
SMALL
USER_CHARGES

@<TRIPOS>ATOM
      1 H1          0.2120    6.2074    3.3921 H         1 <0>         0.1353
      2 C1         -0.6814    5.6062    3.3098 C.ar      1 <0>         0.0196
      3 C2         -1.0741    5.1311    2.1031 C.ar      1 <0>        -0.1998
      4 C3         -2.2288    4.3474    1.9606 C.ar      1 <0>         0.2426
      5 C4         -3.0111    4.0257    3.0293 C.ar      1 <0>        -0.1858
      6 C5         -2.6578    4.4884    4.3143 C.ar      1 <0>         0.1374
      7 C6         -1.4433    5.3059    4.4600 C.ar      1 <0>        -0.2352
      8 C7         -1.3367    5.6110    5.8041 C.2       1 <0>         0.1330
      9 N1         -2.3705    5.0424    6.4391 N.pl3     1 <0>        -0.3190
     10 N2         -3.1795    4.3626    5.5213 N.2       1 <0>        -0.3200
     11 C8         -2.6225    5.1281    7.8797 C.3       1 <0>         0.0831
     12 H2         -3.2434    5.9992    8.0888 H         1 <0>         0.0888
     13 H3         -3.1369    4.2268    8.2129 H         1 <0>         0.0992
     14 H4         -1.6744    5.2222    8.4094 H         1 <0>         0.0983
     15 C9         -0.2495    6.4365    6.4425 C.3       1 <0>        -0.1025
     16 H5         -0.5455    7.4855    6.4477 H         1 <0>         0.0927
     17 H6         -0.0907    6.0987    7.4666 H         1 <0>         0.0807
     18 H7          0.6740    6.3223    5.8749 H         1 <0>         0.0943
     19 H8         -3.8955    3.4210    2.8932 H         1 <0>         0.1075
     20 N3         -2.5862    3.8853    0.6908 N.pl3     1 <0>        -0.5925
     21 C10        -3.6562    3.0160    0.5454 C.ar      1 <0>         0.5430
     22 C11        -3.4766    1.6392    0.6984 C.ar      1 <0>        -0.2193
     23 C12        -4.5711    0.8111    0.5450 C.ar      1 <0>         0.2156
     24 N4         -5.7510    1.3422    0.2594 N.ar      1 <0>        -0.5411
     25 C13        -5.8925    2.6520    0.1199 C.ar      1 <0>         0.6254
     26 N5         -4.8692    3.4808    0.2639 N.ar      1 <0>        -0.5160
     27 N6         -7.1427    3.1682   -0.1788 N.pl3     1 <0>        -0.6061
     28 C14        -7.2911    4.5338   -0.4396 C.ar      1 <0>         0.0902
     29 C15        -6.2697    5.2382   -1.0645 C.ar      1 <0>        -0.0370
     30 C16        -6.4197    6.5867   -1.3210 C.ar      1 <0>        -0.1186
     31 C17        -7.5850    7.2362   -0.9562 C.ar      1 <0>         0.0334
     32 C18        -8.6034    6.5381   -0.3338 C.ar      1 <0>        -0.6606
     33 C19        -8.4623    5.1877   -0.0798 C.ar      1 <0>        -0.0140
     34 S1        -10.0857    7.3705    0.1294 S.o2      1 <0>         2.7024
     35 O1        -10.5091    8.1093   -1.0082 O.2       1 <0>        -0.9461
     36 O2        -10.9137    6.4040    0.7615 O.2       1 <0>        -0.9598
     37 N7         -9.6818    8.4799    1.2907 N.pl3     1 <0>        -1.2481
     38 C20        -7.7450    8.7080   -1.2374 C.3       1 <0>        -0.1567
     39 H9         -8.1929    8.8433   -2.2218 H         1 <0>         0.1090
     40 H10        -8.3897    9.1545   -0.4804 H         1 <0>         0.0769
     41 H11        -6.7680    9.1908   -1.2132 H         1 <0>         0.0924
     42 H12        -4.4665   -0.2581    0.6563 H         1 <0>         0.2280
     43 H13        -2.5039    1.2316    0.9310 H         1 <0>         0.1988
     44 C21        -1.8301    4.3196   -0.4864 C.3       1 <0>         0.0917
     45 H14        -1.0078    3.6271   -0.6659 H         1 <0>         0.0746
     46 H15        -2.4881    4.3354   -1.3553 H         1 <0>         0.0729
     47 H16        -1.4320    5.3196   -0.3140 H         1 <0>         0.0953
     48 H17        -0.4834    5.3620    1.2289 H         1 <0>         0.1346
     49 H18        -7.9152    2.5823   -0.2071 H         1 <0>         0.4391
     50 H19        -5.3592    4.7318   -1.3490 H         1 <0>         0.1427
     51 H20        -5.6260    7.1349   -1.8068 H         1 <0>         0.1482
     52 H21        -9.2599    4.6421    0.4024 H         1 <0>         0.1564
     53 H22        -8.7604    8.5635    1.5820 H         1 <0>         0.4174
     54 H23       -10.3667    9.0460    1.6797 H         1 <0>         0.4270
     55 H24        -6.5221    0.7638    0.1506 H         1 <0>         0.4504
@<TRIPOS>BOND
     1    1    2 1
     2    2    7 ar
     3    2    3 ar
     4    3    4 ar
     5    3   48 1
     6    4    5 ar
     7    4   20 1
     8    5    6 ar
     9    5   19 1
    10    6   10 2
    11    6    7 ar
    12    7    8 2
    13    8    9 1
    14    8   15 1
    15    9   10 1
    16    9   11 1
    17   11   12 1
    18   11   13 1
    19   11   14 1
    20   15   16 1
    21   15   17 1
    22   15   18 1
    23   20   21 1
    24   20   44 1
    25   21   26 ar
    26   21   22 ar
    27   22   23 ar
    28   22   43 1
    29   23   24 ar
    30   23   42 1
    31   24   25 ar
    32   24   55 1
    33   25   26 ar
    34   25   27 1
    35   27   28 1
    36   27   49 1
    37   28   33 ar
    38   28   29 ar
    39   29   30 ar
    40   29   50 1
    41   30   31 ar
    42   30   51 1
    43   31   32 ar
    44   31   38 1
    45   32   33 ar
    46   32   34 1
    47   33   52 1
    48   34   35 2
    49   34   36 2
    50   34   37 1
    51   37   53 1
    52   37   54 1
    53   38   39 1
    54   38   40 1
    55   38   41 1
    56   44   45 1
    57   44   46 1
    58   44   47 1
@<TRIPOS>MOLECULE
ZINC03964325
   57    59     0     0     0
SMALL
USER_CHARGES

@<TRIPOS>ATOM
      1 C1          0.1489    2.0884    0.1150 C.3       1 <0>        -0.1876
      2 C2          0.1348    0.5603    0.1888 C.3       1 <0>        -0.0191
      3 N1         -1.2520    0.0881    0.2979 N.4       1 <0>        -0.3822
      4 C3         -1.9779    0.4111   -0.9377 C.3       1 <0>        -0.0142
      5 C4         -3.4549    0.0484   -0.7712 C.3       1 <0>        -0.1895
      6 C5         -1.2593   -1.3663    0.5041 C.3       1 <0>        -0.0265
      7 C6         -0.6131   -1.6936    1.8518 C.3       1 <0>         0.0952
      8 N2         -0.6203   -3.1440    2.0575 N.am      1 <0>        -0.7289
      9 C7         -0.0988   -3.6675    3.1846 C.2       1 <0>         0.6111
     10 O1          0.3779   -2.9358    4.0309 O.2       1 <0>        -0.5184
     11 C8         -0.1061   -5.1270    3.3915 C.2       1 <0>        -0.2420
     12 C9          0.9071   -6.0320    3.0089 C.2       1 <0>        -0.0577
     13 C10         0.4868   -7.2892    3.3960 C.2       1 <0>        -0.0075
     14 N3         -0.7476   -7.1595    3.9982 N.pl3     1 <0>        -0.4910
     15 H1         -1.2731   -7.8879    4.3645 H         1 <0>         0.4270
     16 C11        -1.1044   -5.8642    4.0022 C.2       1 <0>         0.1158
     17 C12        -2.3825   -5.3072    4.5743 C.3       1 <0>        -0.0999
     18 C13         1.1957   -8.4957    3.2079 C.2       1 <0>         0.0729
     19 C14         0.5100   -9.6674    2.9570 C.2       1 <0>        -0.1889
     20 C15         1.0648  -11.0377    2.8871 C.ar      1 <0>        -0.0736
     21 C16         2.3472  -11.5557    3.0375 C.ar      1 <0>        -0.1000
     22 C17         2.5553  -12.9162    2.9116 C.ar      1 <0>         0.0861
     23 C18         1.4888  -13.7593    2.6366 C.ar      1 <0>        -0.1139
     24 C19         0.2139  -13.2531    2.4856 C.ar      1 <0>        -0.1021
     25 C20        -0.0144  -11.8871    2.6092 C.ar      1 <0>         0.1282
     26 N4         -1.1765  -11.1301    2.5069 N.am      1 <0>        -0.6466
     27 C21        -0.9294   -9.8245    2.7079 C.2       1 <0>         0.5595
     28 O2         -1.7538   -8.9280    2.6842 O.2       1 <0>        -0.5156
     29 F1          3.7984  -13.4252    3.0561 F         1 <0>        -0.1318
     30 C22         2.1990   -5.6919    2.3116 C.3       1 <0>        -0.0931
     31 H2          1.1793    2.4435    0.1331 H         1 <0>         0.1076
     32 H3         -0.3308    2.4121   -0.8087 H         1 <0>         0.0811
     33 H4         -0.3916    2.4984    0.9682 H         1 <0>         0.0809
     34 H5          0.5888    0.1488   -0.7126 H         1 <0>         0.1317
     35 H6          0.6996    0.2334    1.0619 H         1 <0>         0.1337
     36 H7         -1.8867    1.4775   -1.1444 H         1 <0>         0.1351
     37 H8         -1.5554   -0.1571   -1.7664 H         1 <0>         0.1307
     38 H9         -3.5537   -1.0316   -0.6617 H         1 <0>         0.0802
     39 H10        -3.8523    0.5414    0.1160 H         1 <0>         0.0808
     40 H11        -4.0109    0.3769   -1.6492 H         1 <0>         0.1074
     41 H12        -2.2871   -1.7292    0.4963 H         1 <0>         0.1397
     42 H13        -0.6973   -1.8494   -0.2952 H         1 <0>         0.1376
     43 H14         0.4147   -1.3306    1.8596 H         1 <0>         0.0893
     44 H15        -1.1751   -1.2105    2.6511 H         1 <0>         0.0890
     45 H16        -1.0005   -3.7277    1.3824 H         1 <0>         0.4099
     46 H17        -3.1529   -5.3000    3.8032 H         1 <0>         0.0840
     47 H18        -2.7087   -5.9289    5.4080 H         1 <0>         0.0782
     48 H19        -2.2103   -4.2898    4.9254 H         1 <0>         0.0840
     49 H20         2.2744   -8.5020    3.2604 H         1 <0>         0.1589
     50 H21         3.1765  -10.8977    3.2512 H         1 <0>         0.1436
     51 H22         1.6578  -14.8215    2.5394 H         1 <0>         0.1485
     52 H23        -0.6084  -13.9196    2.2712 H         1 <0>         0.1415
     53 H24        -2.0541  -11.4980    2.3189 H         1 <0>         0.4217
     54 H25         2.9686   -5.4822    3.0545 H         1 <0>         0.0785
     55 H26         2.5107   -6.5337    1.6932 H         1 <0>         0.0726
     56 H27         2.0522   -4.8138    1.6827 H         1 <0>         0.0634
     57 H28        -1.7009    0.5410    1.0799 H         1 <0>         0.4247
@<TRIPOS>BOND
     1    1    2 1
     2    1   31 1
     3    1   32 1
     4    1   33 1
     5    2    3 1
     6    2   34 1
     7    2   35 1
     8    3    4 1
     9    3    6 1
    10    3   57 1
    11    4    5 1
    12    4   36 1
    13    4   37 1
    14    5   38 1
    15    5   39 1
    16    5   40 1
    17    6    7 1
    18    6   41 1
    19    6   42 1
    20    7    8 1
    21    7   43 1
    22    7   44 1
    23    8    9 am
    24    8   45 1
    25    9   10 2
    26    9   11 1
    27   11   16 2
    28   11   12 1
    29   12   13 2
    30   12   30 1
    31   13   14 1
    32   13   18 1
    33   14   15 1
    34   14   16 1
    35   16   17 1
    36   17   46 1
    37   17   47 1
    38   17   48 1
    39   18   19 2
    40   18   49 1
    41   19   27 1
    42   19   20 1
    43   20   25 ar
    44   20   21 ar
    45   21   22 ar
    46   21   50 1
    47   22   23 ar
    48   22   29 1
    49   23   24 ar
    50   23   51 1
    51   24   25 ar
    52   24   52 1
    53   25   26 1
    54   26   27 am
    55   26   53 1
    56   27   28 2
    57   30   54 1
    58   30   55 1
    59   30   56 1
@<TRIPOS>MOLECULE
ZINC03820040
   62    66     0     0     0
SMALL
USER_CHARGES
N-[4-[4-(4-methylpiperazin-1-yl)-6-[(5-methyl-2H-pyrazol-3-yl)amino]pyrimidin-2-yl]sulfanylphenyl]cyclopropanecarboxamide
@<TRIPOS>ATOM
      1 C1          1.8035   -7.6837    0.5070 C.3       1 <0>        -0.0779
      2 C2          2.3685   -6.3674    0.0389 C.2       1 <0>         0.0949
      3 C3          1.9325   -5.1020    0.4407 C.2       1 <0>        -0.2905
      4 C4          2.6904   -4.1743   -0.2066 C.2       1 <0>         0.3252
      5 N1          3.5799   -4.8447   -0.9836 N.pl3     1 <0>        -0.4853
      6 H1          4.2729   -4.4328   -1.5753 H         1 <0>         0.4473
      7 N2          3.3537   -6.2159   -0.8085 N.2       1 <0>        -0.2711
      8 N3          2.5778   -2.7905   -0.0888 N.pl3     1 <0>        -0.6296
      9 C5          1.3376   -2.2123    0.1391 C.ar      1 <0>         0.4706
     10 C6          0.1755   -2.9717    0.0343 C.ar      1 <0>        -0.2983
     11 C7         -1.0466   -2.3490    0.2714 C.ar      1 <0>         0.3791
     12 N4         -1.0643   -1.0564    0.5886 N.ar      1 <0>        -0.5664
     13 C8          0.0620   -0.3646    0.6795 C.ar      1 <0>         0.3511
     14 N5          1.2425   -0.9231    0.4557 N.ar      1 <0>        -0.5606
     15 S1         -0.0125    1.3444    1.1018 S.3       1 <0>         0.1303
     16 C9          1.7078    1.7032    1.2298 C.ar      1 <0>        -0.1638
     17 C10         2.3806    1.4637    2.4214 C.ar      1 <0>        -0.0284
     18 C11         3.7293    1.7409    2.5200 C.ar      1 <0>        -0.1315
     19 C12         4.4114    2.2681    1.4313 C.ar      1 <0>         0.1902
     20 C13         3.7379    2.5125    0.2417 C.ar      1 <0>        -0.1573
     21 C14         2.3903    2.2311    0.1410 C.ar      1 <0>        -0.0288
     22 N6          5.7793    2.5539    1.5333 N.am      1 <0>        -0.6744
     23 C15         6.5739    1.7808    2.2997 C.2       1 <0>         0.5466
     24 O1          6.1269    0.7811    2.8213 O.2       1 <0>        -0.5140
     25 C16         8.0178    2.1584    2.5086 C.3       1 <0>        -0.2022
     26 C17         9.0818    1.2604    1.8742 C.3       1 <0>        -0.1494
     27 C18         8.8679    1.2402    3.3890 C.3       1 <0>        -0.1425
     28 N7         -2.2296   -3.0657    0.1789 N.pl3     1 <0>        -0.4710
     29 C19        -2.3617   -3.6957   -1.1422 C.3       1 <0>         0.0277
     30 C20        -3.6379   -4.5399   -1.1765 C.3       1 <0>         0.0040
     31 C21        -4.6643   -3.0537    0.4349 C.3       1 <0>        -0.0004
     32 C22        -3.3881   -2.2095    0.4692 C.3       1 <0>         0.0347
     33 C23        -6.0501   -4.4431   -0.9842 C.3       1 <0>        -0.0407
     34 H2          2.3381   -8.0122    1.3982 H         1 <0>         0.0831
     35 H3          0.7460   -7.5623    0.7417 H         1 <0>         0.0784
     36 H4          1.9177   -8.4287   -0.2805 H         1 <0>         0.0774
     37 H5          1.1347   -4.8964    1.1389 H         1 <0>         0.1550
     38 H6          3.3667   -2.2314   -0.1662 H         1 <0>         0.4241
     39 H7          0.2211   -4.0192   -0.2246 H         1 <0>         0.1631
     40 H8          1.8494    1.0573    3.2693 H         1 <0>         0.1319
     41 H9          4.2533    1.5509    3.4451 H         1 <0>         0.1405
     42 H10         4.2686    2.9225   -0.6049 H         1 <0>         0.1339
     43 H11         1.8666    2.4209   -0.7843 H         1 <0>         0.1341
     44 H12         6.1543    3.3081    1.0523 H         1 <0>         0.4168
     45 H13         8.2224    3.2282    2.5520 H         1 <0>         0.1306
     46 H14         8.7374    0.3965    1.3057 H         1 <0>         0.0995
     47 H15         9.9866    1.7393    1.5000 H         1 <0>         0.1100
     48 H16         9.6320    1.7059    4.0114 H         1 <0>         0.1092
     49 H17         8.3827    0.3633    3.8175 H         1 <0>         0.1093
     50 H18        -2.4158   -2.9234   -1.9095 H         1 <0>         0.0737
     51 H19        -1.4982   -4.3342   -1.3286 H         1 <0>         0.1318
     52 H20        -3.5722   -5.3290   -0.4274 H         1 <0>         0.1439
     53 H21        -3.7533   -4.9852   -2.1646 H         1 <0>         0.1412
     54 H22        -4.6102   -3.8259    1.2022 H         1 <0>         0.1407
     55 H23        -5.5278   -2.4152    0.6217 H         1 <0>         0.1407
     56 H24        -3.2729   -1.7645    1.4575 H         1 <0>         0.1357
     57 H25        -3.4537   -1.4201   -0.2796 H         1 <0>         0.0793
     58 H26        -6.8948   -3.7714   -0.8313 H         1 <0>         0.1238
     59 H27        -6.1225   -4.8989   -1.9717 H         1 <0>         0.1230
     60 H28        -6.0632   -5.2226   -0.2224 H         1 <0>         0.1251
     61 N8         -4.7966   -3.6630   -0.9051 N.4       1 <0>        -0.4014
     62 H29        -4.8229   -2.9169   -1.6099 H         1 <0>         0.4281
@<TRIPOS>BOND
     1    1    2 1
     2    1   34 1
     3    1   35 1
     4    1   36 1
     5    2    7 2
     6    2    3 1
     7    3    4 2
     8    3   37 1
     9    4    5 1
    10    4    8 1
    11    5    6 1
    12    5    7 1
    13    8    9 1
    14    8   38 1
    15    9   14 ar
    16    9   10 ar
    17   10   11 ar
    18   10   39 1
    19   11   12 ar
    20   11   28 1
    21   12   13 ar
    22   13   14 ar
    23   13   15 1
    24   15   16 1
    25   16   21 ar
    26   16   17 ar
    27   17   18 ar
    28   17   40 1
    29   18   19 ar
    30   18   41 1
    31   19   20 ar
    32   19   22 1
    33   20   21 ar
    34   20   42 1
    35   21   43 1
    36   22   23 am
    37   22   44 1
    38   23   24 2
    39   23   25 1
    40   25   27 1
    41   25   26 1
    42   25   45 1
    43   26   27 1
    44   26   46 1
    45   26   47 1
    46   27   48 1
    47   27   49 1
    48   28   32 1
    49   28   29 1
    50   29   30 1
    51   29   50 1
    52   29   51 1
    53   30   52 1
    54   30   53 1
    55   30   61 1
    56   31   32 1
    57   31   54 1
    58   31   55 1
    59   31   61 1
    60   32   56 1
    61   32   57 1
    62   33   58 1
    63   33   59 1
    64   33   60 1
    65   33   61 1
    66   61   62 1
@<TRIPOS>MOLECULE
ZINC18825339
   59    62     0     0     0
SMALL
USER_CHARGES
5-[(Z)-(5-fluoro-2-oxo-indolin-3-ylidene)methyl]-N-[(2R)-2-hydroxy-3-morpholino-propyl]-2,4-dimethyl-1H-pyrrole-3-carboxamide
@<TRIPOS>ATOM
      1 C1          3.5607    0.7280    0.3667 C.3       1 <0>        -0.0956
      2 C2          2.0758    0.7165    0.1102 C.2       1 <0>        -0.0564
      3 C3          1.2591    1.8188   -0.0477 C.2       1 <0>        -0.0308
      4 N1         -0.0271    1.3691   -0.2640 N.pl3     1 <0>        -0.5068
      5 H1         -0.8436    2.0903   -0.4163 H         1 <0>         0.4494
      6 C4         -0.0354    0.0257   -0.2455 C.2       1 <0>         0.1277
      7 C5          1.2525   -0.4230   -0.0155 C.2       1 <0>        -0.2308
      8 C6          1.6847   -1.8291    0.0810 C.2       1 <0>         0.5980
      9 O1          2.0430   -2.4250   -0.9167 O.2       1 <0>        -0.5421
     10 N2          1.6827   -2.4542    1.2750 N.am      1 <0>        -0.7266
     11 C7          2.1121   -3.8516    1.3710 C.3       1 <0>         0.1299
     12 C8          2.0150   -4.3162    2.8255 C.3       1 <0>         0.1144
     13 H2          2.5334   -3.6206    3.5018 H         1 <0>         0.0568
     14 C9          2.5799   -5.7329    2.9471 C.3       1 <0>         0.0228
     15 N3          2.4867   -6.1790    4.3436 N.3       1 <0>        -0.5349
     16 C10         3.3671   -5.3829    5.2109 C.3       1 <0>         0.0083
     17 C11         3.1945   -5.8402    6.6618 C.3       1 <0>         0.0618
     18 O2          3.4694   -7.2408    6.7508 O.3       1 <0>        -0.3843
     19 C12         2.6296   -8.0463    5.9193 C.3       1 <0>         0.0614
     20 C13         2.7965   -7.6114    4.4609 C.3       1 <0>         0.0172
     21 O3          0.6463   -4.3123    3.2364 O.3       1 <0>        -0.5882
     22 C14        -1.2476   -0.8477   -0.4426 C.3       1 <0>        -0.0994
     23 C15         1.6686    3.1691    0.0027 C.2       1 <0>         0.0908
     24 C16         0.8216    4.1284    0.5209 C.2       1 <0>        -0.2125
     25 C17         1.0162    5.5955    0.5210 C.ar      1 <0>        -0.0684
     26 C18         2.0202    6.4240    0.0297 C.ar      1 <0>        -0.1043
     27 C19         1.9118    7.7937    0.1786 C.ar      1 <0>         0.0808
     28 C20         0.8031    8.3379    0.8097 C.ar      1 <0>        -0.1198
     29 C21        -0.2000    7.5233    1.2941 C.ar      1 <0>        -0.1061
     30 C22        -0.1080    6.1430    1.1533 C.ar      1 <0>         0.1250
     31 N4         -0.9593    5.1144    1.5420 N.am      1 <0>        -0.6604
     32 C23        -0.4649    3.9133    1.1971 C.2       1 <0>         0.5647
     33 O4         -0.9909    2.8351    1.4086 O.2       1 <0>        -0.5132
     34 F1          2.8866    8.6030   -0.2904 F         1 <0>        -0.1355
     35 H3          3.9167    1.7678    0.4131 H         1 <0>         0.0672
     36 H4          4.0776    0.1994   -0.4478 H         1 <0>         0.0746
     37 H5          3.7717    0.2252    1.3221 H         1 <0>         0.0710
     38 H6          1.3586   -1.9152    2.1775 H         1 <0>         0.4262
     39 H7          1.4633   -4.4786    0.7417 H         1 <0>         0.0750
     40 H8          3.1531   -3.9398    1.0266 H         1 <0>         0.0785
     41 H9          2.0023   -6.4143    2.3052 H         1 <0>         0.0900
     42 H10         3.6334   -5.7360    2.6307 H         1 <0>         0.0465
     43 H11         4.4130   -5.5254    4.9015 H         1 <0>         0.0459
     44 H12         3.1012   -4.3189    5.1257 H         1 <0>         0.0881
     45 H13         3.8925   -5.2859    7.3064 H         1 <0>         0.1001
     46 H14         2.1618   -5.6458    6.9871 H         1 <0>         0.0615
     47 H15         2.9156   -9.1033    6.0238 H         1 <0>         0.1009
     48 H16         1.5805   -7.9185    6.2243 H         1 <0>         0.0621
     49 H17         2.1104   -8.1883    3.8234 H         1 <0>         0.0898
     50 H18         3.8332   -7.7899    4.1393 H         1 <0>         0.0455
     51 H19         0.3780   -4.6185    4.2583 H         1 <0>         0.4136
     52 H20        -0.9523   -1.9052   -0.3757 H         1 <0>         0.0845
     53 H21        -1.6843   -0.6508   -1.4328 H         1 <0>         0.0777
     54 H22        -1.9909   -0.6245    0.3369 H         1 <0>         0.0809
     55 H23         2.6624    3.4568   -0.3709 H         1 <0>         0.1579
     56 H24         2.8828    5.9984   -0.4614 H         1 <0>         0.1409
     57 H25         0.7239    9.4091    0.9228 H         1 <0>         0.1443
     58 H26        -1.0583    7.9589    1.7840 H         1 <0>         0.1386
     59 H27        -1.9003    5.3463    2.0623 H         1 <0>         0.4455
@<TRIPOS>BOND
     1    1    2 1
     2    1   35 1
     3    1   36 1
     4    1   37 1
     5    2    7 1
     6    2    3 2
     7    3    4 1
     8    3   23 1
     9    4    5 1
    10    4    6 1
    11    6    7 2
    12    6   22 1
    13    7    8 1
    14    8    9 2
    15    8   10 am
    16   10   11 1
    17   10   38 1
    18   11   12 1
    19   11   39 1
    20   11   40 1
    21   12   13 1
    22   12   14 1
    23   12   21 1
    24   14   15 1
    25   14   41 1
    26   14   42 1
    27   15   20 1
    28   15   16 1
    29   16   17 1
    30   16   43 1
    31   16   44 1
    32   17   18 1
    33   17   45 1
    34   17   46 1
    35   18   19 1
    36   19   20 1
    37   19   47 1
    38   19   48 1
    39   20   49 1
    40   20   50 1
    41   21   51 1
    42   22   52 1
    43   22   53 1
    44   22   54 1
    45   23   24 2
    46   23   55 1
    47   24   32 1
    48   24   25 1
    49   25   30 ar
    50   25   26 ar
    51   26   27 ar
    52   26   56 1
    53   27   28 ar
    54   27   34 1
    55   28   29 ar
    56   28   57 1
    57   29   30 ar
    58   29   58 1
    59   30   31 1
    60   31   32 am
    61   31   59 1
    62   32   33 2
@<TRIPOS>MOLECULE
ZINC18825344
   59    62     0     0     0
SMALL
USER_CHARGES
5-[(Z)-(5-fluoro-2-oxo-indolin-3-ylidene)methyl]-N-[(2S)-2-hydroxy-3-morpholino-propyl]-2,4-dimethyl-1H-pyrrole-3-carboxamide
@<TRIPOS>ATOM
      1 C1          4.7056    0.6287    1.0117 C.3       1 <0>        -0.0968
      2 C2          3.2464    0.8378    0.6983 C.2       1 <0>        -0.0523
      3 C3          2.5980    2.0501    0.5678 C.2       1 <0>        -0.0327
      4 N1          1.2732    1.7961    0.2789 N.pl3     1 <0>        -0.5060
      5 H1          0.5720    2.6311    0.1339 H         1 <0>         0.4496
      6 C4          1.0783    0.4679    0.2258 C.2       1 <0>         0.1246
      7 C5          2.2801   -0.1676    0.4808 C.2       1 <0>        -0.2308
      8 C6          2.5088   -1.6234    0.5191 C.2       1 <0>         0.5976
      9 O1          2.8262   -2.2159   -0.4944 O.2       1 <0>        -0.5428
     10 N2          2.3662   -2.2977    1.6773 N.am      1 <0>        -0.7254
     11 C7          2.5935   -3.7444    1.7154 C.3       1 <0>         0.1298
     12 C8          2.3672   -4.2590    3.1384 C.3       1 <0>         0.1172
     13 H2          1.3599   -4.0040    3.4994 H         1 <0>         0.0560
     14 C9          2.6045   -5.7699    3.1781 C.3       1 <0>         0.0219
     15 N3          2.3382   -6.2720    4.5327 N.3       1 <0>        -0.5356
     16 C10         2.9762   -7.5793    4.7450 C.3       1 <0>         0.0168
     17 C11         2.7241   -8.0365    6.1842 C.3       1 <0>         0.0612
     18 O2          1.3152   -8.0759    6.4267 O.3       1 <0>        -0.3844
     19 C12         0.6618   -6.8191    6.2299 C.3       1 <0>         0.0617
     20 C13         0.8930   -6.3496    4.7911 C.3       1 <0>         0.0111
     21 O3          3.2765   -3.6103    4.0297 O.3       1 <0>        -0.5892
     22 C14        -0.2328   -0.2165   -0.0637 C.3       1 <0>        -0.0987
     23 C15         3.1876    3.3256    0.7056 C.2       1 <0>         0.0935
     24 C16         2.4515    4.3746    1.2192 C.2       1 <0>        -0.2157
     25 C17         2.8515    5.7966    1.3077 C.ar      1 <0>        -0.0669
     26 C18         3.9943    6.4912    0.9234 C.ar      1 <0>        -0.1048
     27 C19         4.0710    7.8545    1.1363 C.ar      1 <0>         0.0814
     28 C20         3.0098    8.5263    1.7247 C.ar      1 <0>        -0.1204
     29 C21         1.8704    7.8457    2.1029 C.ar      1 <0>        -0.1055
     30 C22         1.7753    6.4739    1.8965 C.ar      1 <0>         0.1237
     31 N4          0.7622    5.5637    2.1775 N.am      1 <0>        -0.6596
     32 C23         1.1039    4.3195    1.8021 C.2       1 <0>         0.5657
     33 O4          0.4171    3.3209    1.9242 O.2       1 <0>        -0.5153
     34 F1          5.1807    8.5334    0.7715 F         1 <0>        -0.1355
     35 H3          5.1994    1.6049    1.1269 H         1 <0>         0.0668
     36 H4          5.1808    0.0720    0.1906 H         1 <0>         0.0744
     37 H5          4.8016    0.0567    1.9464 H         1 <0>         0.0741
     38 H6          2.0791   -1.7617    2.5940 H         1 <0>         0.4273
     39 H7          1.8935   -4.2437    1.0293 H         1 <0>         0.0777
     40 H8          3.6268   -3.9615    1.4070 H         1 <0>         0.0736
     41 H9          1.9304   -6.2658    2.4641 H         1 <0>         0.0486
     42 H10         3.6486   -5.9844    2.9062 H         1 <0>         0.0884
     43 H11         2.5501   -8.3132    4.0451 H         1 <0>         0.0451
     44 H12         4.0587   -7.4917    4.5704 H         1 <0>         0.0900
     45 H13         3.1515   -9.0395    6.3305 H         1 <0>         0.1008
     46 H14         3.1986   -7.3305    6.8817 H         1 <0>         0.0620
     47 H15        -0.4170   -6.9344    6.4112 H         1 <0>         0.1000
     48 H16         1.0741   -6.0778    6.9303 H         1 <0>         0.0613
     49 H17         0.4415   -5.3564    4.6504 H         1 <0>         0.0873
     50 H18         0.4333   -7.0637    4.0920 H         1 <0>         0.0461
     51 H19         3.2627   -3.8533    5.1024 H         1 <0>         0.4141
     52 H20        -0.0899   -1.3070   -0.0417 H         1 <0>         0.0829
     53 H21        -0.5927    0.0862   -1.0581 H         1 <0>         0.0781
     54 H22        -0.9728    0.0718    0.6974 H         1 <0>         0.0803
     55 H23         4.2335    3.4835    0.4037 H         1 <0>         0.1584
     56 H24         4.8196    5.9664    0.4654 H         1 <0>         0.1411
     57 H25         3.0756    9.5918    1.8882 H         1 <0>         0.1443
     58 H26         1.0507    8.3797    2.5605 H         1 <0>         0.1385
     59 H27        -0.1701    5.9069    2.6497 H         1 <0>         0.4455
@<TRIPOS>BOND
     1    1    2 1
     2    1   35 1
     3    1   36 1
     4    1   37 1
     5    2    7 1
     6    2    3 2
     7    3    4 1
     8    3   23 1
     9    4    5 1
    10    4    6 1
    11    6    7 2
    12    6   22 1
    13    7    8 1
    14    8    9 2
    15    8   10 am
    16   10   11 1
    17   10   38 1
    18   11   12 1
    19   11   39 1
    20   11   40 1
    21   12   13 1
    22   12   14 1
    23   12   21 1
    24   14   15 1
    25   14   41 1
    26   14   42 1
    27   15   20 1
    28   15   16 1
    29   16   17 1
    30   16   43 1
    31   16   44 1
    32   17   18 1
    33   17   45 1
    34   17   46 1
    35   18   19 1
    36   19   20 1
    37   19   47 1
    38   19   48 1
    39   20   49 1
    40   20   50 1
    41   21   51 1
    42   22   52 1
    43   22   53 1
    44   22   54 1
    45   23   24 2
    46   23   55 1
    47   24   32 1
    48   24   25 1
    49   25   30 ar
    50   25   26 ar
    51   26   27 ar
    52   26   56 1
    53   27   28 ar
    54   27   34 1
    55   28   29 ar
    56   28   57 1
    57   29   30 ar
    58   29   58 1
    59   30   31 1
    60   31   32 am
    61   31   59 1
    62   32   33 2
@<TRIPOS>MOLECULE
ZINC23247639
   69    72     0     0     0
SMALL
USER_CHARGES
1-[4-[(4-ethylpiperazin-1-yl)methyl]-3-(trifluoromethyl)phenyl]-3-[4-(6-methylaminopyrimidin-4-yl)oxyphenyl]urea
@<TRIPOS>ATOM
      1 C1          8.9417    3.3719    8.2172 C.3       1 <0>        -0.1901
      2 C2         10.1498    2.9102    7.3997 C.3       1 <0>        -0.0070
      3 N1          9.9972    3.3533    6.0075 N.4       1 <0>        -0.4011
      4 C3         11.2367    3.1387    5.2477 C.3       1 <0>         0.0016
      5 C4         11.0629    3.6845    3.8284 C.3       1 <0>         0.0271
      6 N2          9.9288    3.0094    3.1822 N.3       1 <0>        -0.5300
      7 C5          8.6893    3.2240    3.9420 C.3       1 <0>         0.0232
      8 C6          8.8631    2.6781    5.3612 C.3       1 <0>        -0.0016
      9 C7          9.7762    3.4524    1.7899 C.3       1 <0>         0.0786
     10 C8          8.7879    2.5601    1.0842 C.ar      1 <0>        -0.0666
     11 C9          7.5022    3.0092    0.8434 C.ar      1 <0>        -0.0932
     12 C10         6.5958    2.1959    0.1923 C.ar      1 <0>        -0.0888
     13 C11         6.9731    0.9214   -0.2106 C.ar      1 <0>         0.1880
     14 C12         8.2646    0.4735    0.0326 C.ar      1 <0>        -0.1043
     15 C13         9.1683    1.2940    0.6793 C.ar      1 <0>        -0.1369
     16 C14        10.5702    0.8086    0.9441 C.3       1 <0>         0.5111
     17 F1         10.7250   -0.4786    0.4184 F         1 <0>        -0.1776
     18 F2         11.4860    1.6739    0.3362 F         1 <0>        -0.1774
     19 F3         10.8008    0.7797    2.3237 F         1 <0>        -0.1628
     20 N3          6.0552    0.0926   -0.8655 N.am      1 <0>        -0.6979
     21 C15         4.7513    0.1311   -0.5266 C.2       1 <0>         0.7117
     22 O1          4.3858    0.8194    0.4067 O.2       1 <0>        -0.5623
     23 N4          3.8526   -0.5934   -1.2222 N.am      1 <0>        -0.6900
     24 C16         2.4863   -0.4790   -0.9335 C.ar      1 <0>         0.1635
     25 C17         1.5516   -0.5518   -1.9576 C.ar      1 <0>        -0.1265
     26 C18         0.2052   -0.4394   -1.6724 C.ar      1 <0>        -0.0923
     27 C19        -0.2137   -0.2543   -0.3628 C.ar      1 <0>         0.0841
     28 C20         0.7198   -0.1815    0.6609 C.ar      1 <0>        -0.0957
     29 C21         2.0665   -0.2932    0.3769 C.ar      1 <0>        -0.1058
     30 O2         -1.5393   -0.1385   -0.0833 O.3       1 <0>        -0.2424
     31 C22        -2.3129   -1.2454   -0.1983 C.ar      1 <0>         0.3836
     32 C23        -3.6894   -1.1637   -0.0277 C.ar      1 <0>        -0.3134
     33 C24        -4.4409   -2.3284   -0.1601 C.ar      1 <0>         0.4631
     34 N5         -3.8165   -3.4721   -0.4341 N.ar      1 <0>        -0.5936
     35 C25        -2.5082   -3.5081   -0.5840 C.ar      1 <0>         0.3760
     36 N6         -1.7644   -2.4263   -0.4707 N.ar      1 <0>        -0.6039
     37 N7         -5.8178   -2.2988   -0.0034 N.pl3     1 <0>        -0.7218
     38 C26        -6.4937   -1.0344    0.2979 C.3       1 <0>         0.0891
     39 H1          9.0560    3.0401    9.2597 H         1 <0>         0.1066
     40 H2          8.0243    2.9380    7.7928 H         1 <0>         0.0798
     41 H3          8.8763    4.4695    8.1868 H         1 <0>         0.0803
     42 H4         11.0672    3.3441    7.8241 H         1 <0>         0.1306
     43 H5         10.2153    1.8126    7.4301 H         1 <0>         0.1269
     44 H6         12.0665    3.6630    5.7442 H         1 <0>         0.1361
     45 H7         11.4577    2.0621    5.2031 H         1 <0>         0.1357
     46 H8         10.8699    4.7665    3.8728 H         1 <0>         0.0625
     47 H9         11.9796    3.4990    3.2494 H         1 <0>         0.1239
     48 H10         8.4684    4.3007    3.9867 H         1 <0>         0.0621
     49 H11         7.8594    2.6998    3.4455 H         1 <0>         0.1239
     50 H12         9.0569    1.5962    5.3178 H         1 <0>         0.1351
     51 H13         7.9470    2.8635    5.9412 H         1 <0>         0.1359
     52 H14         9.4106    4.4897    1.7732 H         1 <0>         0.0663
     53 H15        10.7489    3.3982    1.2791 H         1 <0>         0.1073
     54 H16         7.2082    3.9988    1.1607 H         1 <0>         0.1358
     55 H17         5.5933    2.5489    0.0003 H         1 <0>         0.1466
     56 H18         8.5625   -0.5152   -0.2838 H         1 <0>         0.1447
     57 H19         6.3979   -0.5903   -1.6569 H         1 <0>         0.4387
     58 H20         4.1917   -1.2745   -2.0166 H         1 <0>         0.4355
     59 H21         1.8775   -0.6959   -2.9771 H         1 <0>         0.1334
     60 H22        -0.5220   -0.4960   -2.4689 H         1 <0>         0.1303
     61 H23         0.3932   -0.0371    1.6801 H         1 <0>         0.1327
     62 H24         2.7931   -0.2369    1.1740 H         1 <0>         0.1442
     63 H25        -4.1646   -0.2205    0.1982 H         1 <0>         0.1466
     64 H26        -2.0315   -4.4515   -0.8058 H         1 <0>         0.2000
     65 H27        -6.4030   -3.2246   -0.1053 H         1 <0>         0.4376
     66 H28        -7.5762   -1.2091    0.3856 H         1 <0>         0.0864
     67 H29        -6.3028   -0.3146   -0.5117 H         1 <0>         0.0603
     68 H30        -6.1096   -0.6302    1.2461 H         1 <0>         0.0599
     69 H31         9.7882    4.4332    6.0188 H         1 <0>         0.4364
@<TRIPOS>BOND
     1    1    2 1
     2    1   39 1
     3    1   40 1
     4    1   41 1
     5    2    3 1
     6    2   42 1
     7    2   43 1
     8    3    8 1
     9    3    4 1
    10    3   69 1
    11    4    5 1
    12    4   44 1
    13    4   45 1
    14    5    6 1
    15    5   46 1
    16    5   47 1
    17    6    7 1
    18    6    9 1
    19    7    8 1
    20    7   48 1
    21    7   49 1
    22    8   50 1
    23    8   51 1
    24    9   10 1
    25    9   52 1
    26    9   53 1
    27   10   15 ar
    28   10   11 ar
    29   11   12 ar
    30   11   54 1
    31   12   13 ar
    32   12   55 1
    33   13   14 ar
    34   13   20 1
    35   14   15 ar
    36   14   56 1
    37   15   16 1
    38   16   17 1
    39   16   18 1
    40   16   19 1
    41   20   21 am
    42   20   57 1
    43   21   22 2
    44   21   23 am
    45   23   24 1
    46   23   58 1
    47   24   29 ar
    48   24   25 ar
    49   25   26 ar
    50   25   59 1
    51   26   27 ar
    52   26   60 1
    53   27   28 ar
    54   27   30 1
    55   28   29 ar
    56   28   61 1
    57   29   62 1
    58   30   31 1
    59   31   36 ar
    60   31   32 ar
    61   32   33 ar
    62   32   63 1
    63   33   34 ar
    64   33   37 1
    65   34   35 ar
    66   35   36 ar
    67   35   64 1
    68   37   38 1
    69   37   65 1
    70   38   66 1
    71   38   67 1
    72   38   68 1
@<TRIPOS>MOLECULE
ZINC23247639
   69    72     0     0     0
SMALL
USER_CHARGES
1-[4-[(4-ethylpiperazin-1-yl)methyl]-3-(trifluoromethyl)phenyl]-3-[4-(6-methylaminopyrimidin-4-yl)oxyphenyl]urea
@<TRIPOS>ATOM
      1 C1          8.9417    3.3719    8.2172 C.3       1 <0>        -0.1569
      2 C2         10.1498    2.9102    7.3997 C.3       1 <0>         0.0486
      3 N1          9.9972    3.3533    6.0075 N.3       1 <0>        -0.5379
      4 C3         11.2367    3.1387    5.2477 C.3       1 <0>         0.0250
      5 C4         11.0629    3.6845    3.8284 C.3       1 <0>         0.0004
      6 N2          9.9288    3.0094    3.1822 N.4       1 <0>        -0.4202
      7 C5          8.6893    3.2240    3.9420 C.3       1 <0>        -0.0009
      8 C6          8.8631    2.6781    5.3612 C.3       1 <0>         0.0222
      9 C7          9.7762    3.4524    1.7899 C.3       1 <0>         0.0266
     10 C8          8.7879    2.5601    1.0842 C.ar      1 <0>        -0.1272
     11 C9          7.5022    3.0092    0.8434 C.ar      1 <0>        -0.0630
     12 C10         6.5958    2.1959    0.1923 C.ar      1 <0>        -0.0846
     13 C11         6.9731    0.9214   -0.2106 C.ar      1 <0>         0.2154
     14 C12         8.2646    0.4735    0.0326 C.ar      1 <0>        -0.0955
     15 C13         9.1683    1.2940    0.6793 C.ar      1 <0>        -0.1507
     16 C14        10.5702    0.8086    0.9441 C.3       1 <0>         0.5109
     17 F1         10.7250   -0.4786    0.4184 F         1 <0>        -0.1491
     18 F2         11.4860    1.6739    0.3362 F         1 <0>        -0.1584
     19 F3         10.8008    0.7797    2.3237 F         1 <0>        -0.1724
     20 N3          6.0552    0.0926   -0.8655 N.am      1 <0>        -0.6988
     21 C15         4.7513    0.1311   -0.5266 C.2       1 <0>         0.7114
     22 O1          4.3858    0.8194    0.4067 O.2       1 <0>        -0.5584
     23 N4          3.8526   -0.5934   -1.2222 N.am      1 <0>        -0.6858
     24 C16         2.4863   -0.4790   -0.9335 C.ar      1 <0>         0.1577
     25 C17         1.5516   -0.5518   -1.9576 C.ar      1 <0>        -0.1240
     26 C18         0.2052   -0.4394   -1.6724 C.ar      1 <0>        -0.0926
     27 C19        -0.2137   -0.2543   -0.3628 C.ar      1 <0>         0.0883
     28 C20         0.7198   -0.1815    0.6609 C.ar      1 <0>        -0.0957
     29 C21         2.0665   -0.2932    0.3769 C.ar      1 <0>        -0.1046
     30 O2         -1.5393   -0.1385   -0.0833 O.3       1 <0>        -0.2426
     31 C22        -2.3129   -1.2454   -0.1983 C.ar      1 <0>         0.3832
     32 C23        -3.6894   -1.1637   -0.0277 C.ar      1 <0>        -0.3126
     33 C24        -4.4409   -2.3284   -0.1601 C.ar      1 <0>         0.4635
     34 N5         -3.8165   -3.4721   -0.4341 N.ar      1 <0>        -0.5931
     35 C25        -2.5082   -3.5081   -0.5840 C.ar      1 <0>         0.3762
     36 N6         -1.7644   -2.4263   -0.4707 N.ar      1 <0>        -0.6049
     37 N7         -5.8178   -2.2988   -0.0034 N.pl3     1 <0>        -0.7212
     38 C26        -6.4937   -1.0344    0.2979 C.3       1 <0>         0.0887
     39 H1          9.0560    3.0401    9.2597 H         1 <0>         0.0714
     40 H2          8.0243    2.9380    7.7928 H         1 <0>         0.0562
     41 H3          8.8763    4.4695    8.1868 H         1 <0>         0.0696
     42 H4         11.0672    3.3441    7.8241 H         1 <0>         0.0895
     43 H5         10.2153    1.8126    7.4301 H         1 <0>         0.0455
     44 H6         12.0665    3.6630    5.7442 H         1 <0>         0.1253
     45 H7         11.4577    2.0621    5.2031 H         1 <0>         0.0582
     46 H8         10.8699    4.7665    3.8728 H         1 <0>         0.1369
     47 H9         11.9796    3.4990    3.2494 H         1 <0>         0.1329
     48 H10         8.4684    4.3007    3.9867 H         1 <0>         0.1355
     49 H11         7.8594    2.6998    3.4455 H         1 <0>         0.1312
     50 H12         9.0569    1.5962    5.3178 H         1 <0>         0.0572
     51 H13         7.9470    2.8635    5.9412 H         1 <0>         0.1266
     52 H14         9.4106    4.4897    1.7732 H         1 <0>         0.1472
     53 H15        10.7489    3.3982    1.2791 H         1 <0>         0.1420
     54 H16         7.2082    3.9988    1.1607 H         1 <0>         0.1512
     55 H17         5.5933    2.5489    0.0003 H         1 <0>         0.1583
     56 H18         8.5625   -0.5152   -0.2838 H         1 <0>         0.1556
     57 H19         6.3979   -0.5903   -1.6569 H         1 <0>         0.4440
     58 H20         4.1917   -1.2745   -2.0166 H         1 <0>         0.4371
     59 H21         1.8775   -0.6959   -2.9771 H         1 <0>         0.1338
     60 H22        -0.5220   -0.4960   -2.4689 H         1 <0>         0.1313
     61 H23         0.3932   -0.0371    1.6801 H         1 <0>         0.1341
     62 H24         2.7931   -0.2369    1.1740 H         1 <0>         0.1440
     63 H25        -4.1646   -0.2205    0.1982 H         1 <0>         0.1470
     64 H26        -2.0315   -4.4515   -0.8058 H         1 <0>         0.2001
     65 H27        -6.4030   -3.2246   -0.1053 H         1 <0>         0.4380
     66 H28        -7.5762   -1.2091    0.3856 H         1 <0>         0.0868
     67 H29        -6.3028   -0.3146   -0.5117 H         1 <0>         0.0604
     68 H30        -6.1096   -0.6302    1.2461 H         1 <0>         0.0603
     69 H31        10.1379    1.9295    3.1711 H         1 <0>         0.4253
@<TRIPOS>BOND
     1    1    2 1
     2    1   39 1
     3    1   40 1
     4    1   41 1
     5    2    3 1
     6    2   42 1
     7    2   43 1
     8    3    8 1
     9    3    4 1
    10    4    5 1
    11    4   44 1
    12    4   45 1
    13    5    6 1
    14    5   46 1
    15    5   47 1
    16    6    7 1
    17    6    9 1
    18    6   69 1
    19    7    8 1
    20    7   48 1
    21    7   49 1
    22    8   50 1
    23    8   51 1
    24    9   10 1
    25    9   52 1
    26    9   53 1
    27   10   15 ar
    28   10   11 ar
    29   11   12 ar
    30   11   54 1
    31   12   13 ar
    32   12   55 1
    33   13   14 ar
    34   13   20 1
    35   14   15 ar
    36   14   56 1
    37   15   16 1
    38   16   17 1
    39   16   18 1
    40   16   19 1
    41   20   21 am
    42   20   57 1
    43   21   22 2
    44   21   23 am
    45   23   24 1
    46   23   58 1
    47   24   29 ar
    48   24   25 ar
    49   25   26 ar
    50   25   59 1
    51   26   27 ar
    52   26   60 1
    53   27   28 ar
    54   27   30 1
    55   28   29 ar
    56   28   61 1
    57   29   62 1
    58   30   31 1
    59   31   36 ar
    60   31   32 ar
    61   32   33 ar
    62   32   63 1
    63   33   34 ar
    64   33   37 1
    65   34   35 ar
    66   35   36 ar
    67   35   64 1
    68   37   38 1
    69   37   65 1
    70   38   66 1
    71   38   67 1
    72   38   68 1
@<TRIPOS>MOLECULE
ZINC23247639
   68    71     0     0     0
SMALL
USER_CHARGES
1-[4-[(4-ethylpiperazin-1-yl)methyl]-3-(trifluoromethyl)phenyl]-3-[4-(6-methylaminopyrimidin-4-yl)oxyphenyl]urea
@<TRIPOS>ATOM
      1 C1          8.9417    3.3719    8.2172 C.3       1 <0>        -0.1510
      2 C2         10.1498    2.9102    7.3997 C.3       1 <0>         0.0499
      3 N1          9.9972    3.3533    6.0075 N.3       1 <0>        -0.5402
      4 C3         11.2367    3.1387    5.2477 C.3       1 <0>         0.0569
      5 C4         11.0629    3.6845    3.8284 C.3       1 <0>         0.0590
      6 N2          9.9288    3.0094    3.1822 N.3       1 <0>        -0.5268
      7 C5          8.6893    3.2240    3.9420 C.3       1 <0>         0.0561
      8 C6          8.8631    2.6781    5.3612 C.3       1 <0>         0.0550
      9 C7          9.7762    3.4524    1.7899 C.3       1 <0>         0.0729
     10 C8          8.7879    2.5601    1.0842 C.ar      1 <0>        -0.0447
     11 C9          7.5022    3.0092    0.8434 C.ar      1 <0>        -0.0942
     12 C10         6.5958    2.1959    0.1923 C.ar      1 <0>        -0.0884
     13 C11         6.9731    0.9214   -0.2106 C.ar      1 <0>         0.1720
     14 C12         8.2646    0.4735    0.0326 C.ar      1 <0>        -0.1038
     15 C13         9.1683    1.2940    0.6793 C.ar      1 <0>        -0.1404
     16 C14        10.5702    0.8086    0.9441 C.3       1 <0>         0.5095
     17 F1         10.7250   -0.4786    0.4184 F         1 <0>        -0.1841
     18 F2         11.4860    1.6739    0.3362 F         1 <0>        -0.1795
     19 F3         10.8008    0.7797    2.3237 F         1 <0>        -0.1519
     20 N3          6.0552    0.0926   -0.8655 N.am      1 <0>        -0.6948
     21 C15         4.7513    0.1311   -0.5266 C.2       1 <0>         0.7096
     22 O1          4.3858    0.8194    0.4067 O.2       1 <0>        -0.5587
     23 N4          3.8526   -0.5934   -1.2222 N.am      1 <0>        -0.6930
     24 C16         2.4863   -0.4790   -0.9335 C.ar      1 <0>         0.1697
     25 C17         1.5516   -0.5518   -1.9576 C.ar      1 <0>        -0.1297
     26 C18         0.2052   -0.4394   -1.6724 C.ar      1 <0>        -0.0930
     27 C19        -0.2137   -0.2543   -0.3628 C.ar      1 <0>         0.0783
     28 C20         0.7198   -0.1815    0.6609 C.ar      1 <0>        -0.0936
     29 C21         2.0665   -0.2932    0.3769 C.ar      1 <0>        -0.1059
     30 O2         -1.5393   -0.1385   -0.0833 O.3       1 <0>        -0.2412
     31 C22        -2.3129   -1.2454   -0.1983 C.ar      1 <0>         0.3851
     32 C23        -3.6894   -1.1637   -0.0277 C.ar      1 <0>        -0.3141
     33 C24        -4.4409   -2.3284   -0.1601 C.ar      1 <0>         0.4620
     34 N5         -3.8165   -3.4721   -0.4341 N.ar      1 <0>        -0.5954
     35 C25        -2.5082   -3.5081   -0.5840 C.ar      1 <0>         0.3753
     36 N6         -1.7644   -2.4263   -0.4707 N.ar      1 <0>        -0.6017
     37 N7         -5.8178   -2.2988   -0.0034 N.pl3     1 <0>        -0.7231
     38 C26        -6.4937   -1.0344    0.2979 C.3       1 <0>         0.0898
     39 H1          9.0560    3.0401    9.2597 H         1 <0>         0.0595
     40 H2          8.0243    2.9380    7.7928 H         1 <0>         0.0547
     41 H3          8.8763    4.4695    8.1868 H         1 <0>         0.0631
     42 H4         11.0672    3.3441    7.8241 H         1 <0>         0.0746
     43 H5         10.2153    1.8126    7.4301 H         1 <0>         0.0335
     44 H6         12.0665    3.6630    5.7442 H         1 <0>         0.0800
     45 H7         11.4577    2.0621    5.2031 H         1 <0>         0.0441
     46 H8         10.8699    4.7665    3.8728 H         1 <0>         0.0445
     47 H9         11.9796    3.4990    3.2494 H         1 <0>         0.0809
     48 H10         8.4684    4.3007    3.9867 H         1 <0>         0.0435
     49 H11         7.8594    2.6998    3.4455 H         1 <0>         0.0808
     50 H12         9.0569    1.5962    5.3178 H         1 <0>         0.0425
     51 H13         7.9470    2.8635    5.9412 H         1 <0>         0.0819
     52 H14         9.4106    4.4897    1.7732 H         1 <0>         0.0550
     53 H15        10.7489    3.3982    1.2791 H         1 <0>         0.0962
     54 H16         7.2082    3.9988    1.1607 H         1 <0>         0.1355
     55 H17         5.5933    2.5489    0.0003 H         1 <0>         0.1427
     56 H18         8.5625   -0.5152   -0.2838 H         1 <0>         0.1409
     57 H19         6.3979   -0.5903   -1.6569 H         1 <0>         0.4343
     58 H20         4.1917   -1.2745   -2.0166 H         1 <0>         0.4332
     59 H21         1.8775   -0.6959   -2.9771 H         1 <0>         0.1323
     60 H22        -0.5220   -0.4960   -2.4689 H         1 <0>         0.1282
     61 H23         0.3932   -0.0371    1.6801 H         1 <0>         0.1328
     62 H24         2.7931   -0.2369    1.1740 H         1 <0>         0.1466
     63 H25        -4.1646   -0.2205    0.1982 H         1 <0>         0.1463
     64 H26        -2.0315   -4.4515   -0.8058 H         1 <0>         0.1996
     65 H27        -6.4030   -3.2246   -0.1053 H         1 <0>         0.4362
     66 H28        -7.5762   -1.2091    0.3856 H         1 <0>         0.0851
     67 H29        -6.3028   -0.3146   -0.5117 H         1 <0>         0.0598
     68 H30        -6.1096   -0.6302    1.2461 H         1 <0>         0.0599
@<TRIPOS>BOND
     1    1    2 1
     2    1   39 1
     3    1   40 1
     4    1   41 1
     5    2    3 1
     6    2   42 1
     7    2   43 1
     8    3    8 1
     9    3    4 1
    10    4    5 1
    11    4   44 1
    12    4   45 1
    13    5    6 1
    14    5   46 1
    15    5   47 1
    16    6    7 1
    17    6    9 1
    18    7    8 1
    19    7   48 1
    20    7   49 1
    21    8   50 1
    22    8   51 1
    23    9   10 1
    24    9   52 1
    25    9   53 1
    26   10   15 ar
    27   10   11 ar
    28   11   12 ar
    29   11   54 1
    30   12   13 ar
    31   12   55 1
    32   13   14 ar
    33   13   20 1
    34   14   15 ar
    35   14   56 1
    36   15   16 1
    37   16   17 1
    38   16   18 1
    39   16   19 1
    40   20   21 am
    41   20   57 1
    42   21   22 2
    43   21   23 am
    44   23   24 1
    45   23   58 1
    46   24   29 ar
    47   24   25 ar
    48   25   26 ar
    49   25   59 1
    50   26   27 ar
    51   26   60 1
    52   27   28 ar
    53   27   30 1
    54   28   29 ar
    55   28   61 1
    56   29   62 1
    57   30   31 1
    58   31   36 ar
    59   31   32 ar
    60   32   33 ar
    61   32   63 1
    62   33   34 ar
    63   33   37 1
    64   34   35 ar
    65   35   36 ar
    66   35   64 1
    67   37   38 1
    68   37   65 1
    69   38   66 1
    70   38   67 1
    71   38   68 1
