@<TRIPOS>MOLECULE
ZINC00519611
   30    32     0     0     0
SMALL
USER_CHARGES
(1S)-2,3,4,9-tetrahydro-1H-carbazole-1-carboxamide
@<TRIPOS>ATOM
      1 C1          2.3924    0.0239   -0.0202 C.ar      1 <0>        -0.1476
      2 C2          2.3783    1.4121   -0.0121 C.ar      1 <0>        -0.0994
      3 C3          1.1861    2.1019    0.0020 C.ar      1 <0>        -0.1293
      4 C4         -0.0170    1.4040    0.0098 C.ar      1 <0>         0.1001
      5 C5          0.0021   -0.0041    0.0020 C.ar      1 <0>        -0.1005
      6 C6          1.2231   -0.6820   -0.0135 C.ar      1 <0>        -0.0708
      7 C7         -1.3962   -0.4216    0.0145 C.2       1 <0>        -0.1643
      8 C8         -2.1492    0.6948    0.0272 C.2       1 <0>         0.0936
      9 N1         -1.3383    1.7944    0.0300 N.pl3     1 <0>        -0.5698
     10 H1         -1.6471    2.7139    0.0388 H         1 <0>         0.4164
     11 C9         -3.6607    0.6856    0.0420 C.3       1 <0>        -0.0448
     12 H2         -4.0212    0.9089    1.0461 H         1 <0>         0.1148
     13 C10        -4.1434   -0.7063   -0.3807 C.3       1 <0>        -0.1064
     14 C11        -3.4155   -1.7723    0.4431 C.3       1 <0>        -0.1179
     15 C12        -1.9435   -1.8257    0.0156 C.3       1 <0>        -0.0471
     16 C13        -4.1826    1.7175   -0.9243 C.2       1 <0>         0.5207
     17 O1         -3.4074    2.4080   -1.5514 O.2       1 <0>        -0.5368
     18 N2         -5.5109    1.8730   -1.0917 N.am      1 <0>        -0.8507
     19 H3          3.3356   -0.5021   -0.0322 H         1 <0>         0.1218
     20 H4          3.3111    1.9565   -0.0174 H         1 <0>         0.1246
     21 H5          1.1856    3.1819    0.0079 H         1 <0>         0.1187
     22 H6          1.2426   -1.7618   -0.0205 H         1 <0>         0.1202
     23 H7         -3.9320   -0.8581   -1.4392 H         1 <0>         0.0756
     24 H8         -5.2170   -0.7856   -0.2098 H         1 <0>         0.0787
     25 H9         -3.8794   -2.7437    0.2723 H         1 <0>         0.0758
     26 H10        -3.4780   -1.5197    1.5016 H         1 <0>         0.0695
     27 H11        -1.8680   -2.2491   -0.9859 H         1 <0>         0.0716
     28 H12        -1.3772   -2.4391    0.7164 H         1 <0>         0.0744
     29 H13        -6.1309    1.3207   -0.5902 H         1 <0>         0.4037
     30 H14        -5.8468    2.5372   -1.7137 H         1 <0>         0.4051
@<TRIPOS>BOND
     1    1    6 ar
     2    1    2 ar
     3    1   19 1
     4    2    3 ar
     5    2   20 1
     6    3    4 ar
     7    3   21 1
     8    4    9 1
     9    4    5 ar
    10    5    6 ar
    11    5    7 1
    12    6   22 1
    13    7   15 1
    14    7    8 2
    15    8    9 1
    16    8   11 1
    17    9   10 1
    18   11   12 1
    19   11   13 1
    20   11   16 1
    21   13   14 1
    22   13   23 1
    23   13   24 1
    24   14   15 1
    25   14   25 1
    26   14   26 1
    27   15   27 1
    28   15   28 1
    29   16   17 2
    30   16   18 am
    31   18   29 1
    32   18   30 1
@<TRIPOS>MOLECULE
ZINC00519612
   30    32     0     0     0
SMALL
USER_CHARGES
(1R)-2,3,4,9-tetrahydro-1H-carbazole-1-carboxamide
@<TRIPOS>ATOM
      1 C1          0.6782   -2.6970   -0.0157 C.ar      1 <0>        -0.1476
      2 C2         -0.6544   -2.3078   -0.0047 C.ar      1 <0>        -0.0995
      3 C3         -0.9956   -0.9733    0.0042 C.ar      1 <0>        -0.1293
      4 C4          0.0021   -0.0041    0.0020 C.ar      1 <0>         0.1001
      5 C5          1.3525   -0.4033   -0.0102 C.ar      1 <0>        -0.1003
      6 C6          1.6744   -1.7624   -0.0190 C.ar      1 <0>        -0.0708
      7 C7          2.1325    0.8301   -0.0114 C.2       1 <0>        -0.1643
      8 C8          1.2613    1.8569   -0.0000 C.2       1 <0>         0.0935
      9 N1         -0.0166    1.3737    0.0096 N.pl3     1 <0>        -0.5699
     10 H1         -0.8183    1.9197    0.0165 H         1 <0>         0.4164
     11 C9          1.6784    3.3098   -0.0007 C.3       1 <0>        -0.0448
     12 H2          1.5675    3.7231    1.0018 H         1 <0>         0.1147
     13 C10         3.1451    3.3947   -0.4378 C.3       1 <0>        -0.1061
     14 C11         3.9819    2.4136    0.3882 C.3       1 <0>        -0.1181
     15 C12         3.6322    0.9778   -0.0221 C.3       1 <0>        -0.0470
     16 C13         0.8171    4.0834   -0.9653 C.2       1 <0>         0.5205
     17 O1         -0.0515    3.5152   -1.5928 O.2       1 <0>        -0.5367
     18 N2          1.0118    5.4067   -1.1308 N.am      1 <0>        -0.8507
     19 H3          0.9293   -3.7474   -0.0222 H         1 <0>         0.1218
     20 H4         -1.4309   -3.0584   -0.0033 H         1 <0>         0.1246
     21 H5         -2.0350   -0.6804    0.0132 H         1 <0>         0.1187
     22 H6          2.7085   -2.0736   -0.0276 H         1 <0>         0.1202
     23 H7          3.2245    3.1399   -1.4946 H         1 <0>         0.0757
     24 H8          3.5131    4.4085   -0.2798 H         1 <0>         0.0787
     25 H9          5.0410    2.5962    0.2065 H         1 <0>         0.0758
     26 H10         3.7652    2.5526    1.4473 H         1 <0>         0.0695
     27 H11         4.0745    0.2765    0.6855 H         1 <0>         0.0744
     28 H12         4.0125    0.7804   -1.0244 H         1 <0>         0.0719
     29 H13         1.7065    5.8612   -0.6289 H         1 <0>         0.4037
     30 H14         0.4574    5.9047   -1.7517 H         1 <0>         0.4051
@<TRIPOS>BOND
     1    1    6 ar
     2    1    2 ar
     3    1   19 1
     4    2    3 ar
     5    2   20 1
     6    3    4 ar
     7    3   21 1
     8    4    9 1
     9    4    5 ar
    10    5    6 ar
    11    5    7 1
    12    6   22 1
    13    7   15 1
    14    7    8 2
    15    8    9 1
    16    8   11 1
    17    9   10 1
    18   11   12 1
    19   11   13 1
    20   11   16 1
    21   13   14 1
    22   13   23 1
    23   13   24 1
    24   14   15 1
    25   14   25 1
    26   14   26 1
    27   15   27 1
    28   15   28 1
    29   16   17 2
    30   16   18 am
    31   18   29 1
    32   18   30 1
@<TRIPOS>MOLECULE
ZINC00551310
   33    35     0     0     0
SMALL
USER_CHARGES

@<TRIPOS>ATOM
      1 C1         -0.0184    1.5028    0.0103 C.3       1 <0>        -0.1091
      2 C2          0.0021   -0.0041    0.0020 C.ar      1 <0>        -0.1144
      3 C3          0.0057   -0.6859   -1.2073 C.ar      1 <0>        -0.0978
      4 C4          0.0243   -2.0629   -1.2365 C.ar      1 <0>        -0.1253
      5 C5          0.0399   -2.7801   -0.0449 C.ar      1 <0>         0.0962
      6 C6          0.0365   -2.0844    1.1795 C.ar      1 <0>        -0.0956
      7 C7          0.0226   -0.6878    1.1844 C.ar      1 <0>        -0.0719
      8 C8          0.0548   -3.1080    2.2194 C.2       1 <0>        -0.1653
      9 C9          0.0683   -4.3060    1.6044 C.2       1 <0>         0.0944
     10 N1          0.0596   -4.1260    0.2500 N.pl3     1 <0>        -0.5696
     11 H1          0.0659   -4.8398   -0.4066 H         1 <0>         0.4161
     12 C10         0.0909   -5.6258    2.3409 C.3       1 <0>        -0.0449
     13 H2         -0.9039   -6.0709    2.3253 H         1 <0>         0.1144
     14 C11         0.5165   -5.3672    3.7905 C.3       1 <0>        -0.1060
     15 C12        -0.3324   -4.2366    4.3787 C.3       1 <0>        -0.1180
     16 C13         0.0573   -2.9108    3.7134 C.3       1 <0>        -0.0467
     17 C14         1.0730   -6.5579    1.6795 C.2       1 <0>         0.5207
     18 O1          1.6957   -6.1911    0.7054 O.2       1 <0>        -0.5365
     19 N2          1.2595   -7.7992    2.1702 N.am      1 <0>        -0.8507
     20 H3          1.0042    1.8801    0.0026 H         1 <0>         0.0663
     21 H4         -0.5455    1.8639   -0.8728 H         1 <0>         0.0637
     22 H5         -0.5286    1.8543    0.9071 H         1 <0>         0.0634
     23 H6         -0.0066   -0.1314   -2.1340 H         1 <0>         0.1244
     24 H7          0.0264   -2.5843   -2.1823 H         1 <0>         0.1191
     25 H8          0.0244   -0.1497    2.1208 H         1 <0>         0.1198
     26 H9          0.3722   -6.2735    4.3786 H         1 <0>         0.0786
     27 H10         1.5683   -5.0821    3.8149 H         1 <0>         0.0755
     28 H11        -1.3872   -4.4399    4.1943 H         1 <0>         0.0694
     29 H12        -0.1564   -4.1704    5.4524 H         1 <0>         0.0757
     30 H13         1.0535   -2.6149    4.0422 H         1 <0>         0.0716
     31 H14        -0.6646   -2.1397    3.9824 H         1 <0>         0.0741
     32 H15         0.7615   -8.0926    2.9492 H         1 <0>         0.4036
     33 H16         1.8916   -8.3992    1.7445 H         1 <0>         0.4050
@<TRIPOS>BOND
     1    1    2 1
     2    1   20 1
     3    1   21 1
     4    1   22 1
     5    2    7 ar
     6    2    3 ar
     7    3    4 ar
     8    3   23 1
     9    4    5 ar
    10    4   24 1
    11    5   10 1
    12    5    6 ar
    13    6    7 ar
    14    6    8 1
    15    7   25 1
    16    8   16 1
    17    8    9 2
    18    9   10 1
    19    9   12 1
    20   10   11 1
    21   12   13 1
    22   12   14 1
    23   12   17 1
    24   14   15 1
    25   14   26 1
    26   14   27 1
    27   15   16 1
    28   15   28 1
    29   15   29 1
    30   16   30 1
    31   16   31 1
    32   17   18 2
    33   17   19 am
    34   19   32 1
    35   19   33 1
@<TRIPOS>MOLECULE
ZINC00551312
   33    35     0     0     0
SMALL
USER_CHARGES

@<TRIPOS>ATOM
      1 C1         -0.0184    1.5028    0.0103 C.3       1 <0>        -0.1091
      2 C2          0.0021   -0.0041    0.0020 C.ar      1 <0>        -0.1144
      3 C3          0.0056   -0.6859   -1.2073 C.ar      1 <0>        -0.0978
      4 C4          0.0237   -2.0629   -1.2365 C.ar      1 <0>        -0.1253
      5 C5          0.0394   -2.7801   -0.0448 C.ar      1 <0>         0.0961
      6 C6          0.0364   -2.0844    1.1795 C.ar      1 <0>        -0.0956
      7 C7          0.0226   -0.6877    1.1844 C.ar      1 <0>        -0.0719
      8 C8          0.0563   -3.1080    2.2194 C.2       1 <0>        -0.1653
      9 C9          0.0690   -4.3060    1.6043 C.2       1 <0>         0.0943
     10 N1          0.0589   -4.1259    0.2500 N.pl3     1 <0>        -0.5695
     11 H1          0.0643   -4.8398   -0.4067 H         1 <0>         0.4162
     12 C10         0.0901   -5.6258    2.3408 C.3       1 <0>        -0.0449
     13 H2          1.0965   -6.0437    2.3146 H         1 <0>         0.1144
     14 C11        -0.3272   -5.3789    3.7948 C.3       1 <0>        -0.1060
     15 C12         0.4965   -4.2254    4.3744 C.3       1 <0>        -0.1180
     16 C13         0.0640   -2.9108    3.7134 C.3       1 <0>        -0.0467
     17 C14        -0.8732   -6.5844    1.6894 C.2       1 <0>         0.5207
     18 O1         -1.5157   -6.2348    0.7221 O.2       1 <0>        -0.5364
     19 N2         -1.0206   -7.8303    2.1819 N.am      1 <0>        -0.8508
     20 H3          1.0042    1.8801    0.0026 H         1 <0>         0.0664
     21 H4         -0.5455    1.8639   -0.8728 H         1 <0>         0.0637
     22 H5         -0.5286    1.8543    0.9071 H         1 <0>         0.0634
     23 H6         -0.0063   -0.1314   -2.1340 H         1 <0>         0.1244
     24 H7          0.0253   -2.5843   -2.1823 H         1 <0>         0.1191
     25 H8          0.0242   -0.1497    2.1208 H         1 <0>         0.1198
     26 H9         -1.3861   -5.1228    3.8303 H         1 <0>         0.0755
     27 H10        -0.1519   -6.2808    4.3812 H         1 <0>         0.0786
     28 H11         0.3300   -4.1639    5.4498 H         1 <0>         0.0757
     29 H12         1.5545   -4.3997    4.1789 H         1 <0>         0.0694
     30 H13         0.7672   -2.1201    3.9750 H         1 <0>         0.0741
     31 H14        -0.9365   -2.6425    4.0527 H         1 <0>         0.0716
     32 H15        -0.5066   -8.1100    2.9555 H         1 <0>         0.4036
     33 H16        -1.6406   -8.4473    1.7626 H         1 <0>         0.4050
@<TRIPOS>BOND
     1    1    2 1
     2    1   20 1
     3    1   21 1
     4    1   22 1
     5    2    7 ar
     6    2    3 ar
     7    3    4 ar
     8    3   23 1
     9    4    5 ar
    10    4   24 1
    11    5   10 1
    12    5    6 ar
    13    6    7 ar
    14    6    8 1
    15    7   25 1
    16    8   16 1
    17    8    9 2
    18    9   10 1
    19    9   12 1
    20   10   11 1
    21   12   13 1
    22   12   14 1
    23   12   17 1
    24   14   15 1
    25   14   26 1
    26   14   27 1
    27   15   16 1
    28   15   28 1
    29   15   29 1
    30   16   30 1
    31   16   31 1
    32   17   18 2
    33   17   19 am
    34   19   32 1
    35   19   33 1
@<TRIPOS>MOLECULE
ZINC05528435
   22    24     0     0     0
SMALL
USER_CHARGES

@<TRIPOS>ATOM
      1 C1         -0.0164    1.3570    0.0095 C.ar      1 <0>        -0.1093
      2 C2          1.1686    2.0899    0.0021 C.ar      1 <0>        -0.0990
      3 C3          2.3783    1.4649   -0.0127 C.ar      1 <0>        -0.1129
      4 C4          2.4368    0.0625   -0.0208 C.ar      1 <0>        -0.0204
      5 C5          1.2319   -0.6838   -0.0133 C.ar      1 <0>        -0.0413
      6 C6          0.0021   -0.0041    0.0020 C.ar      1 <0>        -0.0950
      7 C7          1.2850   -2.0892   -0.0222 C.ar      1 <0>        -0.0775
      8 C8          2.4853   -2.7275   -0.0375 C.ar      1 <0>        -0.0931
      9 C9          3.6832   -2.0062   -0.0446 C.ar      1 <0>         0.0752
     10 C10         3.6692   -0.6198   -0.0366 C.ar      1 <0>         0.0794
     11 N1          4.9924   -0.1981   -0.0471 N.pl3     1 <0>        -0.5597
     12 H1          5.2945    0.7237   -0.0443 H         1 <0>         0.4487
     13 C11         5.7844   -1.2868   -0.0610 C.2       1 <0>         0.4999
     14 S1          7.4962   -1.2645   -0.0765 S.2       1 <0>        -0.5954
     15 N2          5.0210   -2.3956   -0.0602 N.pl3     1 <0>        -0.5632
     16 H2          5.3465   -3.3093   -0.0686 H         1 <0>         0.4504
     17 H3         -0.9632    1.8763    0.0259 H         1 <0>         0.1311
     18 H4          1.1270    3.1690    0.0079 H         1 <0>         0.1308
     19 H5          3.2887    2.0458   -0.0187 H         1 <0>         0.1256
     20 H6         -0.9244   -0.5591    0.0082 H         1 <0>         0.1374
     21 H7          0.3699   -2.6629   -0.0166 H         1 <0>         0.1473
     22 H8          2.5140   -3.8071   -0.0439 H         1 <0>         0.1410
@<TRIPOS>BOND
     1    1    6 ar
     2    1    2 ar
     3    1   17 1
     4    2    3 ar
     5    2   18 1
     6    3    4 ar
     7    3   19 1
     8    4   10 ar
     9    4    5 ar
    10    5    6 ar
    11    5    7 ar
    12    6   20 1
    13    7    8 ar
    14    7   21 1
    15    8    9 ar
    16    8   22 1
    17    9   15 1
    18    9   10 ar
    19   10   11 1
    20   11   12 1
    21   11   13 1
    22   13   14 2
    23   13   15 1
    24   15   16 1
@<TRIPOS>MOLECULE
ZINC00499303
   33    35     0     0     0
SMALL
USER_CHARGES

@<TRIPOS>ATOM
      1 C1          0.0633    1.9562    0.1444 C.ar      1 <0>        -0.0861
      2 C2          1.3000    2.5594    0.0805 C.ar      1 <0>        -0.1167
      3 C3          2.4520    1.7806    0.0586 C.ar      1 <0>         0.1080
      4 C4          2.3405    0.3787    0.1030 C.ar      1 <0>        -0.0950
      5 C5          1.0798   -0.2180    0.1672 C.ar      1 <0>        -0.0560
      6 C6         -0.0481    0.5722    0.1876 C.ar      1 <0>        -0.0601
      7 Cl1        -1.6176   -0.1654    0.2675 Cl        1 <0>        -0.0701
      8 C7          3.7098   -0.1350    0.0662 C.2       1 <0>        -0.1334
      9 C8          4.5333    0.9246    0.0082 C.2       1 <0>         0.0678
     10 N1          3.7951    2.0792   -0.0021 N.pl3     1 <0>        -0.5897
     11 H1          4.1643    2.9751   -0.0455 H         1 <0>         0.4171
     12 C9          6.0417    0.8519   -0.0273 C.3       1 <0>        -0.0463
     13 H2          6.4460    1.8262   -0.3016 H         1 <0>         0.1107
     14 C10         6.4784   -0.1902   -1.0589 C.3       1 <0>        -0.0955
     15 C11         6.5781   -1.5612   -0.3956 C.3       1 <0>        -0.1257
     16 C12         5.5219   -1.7044    0.6976 C.3       1 <0>        -0.1462
     17 C13         4.1270   -1.5828    0.0790 C.3       1 <0>        -0.0515
     18 C14         6.5577    0.4588    1.3329 C.2       1 <0>         0.5463
     19 O1          7.6002   -0.1530    1.4325 O.2       1 <0>        -0.5356
     20 N2          5.8608    0.7872    2.4388 N.am      1 <0>        -0.8610
     21 H3         -0.8283    2.5653    0.1655 H         1 <0>         0.1377
     22 H4          1.3750    3.6362    0.0471 H         1 <0>         0.1312
     23 H5          0.9895   -1.2937    0.2010 H         1 <0>         0.1339
     24 H6          5.7469   -0.2302   -1.8660 H         1 <0>         0.0762
     25 H7          7.4509    0.0874   -1.4655 H         1 <0>         0.0792
     26 H8          6.4256   -2.3361   -1.1468 H         1 <0>         0.0648
     27 H9          7.5688   -1.6770    0.0439 H         1 <0>         0.0862
     28 H10         5.6237   -2.6787    1.1756 H         1 <0>         0.0692
     29 H11         5.6595   -0.9190    1.4408 H         1 <0>         0.0872
     30 H12         3.4160   -2.1608    0.6692 H         1 <0>         0.0721
     31 H13         4.1475   -1.9643   -0.9419 H         1 <0>         0.0767
     32 H14         5.0271    1.2766    2.3591 H         1 <0>         0.4004
     33 H15         6.1929    0.5342    3.3143 H         1 <0>         0.4042
@<TRIPOS>BOND
     1    1    6 ar
     2    1    2 ar
     3    1   21 1
     4    2    3 ar
     5    2   22 1
     6    3   10 1
     7    3    4 ar
     8    4    5 ar
     9    4    8 1
    10    5    6 ar
    11    5   23 1
    12    6    7 1
    13    8   17 1
    14    8    9 2
    15    9   10 1
    16    9   12 1
    17   10   11 1
    18   12   13 1
    19   12   14 1
    20   12   18 1
    21   14   15 1
    22   14   24 1
    23   14   25 1
    24   15   16 1
    25   15   26 1
    26   15   27 1
    27   16   17 1
    28   16   28 1
    29   16   29 1
    30   17   30 1
    31   17   31 1
    32   18   19 2
    33   18   20 am
    34   20   32 1
    35   20   33 1
@<TRIPOS>MOLECULE
ZINC29043683
   66    70     0     0     0
SMALL
USER_CHARGES
3,4,5-trimethoxy-N-[2-[3-(piperazin-1-ylmethyl)imidazo[2,1-b]thiazol-6-yl]phenyl]benzamide
@<TRIPOS>ATOM
      1 C1         -0.5215   -5.9412  -13.5094 C.3       1 <0>         0.0172
      2 O1          0.7881   -5.6868  -12.9973 O.3       1 <0>        -0.2973
      3 C2          0.8699   -5.0135  -11.8184 C.ar      1 <0>         0.1441
      4 C3         -0.2834   -4.6089  -11.1727 C.ar      1 <0>        -0.1698
      5 C4         -0.1986   -3.9172   -9.9618 C.ar      1 <0>        -0.0617
      6 C5          1.0526   -3.6313   -9.4095 C.ar      1 <0>        -0.1970
      7 C6          2.2027   -4.0432  -10.0564 C.ar      1 <0>         0.1418
      8 C7          2.1154   -4.7319  -11.2633 C.ar      1 <0>         0.0596
      9 O2          3.2477   -5.1304  -11.9003 O.3       1 <0>        -0.3112
     10 C8          3.8208   -4.2163  -12.8374 C.3       1 <0>         0.0324
     11 O3          3.4207   -3.7705   -9.5163 O.3       1 <0>        -0.2959
     12 C9          3.4363   -3.0606   -8.2762 C.3       1 <0>         0.0211
     13 C10        -1.4282   -3.4841   -9.2702 C.2       1 <0>         0.5624
     14 O4         -2.5165   -3.7291   -9.7543 O.2       1 <0>        -0.5160
     15 N1         -1.3451   -2.8170   -8.1021 N.am      1 <0>        -0.6670
     16 C11        -2.5082   -2.4895   -7.4001 C.ar      1 <0>         0.1867
     17 C12        -3.6874   -2.2366   -8.0856 C.ar      1 <0>        -0.1308
     18 C13        -4.8349   -1.9069   -7.3901 C.ar      1 <0>        -0.0849
     19 C14        -4.8174   -1.8333   -6.0082 C.ar      1 <0>        -0.1373
     20 C15        -3.6527   -2.0880   -5.3125 C.ar      1 <0>        -0.0830
     21 C16        -2.4895   -2.4209   -6.0024 C.ar      1 <0>        -0.0560
     22 C17        -1.2355   -2.6955   -5.2597 C.2       1 <0>         0.1008
     23 C18        -1.0551   -2.5568   -3.9236 C.2       1 <0>        -0.0218
     24 N2          0.2566   -2.9197   -3.6363 N.pl3     1 <0>        -0.4196
     25 C19         1.0792   -3.0042   -2.5340 C.2       1 <0>         0.0659
     26 C20         2.3434   -3.4059   -2.6551 C.2       1 <0>        -0.1816
     27 S1          2.4709   -3.6995   -4.4122 S.3       1 <0>         0.1560
     28 C21         0.8049   -3.2562   -4.8467 C.2       1 <0>         0.1827
     29 N3         -0.0750   -3.1262   -5.7963 N.2       1 <0>        -0.4465
     30 C22         0.5400   -2.6437   -1.1737 C.3       1 <0>         0.1072
     31 N4          0.6544   -1.1933   -0.9703 N.3       1 <0>        -0.5377
     32 C23        -0.0714   -0.7718    0.2360 C.3       1 <0>         0.0233
     33 C24         0.0053    0.7510    0.3683 C.3       1 <0>         0.0034
     34 N5          1.4141    1.1642    0.4334 N.4       1 <0>        -0.5383
     35 C25         2.1399    0.7427   -0.7729 C.3       1 <0>         0.0018
     36 C26         2.0632   -0.7802   -0.9052 C.3       1 <0>         0.0144
     37 H1         -0.4434   -6.4886  -14.4603 H         1 <0>         0.1096
     38 H2         -1.0413   -4.9864  -13.6775 H         1 <0>         0.0615
     39 H3         -1.0878   -6.5444  -12.7845 H         1 <0>         0.0624
     40 H4         -1.2492   -4.8275  -11.6038 H         1 <0>         0.1518
     41 H5          1.1210   -3.0929   -8.4758 H         1 <0>         0.1371
     42 H6          4.7258   -4.6611  -13.2769 H         1 <0>         0.0983
     43 H7          4.0849   -3.2808  -12.3225 H         1 <0>         0.0467
     44 H8          3.0928   -4.0034  -13.6341 H         1 <0>         0.0484
     45 H9          4.4770   -2.9076   -7.9544 H         1 <0>         0.1075
     46 H10         2.8985   -3.6430   -7.5136 H         1 <0>         0.0551
     47 H11         2.9454   -2.0848   -8.4061 H         1 <0>         0.0568
     48 H12        -0.3617   -2.5303   -7.7012 H         1 <0>         0.4413
     49 H13        -3.7074   -2.2931   -9.1639 H         1 <0>         0.1505
     50 H14        -5.7499   -1.7059   -7.9274 H         1 <0>         0.1308
     51 H15        -5.7187   -1.5753   -5.4719 H         1 <0>         0.1288
     52 H16        -3.6435   -2.0295   -4.2341 H         1 <0>         0.1239
     53 H17        -1.7967   -2.2280   -3.2106 H         1 <0>         0.1836
     54 H18         3.0960   -3.5236   -1.8894 H         1 <0>         0.2155
     55 H19        -0.5170   -2.9410   -1.1077 H         1 <0>         0.1042
     56 H20         1.1178   -3.1693   -0.3992 H         1 <0>         0.0811
     57 H21        -1.1240   -1.0815    0.1575 H         1 <0>         0.1236
     58 H22         0.3839   -1.2411    1.1206 H         1 <0>         0.0655
     59 H23        -0.4753    1.2194   -0.5033 H         1 <0>         0.1364
     60 H24        -0.5129    1.0659    1.2860 H         1 <0>         0.1404
     61 H25         1.4715    2.2596    0.5162 H         1 <0>         0.4590
     62 H26         1.6846    1.2120   -1.6575 H         1 <0>         0.1351
     63 H27         3.1925    1.0524   -0.6945 H         1 <0>         0.1402
     64 H28         2.5430   -1.2496   -0.0337 H         1 <0>         0.0663
     65 H29         2.5807   -1.0960   -1.8230 H         1 <0>         0.1230
     66 H30         1.8908    0.7047    1.3118 H         1 <0>         0.4481
@<TRIPOS>BOND
     1    1    2 1
     2    1   37 1
     3    1   38 1
     4    1   39 1
     5    2    3 1
     6    3    8 ar
     7    3    4 ar
     8    4    5 ar
     9    4   40 1
    10    5    6 ar
    11    5   13 1
    12    6    7 ar
    13    6   41 1
    14    7    8 ar
    15    7   11 1
    16    8    9 1
    17    9   10 1
    18   10   42 1
    19   10   43 1
    20   10   44 1
    21   11   12 1
    22   12   45 1
    23   12   46 1
    24   12   47 1
    25   13   14 2
    26   13   15 am
    27   15   16 1
    28   15   48 1
    29   16   21 ar
    30   16   17 ar
    31   17   18 ar
    32   17   49 1
    33   18   19 ar
    34   18   50 1
    35   19   20 ar
    36   19   51 1
    37   20   21 ar
    38   20   52 1
    39   21   22 1
    40   22   29 1
    41   22   23 2
    42   23   24 1
    43   23   53 1
    44   24   28 1
    45   24   25 1
    46   25   26 2
    47   25   30 1
    48   26   27 1
    49   26   54 1
    50   27   28 1
    51   28   29 2
    52   30   31 1
    53   30   55 1
    54   30   56 1
    55   31   36 1
    56   31   32 1
    57   32   33 1
    58   32   57 1
    59   32   58 1
    60   33   34 1
    61   33   59 1
    62   33   60 1
    63   34   35 1
    64   34   61 1
    65   34   66 1
    66   35   36 1
    67   35   62 1
    68   35   63 1
    69   36   64 1
    70   36   65 1
@<TRIPOS>MOLECULE
ZINC29043612
   58    63     0     0     0
SMALL
USER_CHARGES

@<TRIPOS>ATOM
      1 C1         -0.1366    1.3388   -0.0536 C.ar      1 <0>        -0.1378
      2 C2          1.0247    2.0914   -0.0750 C.ar      1 <0>        -0.0810
      3 C3          2.2588    1.4700   -0.0708 C.ar      1 <0>        -0.1324
      4 C4          2.3392    0.0853   -0.0447 C.ar      1 <0>         0.1841
      5 C5          1.1661   -0.6778   -0.0226 C.ar      1 <0>        -0.0570
      6 C6         -0.0719   -0.0398   -0.0275 C.ar      1 <0>        -0.0827
      7 C7          1.2410   -2.1587    0.0050 C.2       1 <0>         0.1062
      8 C8          0.1898   -3.0105   -0.0755 C.2       1 <0>        -0.0523
      9 N1          0.6924   -4.3058   -0.0129 N.pl3     1 <0>        -0.4290
     10 C9          0.2083   -5.5959   -0.0372 C.2       1 <0>         0.0409
     11 C10         1.0350   -6.6367    0.0503 C.2       1 <0>        -0.1436
     12 S1          2.6258   -5.8351    0.1790 S.3       1 <0>         0.1629
     13 C11         2.0497   -4.1548    0.1045 C.2       1 <0>         0.1936
     14 N2          2.3679   -2.8932    0.1087 N.2       1 <0>        -0.4419
     15 C12        -1.2747   -5.8320   -0.1640 C.3       1 <0>         0.1146
     16 N3         -1.8957   -5.7702    1.1659 N.3       1 <0>        -0.5342
     17 C13        -1.8095   -4.4137    1.7249 C.3       1 <0>         0.0131
     18 C14        -2.4126   -4.4056    3.1313 C.3       1 <0>        -0.0013
     19 N4         -3.8147   -4.8383    3.0655 N.4       1 <0>        -0.5082
     20 C15        -3.8828   -6.2037    2.5282 C.3       1 <0>        -0.0022
     21 C16        -3.2919   -6.2268    1.1169 C.3       1 <0>         0.0236
     22 N5          3.5861   -0.5449   -0.0409 N.am      1 <0>        -0.6396
     23 C17         4.6678    0.1044    0.4331 C.2       1 <0>         0.5778
     24 O1          4.5428    1.1977    0.9486 O.2       1 <0>        -0.5033
     25 C18         6.0097   -0.5150    0.3257 C.ar      1 <0>         0.0504
     26 C19         7.1339    0.1644    0.8271 C.ar      1 <0>         0.1300
     27 N6          8.3299   -0.3694    0.7409 N.ar      1 <0>        -0.4196
     28 C20         8.4827   -1.5703    0.1712 C.ar      1 <0>         0.0996
     29 C21         9.7515   -2.1655    0.0662 C.ar      1 <0>        -0.0884
     30 C22         9.8777   -3.3881   -0.5177 C.ar      1 <0>        -0.0822
     31 C23         8.7648   -4.0646   -1.0167 C.ar      1 <0>        -0.0965
     32 C24         7.5206   -3.5218   -0.9342 C.ar      1 <0>        -0.0765
     33 C25         7.3488   -2.2586   -0.3361 C.ar      1 <0>         0.0762
     34 N7          6.1401   -1.7044   -0.2360 N.ar      1 <0>        -0.3854
     35 H1         -1.0972    1.8323   -0.0529 H         1 <0>         0.1293
     36 H2          0.9661    3.1696   -0.0954 H         1 <0>         0.1331
     37 H3          3.1615    2.0627   -0.0883 H         1 <0>         0.1529
     38 H4         -0.9807   -0.6232   -0.0108 H         1 <0>         0.1216
     39 H5         -0.8497   -2.7335   -0.1706 H         1 <0>         0.1787
     40 H6          0.8033   -7.6916    0.0451 H         1 <0>         0.2202
     41 H7         -1.7111   -5.0658   -0.8047 H         1 <0>         0.0626
     42 H8         -1.4500   -6.8147   -0.6016 H         1 <0>         0.1198
     43 H9         -0.7648   -4.1069    1.7755 H         1 <0>         0.1232
     44 H10        -2.3616   -3.7222    1.0884 H         1 <0>         0.0636
     45 H11        -1.8518   -5.0869    3.7711 H         1 <0>         0.1410
     46 H12        -2.3626   -3.3972    3.5423 H         1 <0>         0.1410
     47 H13        -4.2157   -4.8210    3.9912 H         1 <0>         0.4364
     48 H14        -3.3144   -6.8758    3.1711 H         1 <0>         0.1413
     49 H15        -4.9227   -6.5285    2.4921 H         1 <0>         0.1419
     50 H16        -3.8684   -5.5652    0.4703 H         1 <0>         0.0647
     51 H17        -3.3287   -7.2428    0.7237 H         1 <0>         0.1286
     52 H18         3.6732   -1.4497   -0.3794 H         1 <0>         0.4339
     53 H19         7.0124    1.1340    1.2869 H         1 <0>         0.1891
     54 H20        10.6232   -1.6541    0.4471 H         1 <0>         0.1464
     55 H21        10.8548   -3.8415   -0.5962 H         1 <0>         0.1425
     56 H22         8.8930   -5.0338   -1.4758 H         1 <0>         0.1415
     57 H23         6.6682   -4.0570   -1.3257 H         1 <0>         0.1424
     58 H24        -4.3312   -4.2143    2.4639 H         1 <0>         0.4264
@<TRIPOS>BOND
     1    1    6 ar
     2    1    2 ar
     3    1   35 1
     4    2    3 ar
     5    2   36 1
     6    3    4 ar
     7    3   37 1
     8    4    5 ar
     9    4   22 1
    10    5    6 ar
    11    5    7 1
    12    6   38 1
    13    7   14 1
    14    7    8 2
    15    8    9 1
    16    8   39 1
    17    9   13 1
    18    9   10 1
    19   10   11 2
    20   10   15 1
    21   11   12 1
    22   11   40 1
    23   12   13 1
    24   13   14 2
    25   15   16 1
    26   15   41 1
    27   15   42 1
    28   16   21 1
    29   16   17 1
    30   17   18 1
    31   17   43 1
    32   17   44 1
    33   18   19 1
    34   18   45 1
    35   18   46 1
    36   19   20 1
    37   19   47 1
    38   19   58 1
    39   20   21 1
    40   20   48 1
    41   20   49 1
    42   21   50 1
    43   21   51 1
    44   22   23 am
    45   22   52 1
    46   23   24 2
    47   23   25 1
    48   25   34 ar
    49   25   26 ar
    50   26   27 ar
    51   26   53 1
    52   27   28 ar
    53   28   33 ar
    54   28   29 ar
    55   29   30 ar
    56   29   54 1
    57   30   31 ar
    58   30   55 1
    59   31   32 ar
    60   31   56 1
    61   32   33 ar
    62   32   57 1
    63   33   34 ar
@<TRIPOS>MOLECULE
ZINC29135394
   35    38     0     0     0
SMALL
USER_CHARGES
(2S)-8-bromo-2-phenyl-1,2-dihydrobenzo[f]chromen-3-one
@<TRIPOS>ATOM
      1 C1         -1.2189    1.7505    0.0253 C.ar      1 <0>        -0.1107
      2 C2         -1.2372    3.1323    0.0601 C.ar      1 <0>        -0.1158
      3 C3         -0.0496    3.8397    0.0544 C.ar      1 <0>        -0.1139
      4 C4          1.1563    3.1654    0.0081 C.ar      1 <0>        -0.0959
      5 C5          1.1745    1.7838   -0.0321 C.ar      1 <0>        -0.1025
      6 C6         -0.0131    1.0764   -0.0251 C.ar      1 <0>        -0.1183
      7 C7          2.4510    3.9366    0.0008 C.3       1 <0>        -0.0914
      8 H1          3.2728    3.2089    0.0719 H         1 <0>         0.1322
      9 C8          2.4754    4.9251    1.1708 C.3       1 <0>        -0.0740
     10 C9          1.5960    6.1097    0.8591 C.ar      1 <0>        -0.1465
     11 C10         1.1436    6.9051    1.9312 C.ar      1 <0>        -0.0073
     12 C11         1.4914    6.5927    3.2574 C.ar      1 <0>        -0.1043
     13 C12         1.0429    7.3790    4.2734 C.ar      1 <0>        -0.0824
     14 C13         0.2410    8.4916    4.0203 C.ar      1 <0>        -0.0907
     15 C14        -0.1166    8.8229    2.7485 C.ar      1 <0>        -0.0595
     16 C15         0.3279    8.0332    1.6746 C.ar      1 <0>        -0.0656
     17 C16        -0.0211    8.3412    0.3482 C.ar      1 <0>        -0.0627
     18 C17         0.4245    7.5520   -0.6620 C.ar      1 <0>        -0.1217
     19 C18         1.2324    6.4300   -0.4136 C.ar      1 <0>         0.1377
     20 O1          1.6179    5.6831   -1.4851 O.3       1 <0>        -0.2891
     21 C19         2.5627    4.7452   -1.2767 C.2       1 <0>         0.4988
     22 O2          3.4568    4.5584   -2.0677 O.2       1 <0>        -0.4235
     23 Br1        -0.3592    9.5553    5.4640 Br        1 <0>        -0.0442
     24 H2         -2.1466    1.1978    0.0342 H         1 <0>         0.1252
     25 H3         -2.1793    3.6591    0.0963 H         1 <0>         0.1247
     26 H4         -0.0638    4.9191    0.0858 H         1 <0>         0.1291
     27 H5          2.1166    1.2570   -0.0687 H         1 <0>         0.1270
     28 H6          0.0012   -0.0031   -0.0561 H         1 <0>         0.1270
     29 H7          2.1054    4.4272    2.0792 H         1 <0>         0.1085
     30 H8          3.5061    5.2717    1.3366 H         1 <0>         0.0997
     31 H9          2.1110    5.7336    3.4684 H         1 <0>         0.1402
     32 H10         1.3116    7.1376    5.2912 H         1 <0>         0.1366
     33 H11        -0.7377    9.6875    2.5665 H         1 <0>         0.1421
     34 H12        -0.6395    9.2004    0.1344 H         1 <0>         0.1466
     35 H13         0.1517    7.7917   -1.6791 H         1 <0>         0.1445
@<TRIPOS>BOND
     1    1    6 ar
     2    1    2 ar
     3    1   24 1
     4    2    3 ar
     5    2   25 1
     6    3    4 ar
     7    3   26 1
     8    4    5 ar
     9    4    7 1
    10    5    6 ar
    11    5   27 1
    12    6   28 1
    13    7    8 1
    14    7   21 1
    15    7    9 1
    16    9   10 1
    17    9   29 1
    18    9   30 1
    19   10   19 ar
    20   10   11 ar
    21   11   16 ar
    22   11   12 ar
    23   12   13 ar
    24   12   31 1
    25   13   14 ar
    26   13   32 1
    27   14   15 ar
    28   14   23 1
    29   15   16 ar
    30   15   33 1
    31   16   17 ar
    32   17   18 ar
    33   17   34 1
    34   18   19 ar
    35   18   35 1
    36   19   20 1
    37   20   21 1
    38   21   22 2
@<TRIPOS>MOLECULE
ZINC29135396
   35    38     0     0     0
SMALL
USER_CHARGES
(2R)-8-bromo-2-phenyl-1,2-dihydrobenzo[f]chromen-3-one
@<TRIPOS>ATOM
      1 C1         -0.0124    1.0758    0.0061 C.ar      1 <0>        -0.1107
      2 C2          1.1484    1.7814    0.2622 C.ar      1 <0>        -0.1183
      3 C3          1.1306    3.1636    0.2656 C.ar      1 <0>        -0.1026
      4 C4         -0.0501    3.8402    0.0223 C.ar      1 <0>        -0.0960
      5 C5         -1.2119    3.1346   -0.2290 C.ar      1 <0>        -0.1140
      6 C6         -1.1931    1.7524   -0.2366 C.ar      1 <0>        -0.1159
      7 C7         -0.0705    5.3471    0.0307 C.3       1 <0>        -0.0912
      8 H1          0.9708    5.6939    0.1042 H         1 <0>         0.1323
      9 C8         -0.7462    5.8662   -1.2423 C.3       1 <0>        -0.0743
     10 C9         -2.2408    5.6980   -1.1344 C.ar      1 <0>        -0.1464
     11 C10        -3.0017    5.7169   -2.3207 C.ar      1 <0>        -0.0076
     12 C11        -2.3800    5.8620   -3.5737 C.ar      1 <0>        -0.1042
     13 C12        -3.1393    5.8825   -4.7028 C.ar      1 <0>        -0.0824
     14 C13        -4.5271    5.7621   -4.6375 C.ar      1 <0>        -0.0907
     15 C14        -5.1625    5.6188   -3.4412 C.ar      1 <0>        -0.0596
     16 C15        -4.4101    5.5913   -2.2548 C.ar      1 <0>        -0.0654
     17 C16        -5.0287    5.4424   -1.0014 C.ar      1 <0>        -0.0629
     18 C17        -4.2678    5.4170    0.1221 C.ar      1 <0>        -0.1213
     19 C18        -2.8697    5.5406    0.0632 C.ar      1 <0>         0.1375
     20 O1         -2.1845    5.4967    1.2393 O.3       1 <0>        -0.2882
     21 C19        -0.8848    5.8454    1.2084 C.2       1 <0>         0.4984
     22 O2         -0.3905    6.5230    2.0782 O.2       1 <0>        -0.4240
     23 Br1        -5.5416    5.7978   -6.2329 Br        1 <0>        -0.0442
     24 H2          0.0023   -0.0041    0.0001 H         1 <0>         0.1252
     25 H3          2.0700    1.2528    0.4564 H         1 <0>         0.1270
     26 H4          2.0384    3.7149    0.4616 H         1 <0>         0.1269
     27 H5         -2.1343    3.6632   -0.4190 H         1 <0>         0.1295
     28 H6         -2.1009    1.2011   -0.4326 H         1 <0>         0.1247
     29 H7         -0.5095    6.9323   -1.3744 H         1 <0>         0.0998
     30 H8         -0.3787    5.2987   -2.1100 H         1 <0>         0.1085
     31 H9         -1.3062    5.9566   -3.6395 H         1 <0>         0.1403
     32 H10        -2.6599    5.9940   -5.6641 H         1 <0>         0.1366
     33 H11        -6.2380    5.5272   -3.4048 H         1 <0>         0.1422
     34 H12        -6.1024    5.3491   -0.9328 H         1 <0>         0.1466
     35 H13        -4.7476    5.2996    1.0825 H         1 <0>         0.1445
@<TRIPOS>BOND
     1    1    6 ar
     2    1    2 ar
     3    1   24 1
     4    2    3 ar
     5    2   25 1
     6    3    4 ar
     7    3   26 1
     8    4    5 ar
     9    4    7 1
    10    5    6 ar
    11    5   27 1
    12    6   28 1
    13    7    8 1
    14    7   21 1
    15    7    9 1
    16    9   10 1
    17    9   29 1
    18    9   30 1
    19   10   19 ar
    20   10   11 ar
    21   11   16 ar
    22   11   12 ar
    23   12   13 ar
    24   12   31 1
    25   13   14 ar
    26   13   32 1
    27   14   15 ar
    28   14   23 1
    29   15   16 ar
    30   15   33 1
    31   16   17 ar
    32   17   18 ar
    33   17   34 1
    34   18   19 ar
    35   18   35 1
    36   19   20 1
    37   20   21 1
    38   21   22 2
@<TRIPOS>MOLECULE
ZINC29043608
   59    64     0     0     0
SMALL
USER_CHARGES
N-[2-[3-[[(3R)-3-hydroxypyrrolidin-1-yl]methyl]imidazo[2,1-b]thiazol-6-yl]phenyl]naphthalene-2-carboxamide
@<TRIPOS>ATOM
      1 C1         -5.9172    7.6776   -0.5408 C.ar      1 <0>        -0.0986
      2 C2         -4.7858    8.2334   -1.1351 C.ar      1 <0>        -0.1157
      3 C3         -3.6317    7.5207   -1.2458 C.ar      1 <0>        -0.0946
      4 C4         -3.5768    6.2040   -0.7542 C.ar      1 <0>        -0.0648
      5 C5         -2.4033    5.4415   -0.8526 C.ar      1 <0>        -0.0236
      6 C6         -2.3881    4.1481   -0.3574 C.ar      1 <0>        -0.1423
      7 C7         -3.5387    3.5968    0.2349 C.ar      1 <0>        -0.0918
      8 C8         -4.6808    4.3219    0.3437 C.ar      1 <0>        -0.1068
      9 C9         -4.7283    5.6388   -0.1497 C.ar      1 <0>        -0.0310
     10 C10        -5.9011    6.4062   -0.0544 C.ar      1 <0>        -0.1152
     11 C11        -1.1559    3.3392   -0.4575 C.2       1 <0>         0.5609
     12 O1         -0.1603    3.8094   -0.9730 O.2       1 <0>        -0.5187
     13 N1         -1.1355    2.0801    0.0227 N.am      1 <0>        -0.6729
     14 C12         0.0594    1.3555    0.0331 C.ar      1 <0>         0.1998
     15 C13         1.2766    2.0202    0.0591 C.ar      1 <0>        -0.1378
     16 C14         2.4571    1.3022    0.0631 C.ar      1 <0>        -0.0747
     17 C15         2.4333   -0.0814    0.0423 C.ar      1 <0>        -0.1424
     18 C16         1.2294   -0.7563    0.0164 C.ar      1 <0>        -0.0768
     19 C17         0.0328   -0.0436    0.0116 C.ar      1 <0>        -0.0768
     20 C18        -1.2633   -0.7639   -0.0157 C.2       1 <0>         0.1306
     21 C19        -1.4289   -2.1072    0.0545 C.2       1 <0>        -0.0593
     22 N2         -2.7944   -2.3661   -0.0009 N.pl3     1 <0>        -0.4335
     23 C20        -3.6326   -3.4597    0.0216 C.2       1 <0>        -0.0118
     24 C21        -4.9534   -3.3091   -0.0620 C.2       1 <0>        -0.1375
     25 S1         -5.1157   -1.5346   -0.1844 S.3       1 <0>         0.2158
     26 C22        -3.3851   -1.1342   -0.1123 C.2       1 <0>         0.1880
     27 N3         -2.4829   -0.1967   -0.1206 N.2       1 <0>        -0.4426
     28 C23        -3.0476   -4.8432    0.1428 C.3       1 <0>         0.0587
     29 N4         -2.6690   -5.3332   -1.1893 N.4       1 <0>        -0.4063
     30 C24        -3.8657   -5.5996   -2.0157 C.3       1 <0>        -0.0076
     31 C25        -3.4748   -6.8104   -2.8993 C.3       1 <0>        -0.1330
     32 C26        -2.6164   -7.6507   -1.9175 C.3       1 <0>         0.1063
     33 H1         -3.1663   -8.3986   -1.3274 H         1 <0>         0.1023
     34 C27        -1.8804   -6.5751   -1.0911 C.3       1 <0>        -0.0416
     35 O2         -1.6841   -8.4652   -2.6312 O.3       1 <0>        -0.5860
     36 H2         -6.8207    8.2645   -0.4653 H         1 <0>         0.1286
     37 H3         -4.8255    9.2441   -1.5136 H         1 <0>         0.1294
     38 H4         -2.7625    7.9638   -1.7090 H         1 <0>         0.1332
     39 H5         -1.5192    5.8595   -1.3110 H         1 <0>         0.1443
     40 H6         -3.5116    2.5852    0.6122 H         1 <0>         0.1210
     41 H7         -5.5548    3.8865    0.8051 H         1 <0>         0.1333
     42 H8         -6.7863    5.9893    0.4029 H         1 <0>         0.1311
     43 H9         -2.0594    1.6228    0.4065 H         1 <0>         0.4434
     44 H10         1.3017    3.0998    0.0754 H         1 <0>         0.1524
     45 H11         3.4029    1.8231    0.0826 H         1 <0>         0.1328
     46 H12         3.3604   -0.6354    0.0460 H         1 <0>         0.1304
     47 H13         1.2154   -1.8361    0.0003 H         1 <0>         0.1228
     48 H14        -0.6431   -2.8432    0.1399 H         1 <0>         0.1888
     49 H15        -5.7257   -4.0640   -0.0575 H         1 <0>         0.2274
     50 H16        -2.1572   -4.8096    0.7878 H         1 <0>         0.1433
     51 H17        -3.7945   -5.5198    0.5838 H         1 <0>         0.1567
     52 H18        -4.7191   -5.8310   -1.3613 H         1 <0>         0.1340
     53 H19        -4.0984   -4.7112   -2.6212 H         1 <0>         0.1363
     54 H20        -4.3852   -7.3297   -3.2332 H         1 <0>         0.1246
     55 H21        -2.9113   -6.4580   -3.7758 H         1 <0>         0.1093
     56 H22        -0.8715   -6.4016   -1.4936 H         1 <0>         0.1417
     57 H23        -1.8071   -6.8805   -0.0369 H         1 <0>         0.1350
     58 H24        -0.9967   -9.1250   -2.0815 H         1 <0>         0.4339
     59 H25        -2.0602   -4.5452   -1.6566 H         1 <0>         0.4480
@<TRIPOS>BOND
     1    1   10 ar
     2    1    2 ar
     3    1   36 1
     4    2    3 ar
     5    2   37 1
     6    3    4 ar
     7    3   38 1
     8    4    9 ar
     9    4    5 ar
    10    5    6 ar
    11    5   39 1
    12    6    7 ar
    13    6   11 1
    14    7    8 ar
    15    7   40 1
    16    8    9 ar
    17    8   41 1
    18    9   10 ar
    19   10   42 1
    20   11   12 2
    21   11   13 am
    22   13   14 1
    23   13   43 1
    24   14   19 ar
    25   14   15 ar
    26   15   16 ar
    27   15   44 1
    28   16   17 ar
    29   16   45 1
    30   17   18 ar
    31   17   46 1
    32   18   19 ar
    33   18   47 1
    34   19   20 1
    35   20   27 1
    36   20   21 2
    37   21   22 1
    38   21   48 1
    39   22   26 1
    40   22   23 1
    41   23   24 2
    42   23   28 1
    43   24   25 1
    44   24   49 1
    45   25   26 1
    46   26   27 2
    47   28   29 1
    48   28   50 1
    49   28   51 1
    50   29   34 1
    51   29   30 1
    52   29   59 1
    53   30   31 1
    54   30   52 1
    55   30   53 1
    56   31   32 1
    57   31   54 1
    58   31   55 1
    59   32   33 1
    60   32   34 1
    61   32   35 1
    62   34   56 1
    63   34   57 1
    64   35   58 1
@<TRIPOS>MOLECULE
ZINC00093985
   30    32     0     0     0
SMALL
USER_CHARGES
6-chloro-2,3,4,9-tetrahydro-1H-carbazole-1-carboxamide
@<TRIPOS>ATOM
      1 C1          1.1556    3.1724    0.0081 C.ar      1 <0>        -0.0911
      2 C2         -0.0363    3.8626    0.0222 C.ar      1 <0>        -0.1143
      3 C3         -1.2411    3.1688    0.0294 C.ar      1 <0>         0.1045
      4 C4         -1.2297    1.7606    0.0174 C.ar      1 <0>        -0.0899
      5 C5         -0.0126    1.0758    0.0080 C.ar      1 <0>        -0.0592
      6 C6          1.1688    1.7834    0.0005 C.ar      1 <0>        -0.0606
      7 Cl1         2.6831    0.9347   -0.0180 Cl        1 <0>        -0.0739
      8 C7         -2.6302    1.3503    0.0364 C.2       1 <0>        -0.1600
      9 C8         -3.3775    2.4706    0.0480 C.2       1 <0>         0.1000
     10 N1         -2.5612    3.5662    0.0432 N.pl3     1 <0>        -0.5670
     11 H1         -2.8655    4.4872    0.0483 H         1 <0>         0.4190
     12 C9         -4.8890    2.4694    0.0630 C.3       1 <0>        -0.0458
     13 H2         -5.2454    2.6940    1.0683 H         1 <0>         0.1167
     14 C10        -5.3790    1.0798   -0.3591 C.3       1 <0>        -0.1070
     15 C11        -4.6568    0.0107    0.4658 C.3       1 <0>        -0.1181
     16 C12        -3.1850   -0.0508    0.0388 C.3       1 <0>        -0.0487
     17 C13        -5.4056    3.5032   -0.9042 C.2       1 <0>         0.5211
     18 O1         -4.6269    4.1770   -1.5448 O.2       1 <0>        -0.5368
     19 N2         -6.7331    3.6789   -1.0573 N.am      1 <0>        -0.8500
     20 H3          2.0886    3.7162    0.0032 H         1 <0>         0.1362
     21 H4         -0.0350    4.9426    0.0273 H         1 <0>         0.1294
     22 H5          0.0021   -0.0041    0.0020 H         1 <0>         0.1325
     23 H6         -5.1681    0.9260   -1.4174 H         1 <0>         0.0764
     24 H7         -6.4530    1.0062   -0.1883 H         1 <0>         0.0799
     25 H8         -5.1258   -0.9585    0.2957 H         1 <0>         0.0771
     26 H9         -4.7183    0.2645    1.5240 H         1 <0>         0.0703
     27 H10        -3.1114   -0.4757   -0.9623 H         1 <0>         0.0737
     28 H11        -2.6222   -0.6666    0.7403 H         1 <0>         0.0762
     29 H12        -7.3559    3.1400   -0.5449 H         1 <0>         0.4040
     30 H13        -7.0656    4.3443   -1.6798 H         1 <0>         0.4056
@<TRIPOS>BOND
     1    1    6 ar
     2    1    2 ar
     3    1   20 1
     4    2    3 ar
     5    2   21 1
     6    3   10 1
     7    3    4 ar
     8    4    5 ar
     9    4    8 1
    10    5    6 ar
    11    5   22 1
    12    6    7 1
    13    8   16 1
    14    8    9 2
    15    9   10 1
    16    9   12 1
    17   10   11 1
    18   12   13 1
    19   12   14 1
    20   12   17 1
    21   14   15 1
    22   14   23 1
    23   14   24 1
    24   15   16 1
    25   15   25 1
    26   15   26 1
    27   16   27 1
    28   16   28 1
    29   17   18 2
    30   17   19 am
    31   19   29 1
    32   19   30 1
@<TRIPOS>MOLECULE
ZINC00093989
   30    32     0     0     0
SMALL
USER_CHARGES
6-chloro-2,3,4,9-tetrahydro-1H-carbazole-1-carboxamide
@<TRIPOS>ATOM
      1 C1          1.1742    2.4387    0.0039 C.ar      1 <0>        -0.0911
      2 C2          1.1749    3.8161    0.0110 C.ar      1 <0>        -0.1143
      3 C3         -0.0289    4.5115    0.0261 C.ar      1 <0>         0.1046
      4 C4         -1.2422    3.7965    0.0337 C.ar      1 <0>        -0.0900
      5 C5         -1.2255    2.4001    0.0209 C.ar      1 <0>        -0.0591
      6 C6         -0.0215    1.7317    0.0116 C.ar      1 <0>        -0.0606
      7 Cl1         0.0021   -0.0041    0.0020 Cl        1 <0>        -0.0739
      8 C7         -2.2984    4.8035    0.0496 C.2       1 <0>        -0.1598
      9 C8         -1.7027    6.0113    0.0523 C.2       1 <0>         0.0999
     10 N1         -0.3457    5.8532    0.0368 N.pl3     1 <0>        -0.5669
     11 H1          0.2992    6.5777    0.0341 H         1 <0>         0.4190
     12 C9         -2.4602    7.3192    0.0716 C.3       1 <0>        -0.0457
     13 H2         -2.4556    7.7599   -0.9253 H         1 <0>         0.1166
     14 C10        -3.9024    7.0399    0.5089 C.3       1 <0>        -0.1068
     15 C11        -4.4780    5.8956   -0.3303 C.3       1 <0>        -0.1183
     16 C12        -3.7891    4.5826    0.0617 C.3       1 <0>        -0.0487
     17 C13        -1.8100    8.2665    1.0468 C.2       1 <0>         0.5208
     18 O1         -0.8278    7.9183    1.6673 O.2       1 <0>        -0.5369
     19 N2         -2.3199    9.5007    1.2293 N.am      1 <0>        -0.8500
     20 H3          2.1121    1.9033   -0.0072 H         1 <0>         0.1362
     21 H4          2.1104    4.3557    0.0051 H         1 <0>         0.1294
     22 H5         -2.1529    1.8467    0.0224 H         1 <0>         0.1325
     23 H6         -3.9149    6.7600    1.5622 H         1 <0>         0.0764
     24 H7         -4.5060    7.9359    0.3639 H         1 <0>         0.0799
     25 H8         -5.5493    5.8131   -0.1469 H         1 <0>         0.0770
     26 H9         -4.3043    6.0966   -1.3874 H         1 <0>         0.0703
     27 H10        -4.1074    4.2861    1.0612 H         1 <0>         0.0737
     28 H11        -4.0527    3.8030   -0.6530 H         1 <0>         0.0762
     29 H12        -3.1054    9.7792    0.7330 H         1 <0>         0.4040
     30 H13        -1.9014   10.1104    1.8570 H         1 <0>         0.4056
@<TRIPOS>BOND
     1    1    6 ar
     2    1    2 ar
     3    1   20 1
     4    2    3 ar
     5    2   21 1
     6    3   10 1
     7    3    4 ar
     8    4    5 ar
     9    4    8 1
    10    5    6 ar
    11    5   22 1
    12    6    7 1
    13    8   16 1
    14    8    9 2
    15    9   10 1
    16    9   12 1
    17   10   11 1
    18   12   13 1
    19   12   14 1
    20   12   17 1
    21   14   15 1
    22   14   23 1
    23   14   24 1
    24   15   16 1
    25   15   25 1
    26   15   26 1
    27   16   27 1
    28   16   28 1
    29   17   18 2
    30   17   19 am
    31   19   29 1
    32   19   30 1
@<TRIPOS>MOLECULE
ZINC00499304
   33    35     0     0     0
SMALL
USER_CHARGES

@<TRIPOS>ATOM
      1 C1          0.0365    1.1541   -0.9419 C.ar      1 <0>        -0.0874
      2 C2          1.1763    1.9157   -0.8061 C.ar      1 <0>        -0.1166
      3 C3          2.4046    1.2966   -0.6015 C.ar      1 <0>         0.1073
      4 C4          2.4692   -0.1074   -0.5343 C.ar      1 <0>        -0.0921
      5 C5          1.3051   -0.8657   -0.6742 C.ar      1 <0>        -0.0567
      6 C6          0.0991   -0.2320   -0.8764 C.ar      1 <0>        -0.0601
      7 Cl1        -1.3508   -1.1707   -1.0507 Cl        1 <0>        -0.0711
      8 C7          3.8780   -0.4350   -0.3144 C.2       1 <0>        -0.1420
      9 C8          4.5546    0.7240   -0.2594 C.2       1 <0>         0.0908
     10 N1          3.6869    1.7703   -0.4346 N.pl3     1 <0>        -0.5887
     11 H1          3.9390    2.7070   -0.4400 H         1 <0>         0.4136
     12 C9          6.0417    0.8519   -0.0273 C.3       1 <0>        -0.0411
     13 H2          6.2673    0.6268    1.0151 H         1 <0>         0.1158
     14 C10         6.7862   -0.1305   -0.9337 C.3       1 <0>        -0.0992
     15 C11         6.9426   -1.4712   -0.2215 C.3       1 <0>        -0.1225
     16 C12         5.7362   -1.7454    0.6732 C.3       1 <0>        -0.1253
     17 C13         4.4699   -1.8145   -0.1841 C.3       1 <0>        -0.0492
     18 C14         6.4803    2.2584   -0.3438 C.2       1 <0>         0.5113
     19 O1          6.7591    2.5647   -1.4837 O.2       1 <0>        -0.5264
     20 N2          6.5629    3.1760    0.6399 N.am      1 <0>        -0.8552
     21 H3         -0.9158    1.6397   -1.0963 H         1 <0>         0.1374
     22 H4          1.1160    2.9927   -0.8589 H         1 <0>         0.1298
     23 H5          1.3502   -1.9436   -0.6237 H         1 <0>         0.1343
     24 H6          6.2215   -0.2731   -1.8551 H         1 <0>         0.0786
     25 H7          7.7713    0.2708   -1.1715 H         1 <0>         0.0781
     26 H8          7.0279   -2.2650   -0.9636 H         1 <0>         0.0728
     27 H9          7.8457   -1.4513    0.3886 H         1 <0>         0.0659
     28 H10         5.8763   -2.6941    1.1913 H         1 <0>         0.0713
     29 H11         5.6365   -0.9434    1.4045 H         1 <0>         0.0673
     30 H12         3.7459   -2.4775    0.2896 H         1 <0>         0.0737
     31 H13         4.7210   -2.1973   -1.1733 H         1 <0>         0.0763
     32 H14         6.3400    2.9311    1.5516 H         1 <0>         0.4040
     33 H15         6.8453    4.0814    0.4362 H         1 <0>         0.4051
@<TRIPOS>BOND
     1    1    6 ar
     2    1    2 ar
     3    1   21 1
     4    2    3 ar
     5    2   22 1
     6    3   10 1
     7    3    4 ar
     8    4    5 ar
     9    4    8 1
    10    5    6 ar
    11    5   23 1
    12    6    7 1
    13    8   17 1
    14    8    9 2
    15    9   10 1
    16    9   12 1
    17   10   11 1
    18   12   13 1
    19   12   14 1
    20   12   18 1
    21   14   15 1
    22   14   24 1
    23   14   25 1
    24   15   16 1
    25   15   26 1
    26   15   27 1
    27   16   17 1
    28   16   28 1
    29   16   29 1
    30   17   30 1
    31   17   31 1
    32   18   19 2
    33   18   20 am
    34   20   32 1
    35   20   33 1
@<TRIPOS>MOLECULE
ZINC01280587
   22    24     0     0     0
SMALL
USER_CHARGES
chromeno[3,2-e]pyrimidine-2,4-dione
@<TRIPOS>ATOM
      1 C1          5.9982    2.5159   -0.0412 C.ar      1 <0>        -0.1390
      2 C2          5.8429    3.8959   -0.0328 C.ar      1 <0>        -0.0340
      3 C3          4.5866    4.4624   -0.0187 C.ar      1 <0>        -0.1323
      4 C4          3.4570    3.6500   -0.0123 C.ar      1 <0>         0.1598
      5 C5          3.6173    2.2513   -0.0209 C.ar      1 <0>        -0.1755
      6 C6          4.9068    1.6968   -0.0357 C.ar      1 <0>        -0.0335
      7 C7          2.4785    1.4061   -0.0140 C.2       1 <0>         0.1198
      8 C8          1.2303    1.9968    0.0010 C.2       1 <0>        -0.2989
      9 C9         -0.0144    1.2124    0.0087 C.2       1 <0>         0.5820
     10 O1          0.0021   -0.0041    0.0020 O.2       1 <0>        -0.4861
     11 N1         -1.1790    1.9028    0.0178 N.am      1 <0>        -0.6845
     12 H1         -2.0203    1.4200    0.0194 H         1 <0>         0.4273
     13 C10        -1.1875    3.2437    0.0299 C.2       1 <0>         0.6848
     14 O2         -2.2674    3.8082    0.0424 O.2       1 <0>        -0.4914
     15 N2         -0.0903    3.9962    0.0234 N.2       1 <0>        -0.5585
     16 C11         1.1192    3.4588    0.0094 C.2       1 <0>         0.4706
     17 O3          2.2287    4.2127    0.0024 O.3       1 <0>        -0.1895
     18 H2          6.9897    2.0879   -0.0519 H         1 <0>         0.1457
     19 H3          6.7158    4.5319   -0.0370 H         1 <0>         0.1513
     20 H4          4.4790    5.5370   -0.0123 H         1 <0>         0.1555
     21 H5          5.0348    0.6244   -0.0420 H         1 <0>         0.1504
     22 H6          2.5844    0.3313   -0.0201 H         1 <0>         0.1759
@<TRIPOS>BOND
     1    1    6 ar
     2    1    2 ar
     3    1   18 1
     4    2    3 ar
     5    2   19 1
     6    3    4 ar
     7    3   20 1
     8    4   17 1
     9    4    5 ar
    10    5    6 ar
    11    5    7 1
    12    6   21 1
    13    7    8 2
    14    7   22 1
    15    8   16 1
    16    8    9 1
    17    9   10 2
    18    9   11 am
    19   11   12 1
    20   11   13 am
    21   13   14 2
    22   13   15 1
    23   15   16 2
    24   16   17 1
@<TRIPOS>MOLECULE
ZINC05418036
   36    38     0     0     0
SMALL
USER_CHARGES
methylBLAHcarboxamide
@<TRIPOS>ATOM
      1 C1          3.8399   -3.5288    4.8557 C.3       1 <0>        -0.1101
      2 C2          4.0085   -2.5968    3.6834 C.ar      1 <0>        -0.1127
      3 C3          5.2809   -2.3163    3.2043 C.ar      1 <0>        -0.0943
      4 C4          5.4568   -1.4687    2.1329 C.ar      1 <0>        -0.1274
      5 C5          4.3502   -0.8859    1.5235 C.ar      1 <0>         0.0984
      6 C6          3.0629   -1.1703    2.0152 C.ar      1 <0>        -0.0975
      7 C7          2.9080   -2.0345    3.1012 C.ar      1 <0>        -0.0696
      8 C8          2.1357   -0.4095    1.1779 C.2       1 <0>        -0.1470
      9 C9          2.8700    0.2510    0.2662 C.2       1 <0>         0.0849
     10 N1          4.1984   -0.0207    0.4637 N.pl3     1 <0>        -0.5907
     11 H1          4.9252    0.3433   -0.0655 H         1 <0>         0.4107
     12 C10         2.3108    1.1500   -0.8111 C.3       1 <0>        -0.0399
     13 H2          1.8357    0.5420   -1.5809 H         1 <0>         0.1138
     14 C11         1.2773    2.0987   -0.2009 C.3       1 <0>        -0.0987
     15 C12        -0.1026    1.4480   -0.2399 C.3       1 <0>        -0.1221
     16 C13         0.0126   -0.0630   -0.0559 C.3       1 <0>        -0.1251
     17 C14         0.6357   -0.3622    1.3098 C.3       1 <0>        -0.0473
     18 C15         3.4285    1.9534   -1.4247 C.2       1 <0>         0.5118
     19 O1          3.7786    2.9953   -0.9122 O.2       1 <0>        -0.5275
     20 N2          4.0391    1.5139   -2.5430 N.am      1 <0>        -0.8555
     21 H3          3.8659   -2.9554    5.7823 H         1 <0>         0.0674
     22 H4          2.8835   -4.0452    4.7746 H         1 <0>         0.0643
     23 H5          4.6485   -4.2597    4.8579 H         1 <0>         0.0643
     24 H6          6.1414   -2.7668    3.6765 H         1 <0>         0.1256
     25 H7          6.4507   -1.2574    1.7667 H         1 <0>         0.1195
     26 H8          1.9213   -2.2576    3.4795 H         1 <0>         0.1217
     27 H9          1.2565    3.0277   -0.7706 H         1 <0>         0.0771
     28 H10         1.5479    2.3137    0.8329 H         1 <0>         0.0781
     29 H11        -0.5725    1.6586   -1.2006 H         1 <0>         0.0651
     30 H12        -0.7180    1.8617    0.5591 H         1 <0>         0.0720
     31 H13        -0.9789   -0.5126   -0.1096 H         1 <0>         0.0700
     32 H14         0.6431   -0.4780   -0.8423 H         1 <0>         0.0671
     33 H15         0.3575    0.4207    2.0154 H         1 <0>         0.0739
     34 H16         0.2723   -1.3238    1.6722 H         1 <0>         0.0716
     35 H17         3.7591    0.6806   -2.9529 H         1 <0>         0.4038
     36 H18         4.7585    2.0310   -2.9380 H         1 <0>         0.4045
@<TRIPOS>BOND
     1    1    2 1
     2    1   21 1
     3    1   22 1
     4    1   23 1
     5    2    7 ar
     6    2    3 ar
     7    3    4 ar
     8    3   24 1
     9    4    5 ar
    10    4   25 1
    11    5   10 1
    12    5    6 ar
    13    6    7 ar
    14    6    8 1
    15    7   26 1
    16    8   17 1
    17    8    9 2
    18    9   10 1
    19    9   12 1
    20   10   11 1
    21   12   13 1
    22   12   14 1
    23   12   18 1
    24   14   15 1
    25   14   27 1
    26   14   28 1
    27   15   16 1
    28   15   29 1
    29   15   30 1
    30   16   17 1
    31   16   31 1
    32   16   32 1
    33   17   33 1
    34   17   34 1
    35   18   19 2
    36   18   20 am
    37   20   35 1
    38   20   36 1
@<TRIPOS>MOLECULE
ZINC05418039
   36    38     0     0     0
SMALL
USER_CHARGES
methylBLAHcarboxamide
@<TRIPOS>ATOM
      1 C1         -6.3915   -3.1475   -2.6702 C.3       1 <0>        -0.1111
      2 C2         -5.1887   -2.2574   -2.8494 C.ar      1 <0>        -0.1118
      3 C3         -4.6192   -2.1144   -4.1074 C.ar      1 <0>        -0.0929
      4 C4         -3.5200   -1.3052   -4.2931 C.ar      1 <0>        -0.1277
      5 C5         -2.9724   -0.6239   -3.2107 C.ar      1 <0>         0.0996
      6 C6         -3.5526   -0.7731   -1.9377 C.ar      1 <0>        -0.1005
      7 C7         -4.6667   -1.5986   -1.7725 C.ar      1 <0>        -0.0689
      8 C8         -2.7568    0.0572   -1.0336 C.2       1 <0>        -0.1382
      9 C9         -1.7939    0.6390   -1.7680 C.2       1 <0>         0.0623
     10 N1         -1.9067    0.2365   -3.0731 N.pl3     1 <0>        -0.5923
     11 H1         -1.3215    0.5167   -3.7941 H         1 <0>         0.4142
     12 C10        -0.7507    1.5917   -1.2332 C.3       1 <0>        -0.0457
     13 H2          0.0320    1.7293   -1.9792 H         1 <0>         0.1090
     14 C11        -0.1403    1.0154    0.0460 C.3       1 <0>        -0.0950
     15 C12        -0.9563    1.4678    1.2539 C.3       1 <0>        -0.1252
     16 C13        -2.4324    1.5886    0.8888 C.3       1 <0>        -0.1463
     17 C14        -2.9622    0.2213    0.4499 C.3       1 <0>        -0.0496
     18 C15        -1.3932    2.9204   -0.9286 C.2       1 <0>         0.5467
     19 O1         -0.9400    3.6267   -0.0530 O.2       1 <0>        -0.5375
     20 N2         -2.4714    3.3240   -1.6294 N.am      1 <0>        -0.8609
     21 H3         -6.0626   -4.1603   -2.4376 H         1 <0>         0.0678
     22 H4         -7.0056   -2.7683   -1.8534 H         1 <0>         0.0645
     23 H5         -6.9763   -3.1576   -3.5900 H         1 <0>         0.0648
     24 H6         -5.0424   -2.6426   -4.9490 H         1 <0>         0.1258
     25 H7         -3.0845   -1.2003   -5.2758 H         1 <0>         0.1209
     26 H8         -5.1150   -1.7148   -0.7968 H         1 <0>         0.1213
     27 H9         -0.1457   -0.0732   -0.0081 H         1 <0>         0.0757
     28 H10         0.8859    1.3682    0.1490 H         1 <0>         0.0782
     29 H11        -0.8438    0.7396    2.0571 H         1 <0>         0.0638
     30 H12        -0.5895    2.4365    1.5933 H         1 <0>         0.0856
     31 H13        -2.5475    2.3020    0.0727 H         1 <0>         0.0872
     32 H14        -2.9945    1.9349    1.7562 H         1 <0>         0.0679
     33 H15        -4.0256    0.1527    0.6795 H         1 <0>         0.0700
     34 H16        -2.4244   -0.5645    0.9804 H         1 <0>         0.0743
     35 H17        -2.8339    2.7592   -2.3297 H         1 <0>         0.4009
     36 H18        -2.8849    4.1793   -1.4334 H         1 <0>         0.4034
@<TRIPOS>BOND
     1    1    2 1
     2    1   21 1
     3    1   22 1
     4    1   23 1
     5    2    7 ar
     6    2    3 ar
     7    3    4 ar
     8    3   24 1
     9    4    5 ar
    10    4   25 1
    11    5   10 1
    12    5    6 ar
    13    6    7 ar
    14    6    8 1
    15    7   26 1
    16    8   17 1
    17    8    9 2
    18    9   10 1
    19    9   12 1
    20   10   11 1
    21   12   13 1
    22   12   14 1
    23   12   18 1
    24   14   15 1
    25   14   27 1
    26   14   28 1
    27   15   16 1
    28   15   29 1
    29   15   30 1
    30   16   17 1
    31   16   31 1
    32   16   32 1
    33   17   33 1
    34   17   34 1
    35   18   19 2
    36   18   20 am
    37   20   35 1
    38   20   36 1
@<TRIPOS>MOLECULE
ZINC03797930
   57    61     0     0     0
SMALL
USER_CHARGES

@<TRIPOS>ATOM
      1 C1         -0.0178    1.4608    0.0101 C.3       1 <0>         0.0756
      2 N1          0.0021   -0.0041    0.0020 N.pl3     1 <0>        -0.4779
      3 C2          0.0079   -0.7756   -1.1193 C.2       1 <0>         0.1034
      4 C3          0.0281   -2.0937   -0.7697 C.2       1 <0>        -0.1402
      5 C4          0.0354   -2.1368    0.7032 C.ar      1 <0>        -0.0754
      6 C5          0.0236   -0.7983    1.1297 C.ar      1 <0>         0.0946
      7 C6          0.0313   -0.5163    2.4916 C.ar      1 <0>        -0.1255
      8 C7          0.0535   -1.5463    3.4071 C.ar      1 <0>        -0.0992
      9 C8          0.0683   -2.8675    2.9845 C.ar      1 <0>        -0.1386
     10 C9          0.0542   -3.1677    1.6397 C.ar      1 <0>        -0.0735
     11 C10         0.0398   -3.2475   -1.6846 C.2       1 <0>        -0.0198
     12 C11         1.1172   -3.7122   -2.4298 C.2       1 <0>        -0.0395
     13 C12         0.6208   -4.8840   -3.1806 C.2       1 <0>         0.5564
     14 O1          1.2746   -5.5640   -3.9461 O.2       1 <0>        -0.4464
     15 N2         -0.6740   -5.0726   -2.8749 N.am      1 <0>        -0.6902
     16 C13        -1.0897   -4.1493   -1.9915 C.2       1 <0>         0.5532
     17 O2         -2.2087   -4.0674   -1.5257 O.2       1 <0>        -0.4418
     18 C14         2.4779   -3.1502   -2.4643 C.2       1 <0>        -0.1185
     19 C15         3.4364   -3.2746   -1.5022 C.2       1 <0>         0.0933
     20 N3          4.5640   -2.6188   -1.8910 N.pl3     1 <0>        -0.4798
     21 C16         4.3781   -2.0398   -3.1293 C.ar      1 <0>         0.0962
     22 C17         3.0730   -2.3483   -3.5479 C.ar      1 <0>        -0.0752
     23 C18         2.6089   -1.8925   -4.7796 C.ar      1 <0>        -0.0686
     24 C19         3.4370   -1.1416   -5.5852 C.ar      1 <0>        -0.1351
     25 C20         4.7273   -0.8397   -5.1749 C.ar      1 <0>        -0.0935
     26 C21         5.1968   -1.2769   -3.9550 C.ar      1 <0>        -0.1304
     27 C22         5.7987   -2.5392   -1.1066 C.3       1 <0>         0.1213
     28 C23         5.8024   -1.2444   -0.2914 C.3       1 <0>        -0.1304
     29 C24         7.0919   -1.1612    0.5278 C.3       1 <0>        -0.1323
     30 S1          7.0963    0.3739    1.4943 S.3       1 <0>         0.0637
     31 C25         8.6242    0.3216    2.3704 C.cat     1 <0>         0.4855
     32 N4          9.2482    1.4553    2.6902 N.pl3     1 <0>        -0.7357
     33 N5          9.1561   -0.8516    2.7133 N.pl3     1 <0>        -0.7643
     34 H1          1.0048    1.8381    0.0023 H         1 <0>         0.0705
     35 H2         -0.5450    1.8219   -0.8730 H         1 <0>         0.0878
     36 H3         -0.5280    1.8123    0.9069 H         1 <0>         0.0849
     37 H4         -0.0026   -0.4009   -2.1322 H         1 <0>         0.1741
     38 H5          0.0202    0.5088    2.8315 H         1 <0>         0.1196
     39 H6          0.0598   -1.3227    4.4637 H         1 <0>         0.1265
     40 H7          0.0861   -3.6646    3.7130 H         1 <0>         0.1250
     41 H8          0.0669   -4.1972    1.3134 H         1 <0>         0.1196
     42 H9         -1.2301   -5.7795   -3.2382 H         1 <0>         0.4308
     43 H10         3.3186   -3.8118   -0.5727 H         1 <0>         0.1746
     44 H11         1.6050   -2.1267   -5.1017 H         1 <0>         0.1223
     45 H12         3.0800   -0.7868   -6.5407 H         1 <0>         0.1277
     46 H13         5.3679   -0.2507   -5.8146 H         1 <0>         0.1281
     47 H14         6.2036   -1.0375   -3.6461 H         1 <0>         0.1168
     48 H15         5.8563   -3.3934   -0.4320 H         1 <0>         0.1002
     49 H16         6.6571   -2.5481   -1.7783 H         1 <0>         0.0963
     50 H17         5.7448   -0.3902   -0.9660 H         1 <0>         0.0946
     51 H18         4.9440   -1.2354    0.3802 H         1 <0>         0.0946
     52 H19         7.1495   -2.0155    1.2024 H         1 <0>         0.1123
     53 H20         7.9503   -1.1702   -0.1438 H         1 <0>         0.1212
     54 H21         8.8612    2.3090    2.4406 H         1 <0>         0.4515
     55 H22         8.7020   -1.6765    2.4806 H         1 <0>         0.4429
     56 H23         9.9972   -0.8803    3.1956 H         1 <0>         0.4324
     57 H24        10.0893    1.4265    3.1725 H         1 <0>         0.4339
@<TRIPOS>BOND
     1    1    2 1
     2    1   34 1
     3    1   35 1
     4    1   36 1
     5    2    6 1
     6    2    3 1
     7    3    4 2
     8    3   37 1
     9    4    5 1
    10    4   11 1
    11    5   10 ar
    12    5    6 ar
    13    6    7 ar
    14    7    8 ar
    15    7   38 1
    16    8    9 ar
    17    8   39 1
    18    9   10 ar
    19    9   40 1
    20   10   41 1
    21   11   16 1
    22   11   12 2
    23   12   13 1
    24   12   18 1
    25   13   14 2
    26   13   15 am
    27   15   16 am
    28   15   42 1
    29   16   17 2
    30   18   22 1
    31   18   19 2
    32   19   20 1
    33   19   43 1
    34   20   21 1
    35   20   27 1
    36   21   26 ar
    37   21   22 ar
    38   22   23 ar
    39   23   24 ar
    40   23   44 1
    41   24   25 ar
    42   24   45 1
    43   25   26 ar
    44   25   46 1
    45   26   47 1
    46   27   28 1
    47   27   48 1
    48   27   49 1
    49   28   29 1
    50   28   50 1
    51   28   51 1
    52   29   30 1
    53   29   52 1
    54   29   53 1
    55   30   31 1
    56   31   32 2
    57   31   33 1
    58   32   54 1
    59   32   57 1
    60   33   55 1
    61   33   56 1
