@<TRIPOS>MOLECULE
ZINC05528435
   22    24     0     0     0
SMALL
USER_CHARGES

@<TRIPOS>ATOM
      1 C1         -0.0164    1.3570    0.0095 C.ar      1 <0>        -0.1093
      2 C2          1.1686    2.0899    0.0021 C.ar      1 <0>        -0.0990
      3 C3          2.3783    1.4649   -0.0127 C.ar      1 <0>        -0.1129
      4 C4          2.4368    0.0625   -0.0208 C.ar      1 <0>        -0.0204
      5 C5          1.2319   -0.6838   -0.0133 C.ar      1 <0>        -0.0413
      6 C6          0.0021   -0.0041    0.0020 C.ar      1 <0>        -0.0950
      7 C7          1.2850   -2.0892   -0.0222 C.ar      1 <0>        -0.0775
      8 C8          2.4853   -2.7275   -0.0375 C.ar      1 <0>        -0.0931
      9 C9          3.6832   -2.0062   -0.0446 C.ar      1 <0>         0.0752
     10 C10         3.6692   -0.6198   -0.0366 C.ar      1 <0>         0.0794
     11 N1          4.9924   -0.1981   -0.0471 N.pl3     1 <0>        -0.5597
     12 H1          5.2945    0.7237   -0.0443 H         1 <0>         0.4487
     13 C11         5.7844   -1.2868   -0.0610 C.2       1 <0>         0.4999
     14 S1          7.4962   -1.2645   -0.0765 S.2       1 <0>        -0.5954
     15 N2          5.0210   -2.3956   -0.0602 N.pl3     1 <0>        -0.5632
     16 H2          5.3465   -3.3093   -0.0686 H         1 <0>         0.4504
     17 H3         -0.9632    1.8763    0.0259 H         1 <0>         0.1311
     18 H4          1.1270    3.1690    0.0079 H         1 <0>         0.1308
     19 H5          3.2887    2.0458   -0.0187 H         1 <0>         0.1256
     20 H6         -0.9244   -0.5591    0.0082 H         1 <0>         0.1374
     21 H7          0.3699   -2.6629   -0.0166 H         1 <0>         0.1473
     22 H8          2.5140   -3.8071   -0.0439 H         1 <0>         0.1410
@<TRIPOS>BOND
     1    1    6 ar
     2    1    2 ar
     3    1   17 1
     4    2    3 ar
     5    2   18 1
     6    3    4 ar
     7    3   19 1
     8    4   10 ar
     9    4    5 ar
    10    5    6 ar
    11    5    7 ar
    12    6   20 1
    13    7    8 ar
    14    7   21 1
    15    8    9 ar
    16    8   22 1
    17    9   15 1
    18    9   10 ar
    19   10   11 1
    20   11   12 1
    21   11   13 1
    22   13   14 2
    23   13   15 1
    24   15   16 1
@<TRIPOS>MOLECULE
ZINC06575888
   33    35     0     0     0
SMALL
USER_CHARGES
5-[(4-phenylphenyl)methylene]-2-thioxo-hexahydropyrimidine-4,6-dione
@<TRIPOS>ATOM
      1 C1         -1.5419    2.1593   -1.6250 C.ar      1 <0>        -0.1245
      2 C2         -1.2810    0.8214   -1.8619 C.ar      1 <0>        -0.1183
      3 C3         -0.0282    0.3038   -1.6042 C.ar      1 <0>        -0.1099
      4 C4          0.9791    1.1345   -1.1140 C.ar      1 <0>        -0.0383
      5 C5          0.7115    2.4835   -0.8822 C.ar      1 <0>        -0.1123
      6 C6         -0.5467    2.9883   -1.1387 C.ar      1 <0>        -0.1200
      7 C7          2.3281    0.5859   -0.8401 C.ar      1 <0>        -0.0349
      8 C8          2.5895   -0.7669   -1.0680 C.ar      1 <0>        -0.1189
      9 C9          3.8328   -1.2744   -0.8221 C.ar      1 <0>        -0.0171
     10 C10         4.8452   -0.4376   -0.3290 C.ar      1 <0>        -0.0791
     11 C11         4.5775    0.9197   -0.0958 C.ar      1 <0>        -0.0878
     12 C12         3.3335    1.4217   -0.3492 C.ar      1 <0>        -0.1256
     13 C13         6.1781   -0.9794   -0.0588 C.2       1 <0>         0.0554
     14 C14         6.3130   -2.1738    0.6200 C.2       1 <0>        -0.2797
     15 C15         5.1622   -2.8169    1.2865 C.2       1 <0>         0.5261
     16 O1          4.0576   -2.3087    1.2549 O.3       1 <0>        -0.5041
     17 N1          5.3693   -3.9863    1.9264 N.2       1 <0>        -0.6276
     18 C16         6.5822   -4.5546    1.9738 C.2       1 <0>         0.5543
     19 S1          6.7497   -6.0355    2.8162 S.2       1 <0>        -0.7080
     20 N2          7.6711   -4.0265    1.3980 N.am      1 <0>        -0.6637
     21 C17         7.6160   -2.8629    0.7178 C.2       1 <0>         0.5609
     22 O2          8.6114   -2.3943    0.1990 O.2       1 <0>        -0.5257
     23 H1         -2.5251    2.5591   -1.8246 H         1 <0>         0.1200
     24 H2         -2.0607    0.1800   -2.2454 H         1 <0>         0.1228
     25 H3          0.1732   -0.7416   -1.7860 H         1 <0>         0.1271
     26 H4          1.4877    3.1317   -0.5029 H         1 <0>         0.1253
     27 H5         -0.7550    4.0329   -0.9599 H         1 <0>         0.1218
     28 H6          1.8083   -1.4114   -1.4431 H         1 <0>         0.1244
     29 H7          4.0355   -2.3197   -1.0028 H         1 <0>         0.1209
     30 H8          5.3546    1.5667    0.2835 H         1 <0>         0.1249
     31 H9          3.1266    2.4664   -0.1696 H         1 <0>         0.1239
     32 H10         7.0721   -0.4348   -0.3967 H         1 <0>         0.1459
     33 H11         8.6390   -4.5436    1.4740 H         1 <0>         0.4420
@<TRIPOS>BOND
     1    1    6 ar
     2    1    2 ar
     3    1   23 1
     4    2    3 ar
     5    2   24 1
     6    3    4 ar
     7    3   25 1
     8    4    5 ar
     9    4    7 1
    10    5    6 ar
    11    5   26 1
    12    6   27 1
    13    7   12 ar
    14    7    8 ar
    15    8    9 ar
    16    8   28 1
    17    9   10 ar
    18    9   29 1
    19   10   11 ar
    20   10   13 1
    21   11   12 ar
    22   11   30 1
    23   12   31 1
    24   13   14 2
    25   13   32 1
    26   14   21 1
    27   14   15 1
    28   15   16 1
    29   15   17 2
    30   17   18 1
    31   18   19 2
    32   18   20 1
    33   20   21 am
    34   20   33 1
    35   21   22 2
@<TRIPOS>MOLECULE
ZINC02560260
   60    65     0     0     0
SMALL
USER_CHARGES
3-(1H-indol-3-yl)-4-[1-[2-(1-methylpyrrolidin-2-yl)ethyl]indol-3-yl]-pyrrole-2,5-dione
@<TRIPOS>ATOM
      1 C1         -0.8041    1.9482   -1.0558 C.3       1 <0>        -0.0495
      2 C2          0.0560   -0.0390    0.0376 C.3       1 <0>        -0.0114
      3 C3          1.5436   -0.4453   -0.0204 C.3       1 <0>        -0.1416
      4 C4          2.2696    0.8052    0.5419 C.3       1 <0>        -0.1378
      5 C5          1.3887    1.9533   -0.0108 C.3       1 <0>         0.0302
      6 H1          1.6601    2.1769   -1.0426 H         1 <0>         0.1463
      7 C6          1.5322    3.2021    0.8615 C.3       1 <0>        -0.1624
      8 C7          0.6503    4.3197    0.3011 C.3       1 <0>         0.0996
      9 N1          0.8829    5.5517    1.0590 N.pl3     1 <0>        -0.4818
     10 C8          0.1284    5.9719    2.1110 C.2       1 <0>         0.0839
     11 C9          0.6203    7.1515    2.5869 C.2       1 <0>        -0.1088
     12 C10         1.7791    7.4933    1.7434 C.ar      1 <0>        -0.0761
     13 C11         1.8944    6.4546    0.8045 C.ar      1 <0>         0.0963
     14 C12         2.9135    6.4997   -0.1409 C.ar      1 <0>        -0.1320
     15 C13         3.7967    7.5578   -0.1501 C.ar      1 <0>        -0.0898
     16 C14         3.6819    8.5825    0.7778 C.ar      1 <0>        -0.1327
     17 C15         2.6794    8.5560    1.7227 C.ar      1 <0>        -0.0674
     18 C16         0.0925    7.9337    3.7174 C.2       1 <0>        -0.0445
     19 C17         0.2333    7.6469    5.0701 C.2       1 <0>        -0.0167
     20 C18        -0.4701    8.7265    5.7931 C.2       1 <0>         0.5521
     21 O1         -0.5685    8.8241    7.0000 O.2       1 <0>        -0.4393
     22 N2         -0.9836    9.5821    4.8931 N.am      1 <0>        -0.6897
     23 C19        -0.6884    9.1859    3.6434 C.2       1 <0>         0.5566
     24 O2         -1.0128    9.7596    2.6229 O.2       1 <0>        -0.4462
     25 C20         0.9401    6.4990    5.6628 C.2       1 <0>        -0.1427
     26 C21         2.2904    6.3308    5.7534 C.2       1 <0>         0.1061
     27 N3          2.5648    5.1473    6.3673 N.pl3     1 <0>        -0.5846
     28 H2          3.4562    4.8097    6.5471 H         1 <0>         0.4219
     29 C22         1.3941    4.4936    6.6915 C.ar      1 <0>         0.0931
     30 C23         0.3271    5.3037    6.2685 C.ar      1 <0>        -0.0759
     31 C24        -0.9871    4.8881    6.4693 C.ar      1 <0>        -0.0760
     32 C25        -1.2341    3.6799    7.0843 C.ar      1 <0>        -0.1375
     33 C26        -0.1815    2.8789    7.5021 C.ar      1 <0>        -0.0990
     34 C27         1.1237    3.2773    7.3094 C.ar      1 <0>        -0.1255
     35 H3         -1.7900    1.4838   -1.0321 H         1 <0>         0.1272
     36 H4         -0.9091    3.0289   -0.9601 H         1 <0>         0.1206
     37 H5         -0.3144    1.7130   -2.0007 H         1 <0>         0.1257
     38 H6         -0.4021   -0.4374    0.9429 H         1 <0>         0.1308
     39 H7         -0.4685   -0.4165   -0.8402 H         1 <0>         0.1346
     40 H8          1.7305   -1.3151    0.6094 H         1 <0>         0.1138
     41 H9          1.8495   -0.6422   -1.0479 H         1 <0>         0.1001
     42 H10         2.2668    0.8011    1.6319 H         1 <0>         0.1002
     43 H11         3.2868    0.8725    0.1563 H         1 <0>         0.1181
     44 H12         1.2222    2.9710    1.8806 H         1 <0>         0.0975
     45 H13         2.5728    3.5266    0.8630 H         1 <0>         0.1209
     46 H14         0.8971    4.4861   -0.7475 H         1 <0>         0.0996
     47 H15        -0.3978    4.0330    0.3866 H         1 <0>         0.0876
     48 H16        -0.7281    5.4488    2.5103 H         1 <0>         0.1733
     49 H17         3.0123    5.7069   -0.8675 H         1 <0>         0.1170
     50 H18         4.5863    7.5889   -0.8862 H         1 <0>         0.1300
     51 H19         4.3815    9.4052    0.7593 H         1 <0>         0.1297
     52 H20         2.5918    9.3555    2.4436 H         1 <0>         0.1237
     53 H21        -1.4923   10.3777    5.1148 H         1 <0>         0.4318
     54 H22         3.0299    7.0317    5.3952 H         1 <0>         0.1771
     55 H23        -1.8085    5.5098    6.1450 H         1 <0>         0.1194
     56 H24        -2.2520    3.3550    7.2414 H         1 <0>         0.1255
     57 H25        -0.3868    1.9337    7.9827 H         1 <0>         0.1279
     58 H26         1.9358    2.6456    7.6379 H         1 <0>         0.1224
     59 N4          0.0101    1.4317    0.0752 N.4       1 <0>        -0.3996
     60 H27        -0.4137    1.7358    0.9596 H         1 <0>         0.4281
@<TRIPOS>BOND
     1    1   35 1
     2    1   36 1
     3    1   37 1
     4    1   59 1
     5    2    3 1
     6    2   38 1
     7    2   39 1
     8    2   59 1
     9    3    4 1
    10    3   40 1
    11    3   41 1
    12    4    5 1
    13    4   42 1
    14    4   43 1
    15    5    6 1
    16    5    7 1
    17    5   59 1
    18    7    8 1
    19    7   44 1
    20    7   45 1
    21    8    9 1
    22    8   46 1
    23    8   47 1
    24    9   13 1
    25    9   10 1
    26   10   11 2
    27   10   48 1
    28   11   12 1
    29   11   18 1
    30   12   17 ar
    31   12   13 ar
    32   13   14 ar
    33   14   15 ar
    34   14   49 1
    35   15   16 ar
    36   15   50 1
    37   16   17 ar
    38   16   51 1
    39   17   52 1
    40   18   23 1
    41   18   19 2
    42   19   20 1
    43   19   25 1
    44   20   21 2
    45   20   22 am
    46   22   23 am
    47   22   53 1
    48   23   24 2
    49   25   30 1
    50   25   26 2
    51   26   27 1
    52   26   54 1
    53   27   28 1
    54   27   29 1
    55   29   34 ar
    56   29   30 ar
    57   30   31 ar
    58   31   32 ar
    59   31   55 1
    60   32   33 ar
    61   32   56 1
    62   33   34 ar
    63   33   57 1
    64   34   58 1
    65   59   60 1
@<TRIPOS>MOLECULE
ZINC03871740
   60    65     0     0     0
SMALL
USER_CHARGES
3-(1H-indol-3-yl)-4-[1-[2-(1-methylpyrrolidin-2-yl)ethyl]indol-3-yl]-pyrrole-2,5-dione
@<TRIPOS>ATOM
      1 C1          0.8983   10.5816    1.1587 C.3       1 <0>        -0.0458
      2 C2          1.1526   11.1064    3.5167 C.3       1 <0>        -0.0094
      3 C3          1.9633   10.4192    4.6438 C.3       1 <0>        -0.1436
      4 C4          2.3563    9.0766    3.9732 C.3       1 <0>        -0.1411
      5 C5          2.5904    9.4784    2.5017 C.3       1 <0>         0.0261
      6 H1          3.6538    9.6373    2.3229 H         1 <0>         0.1407
      7 C6          2.0649    8.3820    1.5729 C.3       1 <0>        -0.1620
      8 C7          2.9006    7.1137    1.7569 C.3       1 <0>         0.1166
      9 N1          2.4769    6.1042    0.7835 N.pl3     1 <0>        -0.4805
     10 C8          1.5707    5.1188    1.0295 C.2       1 <0>         0.0910
     11 C9          1.4077    4.3553   -0.0887 C.2       1 <0>        -0.1154
     12 C10         2.3007    4.9199   -1.1159 C.ar      1 <0>        -0.0755
     13 C11         2.9394    6.0166   -0.5132 C.ar      1 <0>         0.0950
     14 C12         3.8530    6.7630   -1.2496 C.ar      1 <0>        -0.1332
     15 C13         4.1297    6.4179   -2.5550 C.ar      1 <0>        -0.0915
     16 C14         3.4956    5.3371   -3.1500 C.ar      1 <0>        -0.1343
     17 C15         2.5841    4.5876   -2.4386 C.ar      1 <0>        -0.0671
     18 C16         0.5184    3.1911   -0.2384 C.2       1 <0>        -0.0399
     19 C17        -0.8645    3.2084   -0.3775 C.2       1 <0>        -0.0215
     20 C18        -1.2816    1.7960   -0.4979 C.2       1 <0>         0.5528
     21 O1         -2.4226    1.4036   -0.6393 O.2       1 <0>        -0.4406
     22 N2         -0.1887    1.0178   -0.4220 N.am      1 <0>        -0.6897
     23 C19         0.9156    1.7683   -0.2715 C.2       1 <0>         0.5558
     24 O2          2.0514    1.3473   -0.1789 O.2       1 <0>        -0.4450
     25 C20        -1.7368    4.3944   -0.4047 C.2       1 <0>        -0.1380
     26 C21        -1.8832    5.2758   -1.4350 C.2       1 <0>         0.1028
     27 N3         -2.7789    6.2406   -1.0891 N.pl3     1 <0>        -0.5861
     28 H2         -3.0483    6.9771   -1.6599 H         1 <0>         0.4206
     29 C22        -3.2444    6.0247    0.1914 C.ar      1 <0>         0.0923
     30 C23        -2.6180    4.8653    0.6785 C.ar      1 <0>        -0.0762
     31 C24        -2.9022    4.4052    1.9621 C.ar      1 <0>        -0.0738
     32 C25        -3.7998    5.0925    2.7500 C.ar      1 <0>        -0.1369
     33 C26        -4.4190    6.2373    2.2704 C.ar      1 <0>        -0.0979
     34 C27        -4.1473    6.7041    1.0023 C.ar      1 <0>        -0.1281
     35 H3          0.1997    9.7762    1.3855 H         1 <0>         0.1231
     36 H4          0.3479   11.5127    1.0237 H         1 <0>         0.1234
     37 H5          1.4413   10.3447    0.2438 H         1 <0>         0.1234
     38 H6          1.1634   12.1885    3.6472 H         1 <0>         0.1354
     39 H7          0.1274   10.7365    3.5048 H         1 <0>         0.1328
     40 H8          2.8483   11.0019    4.8991 H         1 <0>         0.1001
     41 H9          1.3424   10.2493    5.5234 H         1 <0>         0.1182
     42 H10         1.5435    8.3545    4.0508 H         1 <0>         0.1013
     43 H11         3.2702    8.6786    4.4141 H         1 <0>         0.1152
     44 H12         2.1364    8.7173    0.5382 H         1 <0>         0.0972
     45 H13         1.0236    8.1693    1.8147 H         1 <0>         0.0967
     46 H14         2.7577    6.7278    2.7663 H         1 <0>         0.1022
     47 H15         3.9541    7.3473    1.6030 H         1 <0>         0.0970
     48 H16         1.0588    4.9647    1.9679 H         1 <0>         0.1743
     49 H17         4.3535    7.6054   -0.7955 H         1 <0>         0.1154
     50 H18         4.8424    6.9983   -3.1220 H         1 <0>         0.1288
     51 H19         3.7171    5.0820   -4.1758 H         1 <0>         0.1289
     52 H20         2.0920    3.7464   -2.9041 H         1 <0>         0.1233
     53 H21        -0.1957    0.0491   -0.4730 H         1 <0>         0.4318
     54 H22        -1.3685    5.2160   -2.3826 H         1 <0>         0.1768
     55 H23        -2.4218    3.5139    2.3378 H         1 <0>         0.1203
     56 H24        -4.0219    4.7383    3.7458 H         1 <0>         0.1262
     57 H25        -5.1206    6.7683    2.8967 H         1 <0>         0.1277
     58 H26        -4.6347    7.5967    0.6389 H         1 <0>         0.1212
     59 N4          1.8648   10.7391    2.2766 N.4       1 <0>        -0.3945
     60 H27         2.5355   11.4790    2.0381 H         1 <0>         0.4331
@<TRIPOS>BOND
     1    1   35 1
     2    1   36 1
     3    1   37 1
     4    1   59 1
     5    2    3 1
     6    2   38 1
     7    2   39 1
     8    2   59 1
     9    3    4 1
    10    3   40 1
    11    3   41 1
    12    4    5 1
    13    4   42 1
    14    4   43 1
    15    5    6 1
    16    5    7 1
    17    5   59 1
    18    7    8 1
    19    7   44 1
    20    7   45 1
    21    8    9 1
    22    8   46 1
    23    8   47 1
    24    9   13 1
    25    9   10 1
    26   10   11 2
    27   10   48 1
    28   11   12 1
    29   11   18 1
    30   12   17 ar
    31   12   13 ar
    32   13   14 ar
    33   14   15 ar
    34   14   49 1
    35   15   16 ar
    36   15   50 1
    37   16   17 ar
    38   16   51 1
    39   17   52 1
    40   18   23 1
    41   18   19 2
    42   19   20 1
    43   19   25 1
    44   20   21 2
    45   20   22 am
    46   22   23 am
    47   22   53 1
    48   23   24 2
    49   25   30 1
    50   25   26 2
    51   26   27 1
    52   26   54 1
    53   27   28 1
    54   27   29 1
    55   29   34 ar
    56   29   30 ar
    57   30   31 ar
    58   31   32 ar
    59   31   55 1
    60   32   33 ar
    61   32   56 1
    62   33   34 ar
    63   33   57 1
    64   34   58 1
    65   59   60 1
@<TRIPOS>MOLECULE
ZINC00943071
   43    46     0     0     0
SMALL
USER_CHARGES

@<TRIPOS>ATOM
      1 C1          0.1537    1.3805    0.6364 C.ar      1 <0>        -0.0753
      2 C2          1.1475    2.1069    0.0535 C.ar      1 <0>        -0.1107
      3 C3          2.2147    1.4536   -0.5856 C.ar      1 <0>         0.1445
      4 C4          2.2414    0.0374   -0.6140 C.ar      1 <0>        -0.1165
      5 C5          3.3102   -0.6126   -1.2541 C.ar      1 <0>        -0.0618
      6 C6          4.2845    0.1570   -1.8255 C.ar      1 <0>        -0.1721
      7 C7          4.1990    1.5455   -1.7624 C.ar      1 <0>         0.1351
      8 N1          3.1999    2.1484   -1.1646 N.ar      1 <0>        -0.4700
      9 C8          1.1995   -0.6908   -0.0027 C.ar      1 <0>         0.1626
     10 C9          0.1704   -0.0100    0.6141 C.ar      1 <0>        -0.1289
     11 N2          1.2100   -2.0846   -0.0211 N.am      1 <0>        -0.6605
     12 C10         0.0539   -2.7687    0.0880 C.2       1 <0>         0.5787
     13 O1         -1.0071   -2.1724    0.1015 O.2       1 <0>        -0.5030
     14 C11         0.0743   -4.2322    0.1906 C.2       1 <0>        -0.1367
     15 C12        -1.1166   -4.9369    0.3031 C.2       1 <0>         0.1050
     16 C13        -1.0971   -6.3373    0.4012 C.2       1 <0>        -0.0478
     17 C14        -2.2083   -7.1612    0.5123 C.2       1 <0>        -0.1087
     18 C15        -1.7338   -8.4699    0.5819 C.2       1 <0>        -0.1891
     19 C16        -0.3578   -8.4053    0.5117 C.2       1 <0>         0.0718
     20 O2          0.0060   -7.1164    0.3980 O.3       1 <0>        -0.1373
     21 C17         0.5610   -9.5588    0.5491 C.ar      1 <0>        -0.0168
     22 C18         0.4321  -10.5269    1.5485 C.ar      1 <0>        -0.0672
     23 C19         1.2949  -11.6035    1.5769 C.ar      1 <0>        -0.0339
     24 C20         2.2871  -11.7259    0.6177 C.ar      1 <0>        -0.0793
     25 C21         2.4208  -10.7718   -0.3745 C.ar      1 <0>        -0.0966
     26 C22         1.5614   -9.6918   -0.4188 C.ar      1 <0>        -0.0087
     27 Cl1         1.7264   -8.4991   -1.6693 Cl        1 <0>        -0.0369
     28 Cl2         1.1370  -12.8071    2.8179 Cl        1 <0>        -0.0461
     29 C23         1.3226   -4.9337    0.1748 C.1       1 <0>         0.2302
     30 N3          2.3129   -5.4903    0.1623 N.1       1 <0>        -0.3796
     31 H1         -0.6595    1.8934    1.1284 H         1 <0>         0.1370
     32 H2          1.1151    3.1860    0.0824 H         1 <0>         0.1382
     33 H3          3.3606   -1.6908   -1.2932 H         1 <0>         0.1298
     34 H4          5.1199   -0.3111   -2.3250 H         1 <0>         0.1400
     35 H5          4.9761    2.1413   -2.2179 H         1 <0>         0.1624
     36 H6         -0.6301   -0.5621    1.0840 H         1 <0>         0.1541
     37 H7          2.0493   -2.5621   -0.1124 H         1 <0>         0.4108
     38 H8         -2.0581   -4.4078    0.3150 H         1 <0>         0.1901
     39 H9         -3.2417   -6.8485    0.5399 H         1 <0>         0.1725
     40 H10        -2.3307   -9.3653    0.6740 H         1 <0>         0.1660
     41 H11        -0.3407  -10.4326    2.2971 H         1 <0>         0.1517
     42 H12         2.9597  -12.5705    0.6452 H         1 <0>         0.1510
     43 H13         3.1965  -10.8738   -1.1189 H         1 <0>         0.1521
@<TRIPOS>BOND
     1    1   10 ar
     2    1    2 ar
     3    1   31 1
     4    2    3 ar
     5    2   32 1
     6    3    8 ar
     7    3    4 ar
     8    4    5 ar
     9    4    9 ar
    10    5    6 ar
    11    5   33 1
    12    6    7 ar
    13    6   34 1
    14    7    8 ar
    15    7   35 1
    16    9   10 ar
    17    9   11 1
    18   10   36 1
    19   11   12 am
    20   11   37 1
    21   12   13 2
    22   12   14 1
    23   14   15 2
    24   14   29 1
    25   15   16 1
    26   15   38 1
    27   16   20 1
    28   16   17 2
    29   17   18 1
    30   17   39 1
    31   18   19 2
    32   18   40 1
    33   19   20 1
    34   19   21 1
    35   21   26 ar
    36   21   22 ar
    37   22   23 ar
    38   22   41 1
    39   23   24 ar
    40   23   28 1
    41   24   25 ar
    42   24   42 1
    43   25   26 ar
    44   25   43 1
    45   26   27 1
    46   29   30 3
@<TRIPOS>MOLECULE
ZINC00943067
   46    49     0     0     0
SMALL
USER_CHARGES
2-cyano-N-(5-quinolyl)-3-[5-[3-(trifluoromethyl)phenyl]-2-furyl]-prop-2-enamide
@<TRIPOS>ATOM
      1 C1         -1.2234    1.7494    0.0875 C.ar      1 <0>        -0.1148
      2 C2         -1.2495    3.1286    0.0921 C.ar      1 <0>        -0.0563
      3 C3         -0.0511    3.8465    0.0759 C.ar      1 <0>        -0.0358
      4 C4          1.1664    3.1606    0.0600 C.ar      1 <0>        -0.0439
      5 C5          1.1771    1.7817    0.0604 C.ar      1 <0>        -0.1793
      6 C6         -0.0142    1.0771    0.0770 C.ar      1 <0>        -0.0565
      7 C7          2.4889    1.0402    0.0433 C.3       1 <0>         0.5089
      8 F1          2.2459   -0.3376    0.0476 F         1 <0>        -0.1743
      9 F2          3.2039    1.3840   -1.1090 F         1 <0>        -0.1729
     10 F3          3.2347    1.3857    1.1753 F         1 <0>        -0.1728
     11 C8         -0.0708    5.3219    0.0760 C.2       1 <0>         0.0792
     12 C9         -1.2013    6.1114    0.0907 C.2       1 <0>        -0.1974
     13 C10        -0.7732    7.4381    0.0855 C.2       1 <0>        -0.1056
     14 C11         0.6141    7.4115    0.0676 C.2       1 <0>        -0.0494
     15 O1          1.0103    6.1205    0.0676 O.3       1 <0>        -0.1505
     16 C12         1.4595    8.5327    0.0570 C.2       1 <0>         0.1057
     17 C13         2.8371    8.3631    0.0392 C.2       1 <0>        -0.1383
     18 C14         3.3961    7.0447    0.0317 C.1       1 <0>         0.2372
     19 N1          3.8396    5.9989    0.0257 N.1       1 <0>        -0.3899
     20 C15         3.7205    9.5347    0.0282 C.2       1 <0>         0.5795
     21 O2          3.2454   10.6552    0.0346 O.2       1 <0>        -0.5053
     22 N2          5.0580    9.3700    0.0109 N.am      1 <0>        -0.6635
     23 C16         5.8956   10.4793   -0.0950 C.ar      1 <0>         0.1567
     24 C17         5.5478   11.6740    0.5006 C.ar      1 <0>        -0.1157
     25 C18         6.3825   12.7825    0.4055 C.ar      1 <0>        -0.0798
     26 C19         7.5541   12.7255   -0.2865 C.ar      1 <0>        -0.1050
     27 C20         7.9433   11.5302   -0.9142 C.ar      1 <0>         0.1416
     28 C21         7.1041   10.3929   -0.8169 C.ar      1 <0>        -0.1128
     29 C22         7.4965    9.1991   -1.4460 C.ar      1 <0>        -0.0615
     30 C23         8.6796    9.1889   -2.1304 C.ar      1 <0>        -0.1713
     31 C24         9.4589   10.3416   -2.1874 C.ar      1 <0>         0.1347
     32 N3          9.0896   11.4535   -1.5988 N.ar      1 <0>        -0.4698
     33 H1         -2.1491    1.1931    0.0959 H         1 <0>         0.1478
     34 H2         -2.1940    3.6521    0.1045 H         1 <0>         0.1436
     35 H3          2.0966    3.7091    0.0470 H         1 <0>         0.1419
     36 H4          0.0003   -0.0029    0.0773 H         1 <0>         0.1467
     37 H5         -2.2248    5.7670    0.1042 H         1 <0>         0.1663
     38 H6         -1.4004    8.3173    0.0938 H         1 <0>         0.1728
     39 H7          1.0379    9.5270    0.0627 H         1 <0>         0.1906
     40 H8          5.4379    8.4796    0.0721 H         1 <0>         0.4109
     41 H9          4.6215   11.7476    1.0510 H         1 <0>         0.1487
     42 H10         6.0933   13.7068    0.8837 H         1 <0>         0.1373
     43 H11         8.1848   13.5997   -0.3525 H         1 <0>         0.1387
     44 H12         6.8798    8.3142   -1.3908 H         1 <0>         0.1307
     45 H13         9.0102    8.2877   -2.6253 H         1 <0>         0.1401
     46 H14        10.3918   10.3192   -2.7311 H         1 <0>         0.1625
@<TRIPOS>BOND
     1    1    6 ar
     2    1    2 ar
     3    1   33 1
     4    2    3 ar
     5    2   34 1
     6    3    4 ar
     7    3   11 1
     8    4    5 ar
     9    4   35 1
    10    5    6 ar
    11    5    7 1
    12    6   36 1
    13    7    8 1
    14    7    9 1
    15    7   10 1
    16   11   15 1
    17   11   12 2
    18   12   13 1
    19   12   37 1
    20   13   14 2
    21   13   38 1
    22   14   15 1
    23   14   16 1
    24   16   17 2
    25   16   39 1
    26   17   18 1
    27   17   20 1
    28   18   19 3
    29   20   21 2
    30   20   22 am
    31   22   23 1
    32   22   40 1
    33   23   28 ar
    34   23   24 ar
    35   24   25 ar
    36   24   41 1
    37   25   26 ar
    38   25   42 1
    39   26   27 ar
    40   26   43 1
    41   27   32 ar
    42   27   28 ar
    43   28   29 ar
    44   29   30 ar
    45   29   44 1
    46   30   31 ar
    47   30   45 1
    48   31   32 ar
    49   31   46 1
@<TRIPOS>MOLECULE
ZINC00943069
   43    46     0     0     0
SMALL
USER_CHARGES
3-[5-(2-chlorophenyl)-2-furyl]-2-cyano-N-(5-quinolyl)prop-2-enamide
@<TRIPOS>ATOM
      1 C1         -4.4517   -3.8780   -0.8538 C.ar      1 <0>        -0.1135
      2 C2         -5.4109   -4.2391    0.0767 C.ar      1 <0>        -0.0873
      3 C3         -5.8677   -3.3185    1.0026 C.ar      1 <0>        -0.1099
      4 C4         -5.3642   -2.0328    1.0086 C.ar      1 <0>        -0.0081
      5 C5         -4.3986   -1.6601    0.0683 C.ar      1 <0>        -0.0323
      6 C6         -3.9432   -2.5965   -0.8639 C.ar      1 <0>        -0.0737
      7 C7         -3.8590   -0.2872    0.0641 C.2       1 <0>         0.0765
      8 C8         -4.6072    0.8716    0.0738 C.2       1 <0>        -0.1873
      9 C9         -3.7092    1.9376    0.0709 C.2       1 <0>        -0.1055
     10 C10        -2.4349    1.3883    0.0508 C.2       1 <0>        -0.0550
     11 O1         -2.5563    0.0433    0.0504 O.3       1 <0>        -0.1453
     12 C11        -1.2286    2.1065    0.0390 C.2       1 <0>         0.1096
     13 C12        -0.0172    1.4284    0.0249 C.2       1 <0>        -0.1429
     14 C13         0.0019   -0.0035    0.0223 C.1       1 <0>         0.2373
     15 N1          0.0170   -1.1394    0.0203 N.1       1 <0>        -0.3902
     16 C14         1.2435    2.1790    0.0064 C.2       1 <0>         0.5801
     17 O2          1.2273    3.3960    0.0086 O.2       1 <0>        -0.5060
     18 N2          2.4194    1.5207   -0.0129 N.am      1 <0>        -0.6640
     19 C15         3.6138    2.2306   -0.1257 C.ar      1 <0>         0.1573
     20 C16         3.7458    3.4702    0.4650 C.ar      1 <0>        -0.1161
     21 C17         4.9368    4.1810    0.3621 C.ar      1 <0>        -0.0793
     22 C18         5.9975    3.6826   -0.3317 C.ar      1 <0>        -0.1055
     23 C19         5.9037    2.4264   -0.9542 C.ar      1 <0>         0.1416
     24 C20         4.6973    1.6911   -0.8498 C.ar      1 <0>        -0.1130
     25 C21         4.6070    0.4351   -1.4736 C.ar      1 <0>        -0.0612
     26 C22         5.6960   -0.0243   -2.1600 C.ar      1 <0>        -0.1718
     27 C23         6.8530    0.7480   -2.2241 C.ar      1 <0>         0.1344
     28 N3          6.9336    1.9193   -1.6404 N.ar      1 <0>        -0.4698
     29 Cl1        -5.9330   -0.8805    2.1758 Cl        1 <0>        -0.0508
     30 H1         -4.1004   -4.6023   -1.5738 H         1 <0>         0.1384
     31 H2         -5.8050   -5.2447    0.0795 H         1 <0>         0.1404
     32 H3         -6.6164   -3.6073    1.7253 H         1 <0>         0.1437
     33 H4         -3.1949   -2.3168   -1.5907 H         1 <0>         0.1361
     34 H5         -5.6850    0.9399    0.0851 H         1 <0>         0.1637
     35 H6         -3.9574    2.9887    0.0801 H         1 <0>         0.1717
     36 H7         -1.2430    3.1864    0.0409 H         1 <0>         0.1896
     37 H8          2.4346    0.5530    0.0517 H         1 <0>         0.4107
     38 H9          2.9179    3.8907    1.0167 H         1 <0>         0.1488
     39 H10         5.0202    5.1478    0.8361 H         1 <0>         0.1372
     40 H11         6.9116    4.2532   -0.4032 H         1 <0>         0.1386
     41 H12         3.7017   -0.1507   -1.4129 H         1 <0>         0.1307
     42 H13         5.6597   -0.9855   -2.6510 H         1 <0>         0.1398
     43 H14         7.7063    0.3724   -2.7694 H         1 <0>         0.1624
@<TRIPOS>BOND
     1    1    6 ar
     2    1    2 ar
     3    1   30 1
     4    2    3 ar
     5    2   31 1
     6    3    4 ar
     7    3   32 1
     8    4    5 ar
     9    4   29 1
    10    5    6 ar
    11    5    7 1
    12    6   33 1
    13    7   11 1
    14    7    8 2
    15    8    9 1
    16    8   34 1
    17    9   10 2
    18    9   35 1
    19   10   11 1
    20   10   12 1
    21   12   13 2
    22   12   36 1
    23   13   14 1
    24   13   16 1
    25   14   15 3
    26   16   17 2
    27   16   18 am
    28   18   19 1
    29   18   37 1
    30   19   24 ar
    31   19   20 ar
    32   20   21 ar
    33   20   38 1
    34   21   22 ar
    35   21   39 1
    36   22   23 ar
    37   22   40 1
    38   23   28 ar
    39   23   24 ar
    40   24   25 ar
    41   25   26 ar
    42   25   41 1
    43   26   27 ar
    44   26   42 1
    45   27   28 ar
    46   27   43 1
@<TRIPOS>MOLECULE
ZINC29043612
   58    63     0     0     0
SMALL
USER_CHARGES

@<TRIPOS>ATOM
      1 C1         -0.1366    1.3388   -0.0536 C.ar      1 <0>        -0.1378
      2 C2          1.0247    2.0914   -0.0750 C.ar      1 <0>        -0.0810
      3 C3          2.2588    1.4700   -0.0708 C.ar      1 <0>        -0.1324
      4 C4          2.3392    0.0853   -0.0447 C.ar      1 <0>         0.1841
      5 C5          1.1661   -0.6778   -0.0226 C.ar      1 <0>        -0.0570
      6 C6         -0.0719   -0.0398   -0.0275 C.ar      1 <0>        -0.0827
      7 C7          1.2410   -2.1587    0.0050 C.2       1 <0>         0.1062
      8 C8          0.1898   -3.0105   -0.0755 C.2       1 <0>        -0.0523
      9 N1          0.6924   -4.3058   -0.0129 N.pl3     1 <0>        -0.4290
     10 C9          0.2083   -5.5959   -0.0372 C.2       1 <0>         0.0409
     11 C10         1.0350   -6.6367    0.0503 C.2       1 <0>        -0.1436
     12 S1          2.6258   -5.8351    0.1790 S.3       1 <0>         0.1629
     13 C11         2.0497   -4.1548    0.1045 C.2       1 <0>         0.1936
     14 N2          2.3679   -2.8932    0.1087 N.2       1 <0>        -0.4419
     15 C12        -1.2747   -5.8320   -0.1640 C.3       1 <0>         0.1146
     16 N3         -1.8957   -5.7702    1.1659 N.3       1 <0>        -0.5342
     17 C13        -1.8095   -4.4137    1.7249 C.3       1 <0>         0.0131
     18 C14        -2.4126   -4.4056    3.1313 C.3       1 <0>        -0.0013
     19 N4         -3.8147   -4.8383    3.0655 N.4       1 <0>        -0.5082
     20 C15        -3.8828   -6.2037    2.5282 C.3       1 <0>        -0.0022
     21 C16        -3.2919   -6.2268    1.1169 C.3       1 <0>         0.0236
     22 N5          3.5861   -0.5449   -0.0409 N.am      1 <0>        -0.6396
     23 C17         4.6678    0.1044    0.4331 C.2       1 <0>         0.5778
     24 O1          4.5428    1.1977    0.9486 O.2       1 <0>        -0.5033
     25 C18         6.0097   -0.5150    0.3257 C.ar      1 <0>         0.0504
     26 C19         7.1339    0.1644    0.8271 C.ar      1 <0>         0.1300
     27 N6          8.3299   -0.3694    0.7409 N.ar      1 <0>        -0.4196
     28 C20         8.4827   -1.5703    0.1712 C.ar      1 <0>         0.0996
     29 C21         9.7515   -2.1655    0.0662 C.ar      1 <0>        -0.0884
     30 C22         9.8777   -3.3881   -0.5177 C.ar      1 <0>        -0.0822
     31 C23         8.7648   -4.0646   -1.0167 C.ar      1 <0>        -0.0965
     32 C24         7.5206   -3.5218   -0.9342 C.ar      1 <0>        -0.0765
     33 C25         7.3488   -2.2586   -0.3361 C.ar      1 <0>         0.0762
     34 N7          6.1401   -1.7044   -0.2360 N.ar      1 <0>        -0.3854
     35 H1         -1.0972    1.8323   -0.0529 H         1 <0>         0.1293
     36 H2          0.9661    3.1696   -0.0954 H         1 <0>         0.1331
     37 H3          3.1615    2.0627   -0.0883 H         1 <0>         0.1529
     38 H4         -0.9807   -0.6232   -0.0108 H         1 <0>         0.1216
     39 H5         -0.8497   -2.7335   -0.1706 H         1 <0>         0.1787
     40 H6          0.8033   -7.6916    0.0451 H         1 <0>         0.2202
     41 H7         -1.7111   -5.0658   -0.8047 H         1 <0>         0.0626
     42 H8         -1.4500   -6.8147   -0.6016 H         1 <0>         0.1198
     43 H9         -0.7648   -4.1069    1.7755 H         1 <0>         0.1232
     44 H10        -2.3616   -3.7222    1.0884 H         1 <0>         0.0636
     45 H11        -1.8518   -5.0869    3.7711 H         1 <0>         0.1410
     46 H12        -2.3626   -3.3972    3.5423 H         1 <0>         0.1410
     47 H13        -4.2157   -4.8210    3.9912 H         1 <0>         0.4364
     48 H14        -3.3144   -6.8758    3.1711 H         1 <0>         0.1413
     49 H15        -4.9227   -6.5285    2.4921 H         1 <0>         0.1419
     50 H16        -3.8684   -5.5652    0.4703 H         1 <0>         0.0647
     51 H17        -3.3287   -7.2428    0.7237 H         1 <0>         0.1286
     52 H18         3.6732   -1.4497   -0.3794 H         1 <0>         0.4339
     53 H19         7.0124    1.1340    1.2869 H         1 <0>         0.1891
     54 H20        10.6232   -1.6541    0.4471 H         1 <0>         0.1464
     55 H21        10.8548   -3.8415   -0.5962 H         1 <0>         0.1425
     56 H22         8.8930   -5.0338   -1.4758 H         1 <0>         0.1415
     57 H23         6.6682   -4.0570   -1.3257 H         1 <0>         0.1424
     58 H24        -4.3312   -4.2143    2.4639 H         1 <0>         0.4264
@<TRIPOS>BOND
     1    1    6 ar
     2    1    2 ar
     3    1   35 1
     4    2    3 ar
     5    2   36 1
     6    3    4 ar
     7    3   37 1
     8    4    5 ar
     9    4   22 1
    10    5    6 ar
    11    5    7 1
    12    6   38 1
    13    7   14 1
    14    7    8 2
    15    8    9 1
    16    8   39 1
    17    9   13 1
    18    9   10 1
    19   10   11 2
    20   10   15 1
    21   11   12 1
    22   11   40 1
    23   12   13 1
    24   13   14 2
    25   15   16 1
    26   15   41 1
    27   15   42 1
    28   16   21 1
    29   16   17 1
    30   17   18 1
    31   17   43 1
    32   17   44 1
    33   18   19 1
    34   18   45 1
    35   18   46 1
    36   19   20 1
    37   19   47 1
    38   19   58 1
    39   20   21 1
    40   20   48 1
    41   20   49 1
    42   21   50 1
    43   21   51 1
    44   22   23 am
    45   22   52 1
    46   23   24 2
    47   23   25 1
    48   25   34 ar
    49   25   26 ar
    50   26   27 ar
    51   26   53 1
    52   27   28 ar
    53   28   33 ar
    54   28   29 ar
    55   29   30 ar
    56   29   54 1
    57   30   31 ar
    58   30   55 1
    59   31   32 ar
    60   31   56 1
    61   32   33 ar
    62   32   57 1
    63   33   34 ar
@<TRIPOS>MOLECULE
ZINC02560262
   38    42     0     0     0
SMALL
USER_CHARGES
3,4-bis(1H-indol-3-yl)pyrrole-2,5-dione
@<TRIPOS>ATOM
      1 C1          2.3783    1.4372   -0.0129 C.ar      1 <0>        -0.1378
      2 C2          2.3986    0.0500   -0.0201 C.ar      1 <0>        -0.0992
      3 C3          1.2234   -0.6696   -0.0130 C.ar      1 <0>        -0.1252
      4 C4          0.0021   -0.0041    0.0020 C.ar      1 <0>         0.0932
      5 C5         -0.0170    1.4005    0.0097 C.ar      1 <0>        -0.0762
      6 C6          1.1790    2.1150    0.0022 C.ar      1 <0>        -0.0746
      7 C7         -1.4387    1.7873    0.0313 C.2       1 <0>        -0.1393
      8 C8         -2.1564    0.6276    0.0268 C.2       1 <0>         0.1036
      9 N1         -1.3078   -0.4365    0.0127 N.pl3     1 <0>        -0.5847
     10 H1         -1.5846   -1.3661    0.0104 H         1 <0>         0.4208
     11 C9         -1.9786    3.1572    0.0460 C.2       1 <0>        -0.0287
     12 C10        -2.5428    3.8215    1.1288 C.2       1 <0>        -0.0283
     13 C11        -2.9252    5.1602    0.6339 C.2       1 <0>         0.5560
     14 O1         -3.4500    6.0359    1.2924 O.2       1 <0>        -0.4468
     15 N2         -2.6005    5.2457   -0.6672 N.am      1 <0>        -0.6911
     16 C12        -2.0361    4.1015   -1.0890 C.2       1 <0>         0.5560
     17 O2         -1.6390    3.8805   -2.2156 O.2       1 <0>        -0.4469
     18 C13        -2.7216    3.2977    2.4934 C.2       1 <0>        -0.1393
     19 C14        -1.7506    3.1292    3.4361 C.2       1 <0>         0.1037
     20 N3         -2.3001    2.6255    4.5750 N.pl3     1 <0>        -0.5848
     21 H2         -1.8075    2.4236    5.3858 H         1 <0>         0.4208
     22 C15        -3.6566    2.4375    4.4094 C.ar      1 <0>         0.0933
     23 C16        -3.9836    2.8469    3.1061 C.ar      1 <0>        -0.0762
     24 C17        -5.3006    2.7671    2.6589 C.ar      1 <0>        -0.0746
     25 C18        -6.2790    2.2863    3.5014 C.ar      1 <0>        -0.1378
     26 C19        -5.9574    1.8812    4.7888 C.ar      1 <0>        -0.0992
     27 C20        -4.6588    1.9542    5.2442 C.ar      1 <0>        -0.1252
     28 H3          3.3071    1.9883   -0.0193 H         1 <0>         0.1249
     29 H4          3.3446   -0.4710   -0.0317 H         1 <0>         0.1271
     30 H5          1.2506   -1.7492   -0.0194 H         1 <0>         0.1217
     31 H6          1.1660    3.1949    0.0080 H         1 <0>         0.1195
     32 H7         -3.2345    0.5634    0.0366 H         1 <0>         0.1766
     33 H8         -2.7524    6.0250   -1.2244 H         1 <0>         0.4287
     34 H9         -0.7049    3.3627    3.3006 H         1 <0>         0.1766
     35 H10        -5.5536    3.0819    1.6573 H         1 <0>         0.1194
     36 H11        -7.3010    2.2242    3.1580 H         1 <0>         0.1249
     37 H12        -6.7323    1.5052    5.4404 H         1 <0>         0.1271
     38 H13        -4.4196    1.6368    6.2484 H         1 <0>         0.1217
@<TRIPOS>BOND
     1    1    6 ar
     2    1    2 ar
     3    1   28 1
     4    2    3 ar
     5    2   29 1
     6    3    4 ar
     7    3   30 1
     8    4    9 1
     9    4    5 ar
    10    5    6 ar
    11    5    7 1
    12    6   31 1
    13    7    8 2
    14    7   11 1
    15    8    9 1
    16    8   32 1
    17    9   10 1
    18   11   16 1
    19   11   12 2
    20   12   13 1
    21   12   18 1
    22   13   14 2
    23   13   15 am
    24   15   16 am
    25   15   33 1
    26   16   17 2
    27   18   23 1
    28   18   19 2
    29   19   20 1
    30   19   34 1
    31   20   21 1
    32   20   22 1
    33   22   27 ar
    34   22   23 ar
    35   23   24 ar
    36   24   25 ar
    37   24   35 1
    38   25   26 ar
    39   25   36 1
    40   26   27 ar
    41   26   37 1
    42   27   38 1
@<TRIPOS>MOLECULE
ZINC00499303
   33    35     0     0     0
SMALL
USER_CHARGES

@<TRIPOS>ATOM
      1 C1          0.0633    1.9562    0.1444 C.ar      1 <0>        -0.0861
      2 C2          1.3000    2.5594    0.0805 C.ar      1 <0>        -0.1167
      3 C3          2.4520    1.7806    0.0586 C.ar      1 <0>         0.1080
      4 C4          2.3405    0.3787    0.1030 C.ar      1 <0>        -0.0950
      5 C5          1.0798   -0.2180    0.1672 C.ar      1 <0>        -0.0560
      6 C6         -0.0481    0.5722    0.1876 C.ar      1 <0>        -0.0601
      7 Cl1        -1.6176   -0.1654    0.2675 Cl        1 <0>        -0.0701
      8 C7          3.7098   -0.1350    0.0662 C.2       1 <0>        -0.1334
      9 C8          4.5333    0.9246    0.0082 C.2       1 <0>         0.0678
     10 N1          3.7951    2.0792   -0.0021 N.pl3     1 <0>        -0.5897
     11 H1          4.1643    2.9751   -0.0455 H         1 <0>         0.4171
     12 C9          6.0417    0.8519   -0.0273 C.3       1 <0>        -0.0463
     13 H2          6.4460    1.8262   -0.3016 H         1 <0>         0.1107
     14 C10         6.4784   -0.1902   -1.0589 C.3       1 <0>        -0.0955
     15 C11         6.5781   -1.5612   -0.3956 C.3       1 <0>        -0.1257
     16 C12         5.5219   -1.7044    0.6976 C.3       1 <0>        -0.1462
     17 C13         4.1270   -1.5828    0.0790 C.3       1 <0>        -0.0515
     18 C14         6.5577    0.4588    1.3329 C.2       1 <0>         0.5463
     19 O1          7.6002   -0.1530    1.4325 O.2       1 <0>        -0.5356
     20 N2          5.8608    0.7872    2.4388 N.am      1 <0>        -0.8610
     21 H3         -0.8283    2.5653    0.1655 H         1 <0>         0.1377
     22 H4          1.3750    3.6362    0.0471 H         1 <0>         0.1312
     23 H5          0.9895   -1.2937    0.2010 H         1 <0>         0.1339
     24 H6          5.7469   -0.2302   -1.8660 H         1 <0>         0.0762
     25 H7          7.4509    0.0874   -1.4655 H         1 <0>         0.0792
     26 H8          6.4256   -2.3361   -1.1468 H         1 <0>         0.0648
     27 H9          7.5688   -1.6770    0.0439 H         1 <0>         0.0862
     28 H10         5.6237   -2.6787    1.1756 H         1 <0>         0.0692
     29 H11         5.6595   -0.9190    1.4408 H         1 <0>         0.0872
     30 H12         3.4160   -2.1608    0.6692 H         1 <0>         0.0721
     31 H13         4.1475   -1.9643   -0.9419 H         1 <0>         0.0767
     32 H14         5.0271    1.2766    2.3591 H         1 <0>         0.4004
     33 H15         6.1929    0.5342    3.3143 H         1 <0>         0.4042
@<TRIPOS>BOND
     1    1    6 ar
     2    1    2 ar
     3    1   21 1
     4    2    3 ar
     5    2   22 1
     6    3   10 1
     7    3    4 ar
     8    4    5 ar
     9    4    8 1
    10    5    6 ar
    11    5   23 1
    12    6    7 1
    13    8   17 1
    14    8    9 2
    15    9   10 1
    16    9   12 1
    17   10   11 1
    18   12   13 1
    19   12   14 1
    20   12   18 1
    21   14   15 1
    22   14   24 1
    23   14   25 1
    24   15   16 1
    25   15   26 1
    26   15   27 1
    27   16   17 1
    28   16   28 1
    29   16   29 1
    30   17   30 1
    31   17   31 1
    32   18   19 2
    33   18   20 am
    34   20   32 1
    35   20   33 1
@<TRIPOS>MOLECULE
ZINC00499304
   33    35     0     0     0
SMALL
USER_CHARGES

@<TRIPOS>ATOM
      1 C1          0.0365    1.1541   -0.9419 C.ar      1 <0>        -0.0874
      2 C2          1.1763    1.9157   -0.8061 C.ar      1 <0>        -0.1166
      3 C3          2.4046    1.2966   -0.6015 C.ar      1 <0>         0.1073
      4 C4          2.4692   -0.1074   -0.5343 C.ar      1 <0>        -0.0921
      5 C5          1.3051   -0.8657   -0.6742 C.ar      1 <0>        -0.0567
      6 C6          0.0991   -0.2320   -0.8764 C.ar      1 <0>        -0.0601
      7 Cl1        -1.3508   -1.1707   -1.0507 Cl        1 <0>        -0.0711
      8 C7          3.8780   -0.4350   -0.3144 C.2       1 <0>        -0.1420
      9 C8          4.5546    0.7240   -0.2594 C.2       1 <0>         0.0908
     10 N1          3.6869    1.7703   -0.4346 N.pl3     1 <0>        -0.5887
     11 H1          3.9390    2.7070   -0.4400 H         1 <0>         0.4136
     12 C9          6.0417    0.8519   -0.0273 C.3       1 <0>        -0.0411
     13 H2          6.2673    0.6268    1.0151 H         1 <0>         0.1158
     14 C10         6.7862   -0.1305   -0.9337 C.3       1 <0>        -0.0992
     15 C11         6.9426   -1.4712   -0.2215 C.3       1 <0>        -0.1225
     16 C12         5.7362   -1.7454    0.6732 C.3       1 <0>        -0.1253
     17 C13         4.4699   -1.8145   -0.1841 C.3       1 <0>        -0.0492
     18 C14         6.4803    2.2584   -0.3438 C.2       1 <0>         0.5113
     19 O1          6.7591    2.5647   -1.4837 O.2       1 <0>        -0.5264
     20 N2          6.5629    3.1760    0.6399 N.am      1 <0>        -0.8552
     21 H3         -0.9158    1.6397   -1.0963 H         1 <0>         0.1374
     22 H4          1.1160    2.9927   -0.8589 H         1 <0>         0.1298
     23 H5          1.3502   -1.9436   -0.6237 H         1 <0>         0.1343
     24 H6          6.2215   -0.2731   -1.8551 H         1 <0>         0.0786
     25 H7          7.7713    0.2708   -1.1715 H         1 <0>         0.0781
     26 H8          7.0279   -2.2650   -0.9636 H         1 <0>         0.0728
     27 H9          7.8457   -1.4513    0.3886 H         1 <0>         0.0659
     28 H10         5.8763   -2.6941    1.1913 H         1 <0>         0.0713
     29 H11         5.6365   -0.9434    1.4045 H         1 <0>         0.0673
     30 H12         3.7459   -2.4775    0.2896 H         1 <0>         0.0737
     31 H13         4.7210   -2.1973   -1.1733 H         1 <0>         0.0763
     32 H14         6.3400    2.9311    1.5516 H         1 <0>         0.4040
     33 H15         6.8453    4.0814    0.4362 H         1 <0>         0.4051
@<TRIPOS>BOND
     1    1    6 ar
     2    1    2 ar
     3    1   21 1
     4    2    3 ar
     5    2   22 1
     6    3   10 1
     7    3    4 ar
     8    4    5 ar
     9    4    8 1
    10    5    6 ar
    11    5   23 1
    12    6    7 1
    13    8   17 1
    14    8    9 2
    15    9   10 1
    16    9   12 1
    17   10   11 1
    18   12   13 1
    19   12   14 1
    20   12   18 1
    21   14   15 1
    22   14   24 1
    23   14   25 1
    24   15   16 1
    25   15   26 1
    26   15   27 1
    27   16   17 1
    28   16   28 1
    29   16   29 1
    30   17   30 1
    31   17   31 1
    32   18   19 2
    33   18   20 am
    34   20   32 1
    35   20   33 1
@<TRIPOS>MOLECULE
ZINC03797930
   57    61     0     0     0
SMALL
USER_CHARGES

@<TRIPOS>ATOM
      1 C1         -0.0178    1.4608    0.0101 C.3       1 <0>         0.0756
      2 N1          0.0021   -0.0041    0.0020 N.pl3     1 <0>        -0.4779
      3 C2          0.0079   -0.7756   -1.1193 C.2       1 <0>         0.1034
      4 C3          0.0281   -2.0937   -0.7697 C.2       1 <0>        -0.1402
      5 C4          0.0354   -2.1368    0.7032 C.ar      1 <0>        -0.0754
      6 C5          0.0236   -0.7983    1.1297 C.ar      1 <0>         0.0946
      7 C6          0.0313   -0.5163    2.4916 C.ar      1 <0>        -0.1255
      8 C7          0.0535   -1.5463    3.4071 C.ar      1 <0>        -0.0992
      9 C8          0.0683   -2.8675    2.9845 C.ar      1 <0>        -0.1386
     10 C9          0.0542   -3.1677    1.6397 C.ar      1 <0>        -0.0735
     11 C10         0.0398   -3.2475   -1.6846 C.2       1 <0>        -0.0198
     12 C11         1.1172   -3.7122   -2.4298 C.2       1 <0>        -0.0395
     13 C12         0.6208   -4.8840   -3.1806 C.2       1 <0>         0.5564
     14 O1          1.2746   -5.5640   -3.9461 O.2       1 <0>        -0.4464
     15 N2         -0.6740   -5.0726   -2.8749 N.am      1 <0>        -0.6902
     16 C13        -1.0897   -4.1493   -1.9915 C.2       1 <0>         0.5532
     17 O2         -2.2087   -4.0674   -1.5257 O.2       1 <0>        -0.4418
     18 C14         2.4779   -3.1502   -2.4643 C.2       1 <0>        -0.1185
     19 C15         3.4364   -3.2746   -1.5022 C.2       1 <0>         0.0933
     20 N3          4.5640   -2.6188   -1.8910 N.pl3     1 <0>        -0.4798
     21 C16         4.3781   -2.0398   -3.1293 C.ar      1 <0>         0.0962
     22 C17         3.0730   -2.3483   -3.5479 C.ar      1 <0>        -0.0752
     23 C18         2.6089   -1.8925   -4.7796 C.ar      1 <0>        -0.0686
     24 C19         3.4370   -1.1416   -5.5852 C.ar      1 <0>        -0.1351
     25 C20         4.7273   -0.8397   -5.1749 C.ar      1 <0>        -0.0935
     26 C21         5.1968   -1.2769   -3.9550 C.ar      1 <0>        -0.1304
     27 C22         5.7987   -2.5392   -1.1066 C.3       1 <0>         0.1213
     28 C23         5.8024   -1.2444   -0.2914 C.3       1 <0>        -0.1304
     29 C24         7.0919   -1.1612    0.5278 C.3       1 <0>        -0.1323
     30 S1          7.0963    0.3739    1.4943 S.3       1 <0>         0.0637
     31 C25         8.6242    0.3216    2.3704 C.cat     1 <0>         0.4855
     32 N4          9.2482    1.4553    2.6902 N.pl3     1 <0>        -0.7357
     33 N5          9.1561   -0.8516    2.7133 N.pl3     1 <0>        -0.7643
     34 H1          1.0048    1.8381    0.0023 H         1 <0>         0.0705
     35 H2         -0.5450    1.8219   -0.8730 H         1 <0>         0.0878
     36 H3         -0.5280    1.8123    0.9069 H         1 <0>         0.0849
     37 H4         -0.0026   -0.4009   -2.1322 H         1 <0>         0.1741
     38 H5          0.0202    0.5088    2.8315 H         1 <0>         0.1196
     39 H6          0.0598   -1.3227    4.4637 H         1 <0>         0.1265
     40 H7          0.0861   -3.6646    3.7130 H         1 <0>         0.1250
     41 H8          0.0669   -4.1972    1.3134 H         1 <0>         0.1196
     42 H9         -1.2301   -5.7795   -3.2382 H         1 <0>         0.4308
     43 H10         3.3186   -3.8118   -0.5727 H         1 <0>         0.1746
     44 H11         1.6050   -2.1267   -5.1017 H         1 <0>         0.1223
     45 H12         3.0800   -0.7868   -6.5407 H         1 <0>         0.1277
     46 H13         5.3679   -0.2507   -5.8146 H         1 <0>         0.1281
     47 H14         6.2036   -1.0375   -3.6461 H         1 <0>         0.1168
     48 H15         5.8563   -3.3934   -0.4320 H         1 <0>         0.1002
     49 H16         6.6571   -2.5481   -1.7783 H         1 <0>         0.0963
     50 H17         5.7448   -0.3902   -0.9660 H         1 <0>         0.0946
     51 H18         4.9440   -1.2354    0.3802 H         1 <0>         0.0946
     52 H19         7.1495   -2.0155    1.2024 H         1 <0>         0.1123
     53 H20         7.9503   -1.1702   -0.1438 H         1 <0>         0.1212
     54 H21         8.8612    2.3090    2.4406 H         1 <0>         0.4515
     55 H22         8.7020   -1.6765    2.4806 H         1 <0>         0.4429
     56 H23         9.9972   -0.8803    3.1956 H         1 <0>         0.4324
     57 H24        10.0893    1.4265    3.1725 H         1 <0>         0.4339
@<TRIPOS>BOND
     1    1    2 1
     2    1   34 1
     3    1   35 1
     4    1   36 1
     5    2    6 1
     6    2    3 1
     7    3    4 2
     8    3   37 1
     9    4    5 1
    10    4   11 1
    11    5   10 ar
    12    5    6 ar
    13    6    7 ar
    14    7    8 ar
    15    7   38 1
    16    8    9 ar
    17    8   39 1
    18    9   10 ar
    19    9   40 1
    20   10   41 1
    21   11   16 1
    22   11   12 2
    23   12   13 1
    24   12   18 1
    25   13   14 2
    26   13   15 am
    27   15   16 am
    28   15   42 1
    29   16   17 2
    30   18   22 1
    31   18   19 2
    32   19   20 1
    33   19   43 1
    34   20   21 1
    35   20   27 1
    36   21   26 ar
    37   21   22 ar
    38   22   23 ar
    39   23   24 ar
    40   23   44 1
    41   24   25 ar
    42   24   45 1
    43   25   26 ar
    44   25   46 1
    45   26   47 1
    46   27   28 1
    47   27   48 1
    48   27   49 1
    49   28   29 1
    50   28   50 1
    51   28   51 1
    52   29   30 1
    53   29   52 1
    54   29   53 1
    55   30   31 1
    56   31   32 2
    57   31   33 1
    58   32   54 1
    59   32   57 1
    60   33   55 1
    61   33   56 1
@<TRIPOS>MOLECULE
ZINC00585151
   56    60     0     0     0
SMALL
USER_CHARGES

@<TRIPOS>ATOM
      1 C1         -0.0178    1.4648    0.0101 C.3       1 <0>        -0.0534
      2 N1          0.0021   -0.0041    0.0020 N.4       1 <0>        -0.3866
      3 C2          0.6897   -0.4778   -1.2066 C.3       1 <0>        -0.0478
      4 C3          0.7126   -0.4907    1.1921 C.3       1 <0>        -0.0080
      5 C4         -0.0711   -0.1034    2.4478 C.3       1 <0>        -0.1730
      6 C5          0.6689   -0.6103    3.6874 C.3       1 <0>         0.1182
      7 N2         -0.0815   -0.2395    4.8897 N.pl3     1 <0>        -0.4815
      8 C6          0.1469    0.8758    5.6359 C.2       1 <0>         0.0901
      9 C7         -0.7280    0.9160    6.6813 C.2       1 <0>        -0.1149
     10 C8         -1.5728   -0.2860    6.5675 C.ar      1 <0>        -0.0758
     11 C9         -1.1242   -0.9677    5.4239 C.ar      1 <0>         0.0951
     12 C10        -1.7430   -2.1563    5.0519 C.ar      1 <0>        -0.1325
     13 C11        -2.7877   -2.6520    5.8018 C.ar      1 <0>        -0.0916
     14 C12        -3.2317   -1.9762    6.9290 C.ar      1 <0>        -0.1341
     15 C13        -2.6274   -0.8005    7.3180 C.ar      1 <0>        -0.0675
     16 C14        -0.8118    1.9563    7.7201 C.2       1 <0>        -0.0396
     17 C15        -1.3439    3.2331    7.5833 C.2       1 <0>        -0.0216
     18 C16        -1.1928    3.8832    8.9015 C.2       1 <0>         0.5528
     19 O1         -1.5431    5.0129    9.1789 O.2       1 <0>        -0.4407
     20 N3         -0.6040    3.0163    9.7426 N.am      1 <0>        -0.6896
     21 C17        -0.3529    1.8519    9.1208 C.2       1 <0>         0.5557
     22 O2          0.1678    0.8770    9.6251 O.2       1 <0>        -0.4448
     23 C18        -1.9376    3.8193    6.3699 C.2       1 <0>        -0.1386
     24 C19        -3.1673    3.5437    5.8485 C.2       1 <0>         0.1034
     25 N4         -3.3630    4.2810    4.7213 N.pl3     1 <0>        -0.5859
     26 H1         -4.1640    4.2562    4.1748 H         1 <0>         0.4208
     27 C20        -2.2594    5.0687    4.4669 C.ar      1 <0>         0.0921
     28 C21        -1.3222    4.8236    5.4844 C.ar      1 <0>        -0.0761
     29 C22        -0.1012    5.4938    5.4850 C.ar      1 <0>        -0.0737
     30 C23         0.1803    6.3997    4.4856 C.ar      1 <0>        -0.1372
     31 C24        -0.7458    6.6457    3.4825 C.ar      1 <0>        -0.0980
     32 C25        -1.9544    5.9835    3.4647 C.ar      1 <0>        -0.1284
     33 H2          1.0047    1.8421    0.0024 H         1 <0>         0.1243
     34 H3         -0.5450    1.8259   -0.8730 H         1 <0>         0.1260
     35 H4         -0.5280    1.8163    0.9069 H         1 <0>         0.1232
     36 H5          1.7123   -0.1005   -1.2143 H         1 <0>         0.1234
     37 H6          0.7044   -1.5677   -1.2126 H         1 <0>         0.1246
     38 H7          0.1625   -0.1167   -2.0897 H         1 <0>         0.1259
     39 H8          0.8051   -1.5756    1.1418 H         1 <0>         0.1349
     40 H9          1.7055   -0.0428    1.2310 H         1 <0>         0.1343
     41 H10        -0.1636    0.9815    2.4982 H         1 <0>         0.0962
     42 H11        -1.0640   -0.5514    2.4090 H         1 <0>         0.0946
     43 H12         0.7614   -1.6952    3.6370 H         1 <0>         0.0986
     44 H13         1.6619   -0.1623    3.7262 H         1 <0>         0.1025
     45 H14         0.9061    1.6162    5.4314 H         1 <0>         0.1747
     46 H15        -1.4054   -2.6903    4.1759 H         1 <0>         0.1162
     47 H16        -3.2655   -3.5752    5.5090 H         1 <0>         0.1291
     48 H17        -4.0517   -2.3760    7.5071 H         1 <0>         0.1290
     49 H18        -2.9758   -0.2758    8.1954 H         1 <0>         0.1233
     50 H19        -0.3934    3.2036   10.6708 H         1 <0>         0.4318
     51 H20        -3.8779    2.8460    6.2665 H         1 <0>         0.1769
     52 H21         0.6213    5.3046    6.2652 H         1 <0>         0.1203
     53 H22         1.1262    6.9209    4.4834 H         1 <0>         0.1262
     54 H23        -0.5147    7.3581    2.7044 H         1 <0>         0.1278
     55 H24        -2.6689    6.1837    2.6799 H         1 <0>         0.1213
     56 H25        -0.9445   -0.3533    0.0092 H         1 <0>         0.4275
@<TRIPOS>BOND
     1    1    2 1
     2    1   33 1
     3    1   34 1
     4    1   35 1
     5    2    3 1
     6    2    4 1
     7    2   56 1
     8    3   36 1
     9    3   37 1
    10    3   38 1
    11    4    5 1
    12    4   39 1
    13    4   40 1
    14    5    6 1
    15    5   41 1
    16    5   42 1
    17    6    7 1
    18    6   43 1
    19    6   44 1
    20    7   11 1
    21    7    8 1
    22    8    9 2
    23    8   45 1
    24    9   10 1
    25    9   16 1
    26   10   15 ar
    27   10   11 ar
    28   11   12 ar
    29   12   13 ar
    30   12   46 1
    31   13   14 ar
    32   13   47 1
    33   14   15 ar
    34   14   48 1
    35   15   49 1
    36   16   21 1
    37   16   17 2
    38   17   18 1
    39   17   23 1
    40   18   19 2
    41   18   20 am
    42   20   21 am
    43   20   50 1
    44   21   22 2
    45   23   28 1
    46   23   24 2
    47   24   25 1
    48   24   51 1
    49   25   26 1
    50   25   27 1
    51   27   32 ar
    52   27   28 ar
    53   28   29 ar
    54   29   30 ar
    55   29   52 1
    56   30   31 ar
    57   30   53 1
    58   31   32 ar
    59   31   54 1
    60   32   55 1
