@<TRIPOS>MOLECULE
ZINC13474734
   36    36     0     0     0
SMALL
USER_CHARGES

@<TRIPOS>ATOM
      1 C1         -0.0071    1.2770   -0.1436 C.3       1 <0>        -0.1533
      2 C2         -0.0025   -0.2508   -0.0615 C.3       1 <0>        -0.0937
      3 C3          0.7033   -0.8255   -1.2913 C.3       1 <0>        -0.1395
      4 C4          0.7260   -0.6847    1.1844 C.ar      1 <0>         0.0435
      5 C5          2.0509   -0.3298    1.3667 C.ar      1 <0>        -0.1498
      6 C6          2.7233   -0.7244    2.5048 C.ar      1 <0>        -0.0042
      7 C7          2.0646   -1.4823    3.4732 C.ar      1 <0>        -0.1585
      8 C8          0.7290   -1.8365    3.2839 C.ar      1 <0>         0.0338
      9 C9          0.0657   -1.4313    2.1436 C.ar      1 <0>        -0.6717
     10 S1         -1.6237   -1.8717    1.9058 S.o2      1 <0>         2.4956
     11 O1         -1.6692   -2.4472    0.6074 O.2       1 <0>        -0.9300
     12 O2         -1.9626   -2.6409    3.0515 O.2       1 <0>        -0.9356
     13 C10        -2.5229   -0.2963    1.9227 C.3       1 <0>        -0.6583
     14 C11         2.7809   -1.9096    4.6972 C.2       1 <0>         0.5543
     15 O3          2.2034   -2.5714    5.5411 O.2       1 <0>        -0.5328
     16 N1          4.0638   -1.5683    4.8760 N.2       1 <0>        -0.6989
     17 C12         4.9653   -2.5000    5.1475 C.2       1 <0>         0.7025
     18 N2          4.6124   -3.8169    5.1261 N.pl3     1 <0>        -0.8628
     19 N3          6.2462   -2.1421    5.4483 N.pl3     1 <0>        -0.8248
     20 H1          1.0194    1.6421   -0.1771 H         1 <0>         0.0669
     21 H2         -0.5340    1.5909   -1.0447 H         1 <0>         0.0707
     22 H3         -0.5099    1.6865    0.7326 H         1 <0>         0.0604
     23 H4         -1.0290   -0.6159   -0.0279 H         1 <0>         0.0856
     24 H5          1.7298   -0.4604   -1.3248 H         1 <0>         0.0597
     25 H6          0.7065   -1.9139   -1.2328 H         1 <0>         0.0665
     26 H7          0.1764   -0.5116   -2.1924 H         1 <0>         0.0676
     27 H8          2.5598    0.2570    0.6163 H         1 <0>         0.1377
     28 H9          3.7577   -0.4473    2.6456 H         1 <0>         0.1442
     29 H10         0.2137   -2.4232    4.0300 H         1 <0>         0.1558
     30 H11        -2.1551    0.3406    1.1182 H         1 <0>         0.1341
     31 H12        -3.5871   -0.4838    1.7801 H         1 <0>         0.1372
     32 H13        -2.3667    0.2010    2.8800 H         1 <0>         0.1356
     33 H14         3.7235   -4.0762    4.8370 H         1 <0>         0.4209
     34 H15         5.2503   -4.4945    5.3998 H         1 <0>         0.4035
     35 H16         6.4972   -1.2053    5.4636 H         1 <0>         0.4262
     36 H17         6.9064   -2.8244    5.6471 H         1 <0>         0.4119
@<TRIPOS>BOND
     1    1    2 1
     2    1   20 1
     3    1   21 1
     4    1   22 1
     5    2    3 1
     6    2    4 1
     7    2   23 1
     8    3   24 1
     9    3   25 1
    10    3   26 1
    11    4    9 ar
    12    4    5 ar
    13    5    6 ar
    14    5   27 1
    15    6    7 ar
    16    6   28 1
    17    7    8 ar
    18    7   14 1
    19    8    9 ar
    20    8   29 1
    21    9   10 1
    22   10   11 2
    23   10   12 2
    24   10   13 1
    25   13   30 1
    26   13   31 1
    27   13   32 1
    28   14   15 2
    29   14   16 1
    30   16   17 2
    31   17   18 1
    32   17   19 1
    33   18   33 1
    34   18   34 1
    35   19   35 1
    36   19   36 1
