@<TRIPOS>MOLECULE
ZINC01113226
   50    54     0     0     0
SMALL
USER_CHARGES

@<TRIPOS>ATOM
      1 C1         -0.4035   -0.5886    1.3788 C.ar      1 <0>        -0.0769
      2 C2          0.4308   -0.6476    2.4809 C.ar      1 <0>        -0.1144
      3 C3          1.7318   -1.0856    2.3421 C.ar      1 <0>        -0.0834
      4 C4          2.2054   -1.4692    1.0874 C.ar      1 <0>        -0.0885
      5 C5          1.3594   -1.4074   -0.0199 C.ar      1 <0>        -0.0650
      6 C6          0.0604   -0.9676    0.1318 C.ar      1 <0>        -0.1154
      7 C7          3.6008   -1.9397    0.9315 C.ar      1 <0>         0.2600
      8 C8          4.1208   -2.9468    1.7826 C.ar      1 <0>        -0.0421
      9 C9          3.3655   -3.5431    2.7965 C.ar      1 <0>        -0.0865
     10 C10         3.9340   -4.5071    3.5767 C.ar      1 <0>        -0.0430
     11 C11         5.2536   -4.9048    3.3785 C.ar      1 <0>        -0.0746
     12 C12         6.0174   -4.3423    2.3981 C.ar      1 <0>        -0.0518
     13 C13         5.4642   -3.3517    1.5801 C.ar      1 <0>        -0.0836
     14 C14         6.1917   -2.7226    0.5429 C.ar      1 <0>         0.4763
     15 N1          5.5956   -1.7944   -0.1855 N.ar      1 <0>        -0.3013
     16 N2          4.3802   -1.4314   -0.0072 N.ar      1 <0>        -0.2651
     17 N3          7.5079   -3.0732    0.2947 N.pl3     1 <0>        -0.6731
     18 C15         7.8349   -4.0731   -0.7315 C.3       1 <0>         0.1190
     19 C16         8.8259   -3.4515   -1.7233 C.3       1 <0>         0.0856
     20 N4          9.9211   -2.8300   -0.9657 N.am      1 <0>        -0.6179
     21 C17         9.5942   -1.8301    0.0606 C.3       1 <0>         0.0977
     22 C18         8.6035   -2.4476    1.0485 C.3       1 <0>         0.1174
     23 C19        11.2024   -3.1713   -1.2073 C.2       1 <0>         0.6153
     24 O1         12.0854   -2.7855   -0.4639 O.2       1 <0>        -0.5087
     25 C20        11.5323   -4.0071   -2.3654 C.2       1 <0>        -0.2776
     26 C21        12.7411   -4.5977   -2.7011 C.2       1 <0>        -0.0467
     27 C22        12.7442   -5.3330   -3.8621 C.2       1 <0>        -0.1846
     28 C23        11.6001   -5.4311   -4.5832 C.2       1 <0>        -0.2216
     29 S1         10.4820   -4.5356   -3.7054 S.3       1 <0>         0.1999
     30 H1         -1.4224   -0.2493    1.4933 H         1 <0>         0.1383
     31 H2          0.0630   -0.3500    3.4517 H         1 <0>         0.1407
     32 H3          2.3823   -1.1309    3.2031 H         1 <0>         0.1330
     33 H4          1.7203   -1.7031   -0.9939 H         1 <0>         0.1321
     34 H5         -0.5958   -0.9196   -0.7247 H         1 <0>         0.1395
     35 H6          2.3411   -3.2430    2.9609 H         1 <0>         0.1637
     36 H7          3.3517   -4.9687    4.3604 H         1 <0>         0.1595
     37 H8          5.6790   -5.6700    4.0108 H         1 <0>         0.1588
     38 H9          7.0400   -4.6590    2.2549 H         1 <0>         0.1589
     39 H10         8.2873   -4.9459   -0.2608 H         1 <0>         0.0981
     40 H11         6.9269   -4.3676   -1.2577 H         1 <0>         0.0980
     41 H12         9.2265   -4.2278   -2.3753 H         1 <0>         0.1050
     42 H13         8.3187   -2.6941   -2.3211 H         1 <0>         0.0851
     43 H14        10.5022   -1.5356    0.5867 H         1 <0>         0.1213
     44 H15         9.1417   -0.9573   -0.4101 H         1 <0>         0.0774
     45 H16         8.2030   -1.6689    1.6976 H         1 <0>         0.0970
     46 H17         9.1120   -3.2021    1.6489 H         1 <0>         0.0955
     47 H18        13.6241   -4.4866   -2.0892 H         1 <0>         0.1530
     48 H19        13.6455   -5.8256   -4.1957 H         1 <0>         0.1428
     49 H20        11.4424   -5.9665   -5.5078 H         1 <0>         0.1906
     50 H21         6.1034   -1.3692   -0.8942 H         1 <0>         0.4622
@<TRIPOS>BOND
     1    1    6 ar
     2    1    2 ar
     3    1   30 1
     4    2    3 ar
     5    2   31 1
     6    3    4 ar
     7    3   32 1
     8    4    5 ar
     9    4    7 1
    10    5    6 ar
    11    5   33 1
    12    6   34 1
    13    7   16 ar
    14    7    8 ar
    15    8   13 ar
    16    8    9 ar
    17    9   10 ar
    18    9   35 1
    19   10   11 ar
    20   10   36 1
    21   11   12 ar
    22   11   37 1
    23   12   13 ar
    24   12   38 1
    25   13   14 ar
    26   14   15 ar
    27   14   17 1
    28   15   16 ar
    29   15   50 1
    30   17   22 1
    31   17   18 1
    32   18   19 1
    33   18   39 1
    34   18   40 1
    35   19   20 1
    36   19   41 1
    37   19   42 1
    38   20   21 1
    39   20   23 am
    40   21   22 1
    41   21   43 1
    42   21   44 1
    43   22   45 1
    44   22   46 1
    45   23   24 2
    46   23   25 1
    47   25   29 1
    48   25   26 2
    49   26   27 1
    50   26   47 1
    51   27   28 2
    52   27   48 1
    53   28   29 1
    54   28   49 1
@<TRIPOS>MOLECULE
ZINC01113226
   49    53     0     0     0
SMALL
USER_CHARGES

@<TRIPOS>ATOM
      1 C1         -0.4035   -0.5886    1.3788 C.ar      1 <0>        -0.1048
      2 C2          0.4308   -0.6475    2.4808 C.ar      1 <0>        -0.1196
      3 C3          1.7319   -1.0854    2.3421 C.ar      1 <0>        -0.0981
      4 C4          2.2054   -1.4692    1.0874 C.ar      1 <0>        -0.0459
      5 C5          1.3593   -1.4076   -0.0199 C.ar      1 <0>        -0.0790
      6 C6          0.0603   -0.9679    0.1317 C.ar      1 <0>        -0.1191
      7 C7          3.6008   -1.9397    0.9315 C.ar      1 <0>         0.1471
      8 C8          4.1209   -2.9467    1.7828 C.ar      1 <0>        -0.0623
      9 C9          3.3656   -3.5428    2.7967 C.ar      1 <0>        -0.0959
     10 C10         3.9342   -4.5067    3.5771 C.ar      1 <0>        -0.0948
     11 C11         5.2538   -4.9044    3.3788 C.ar      1 <0>        -0.1003
     12 C12         6.0176   -4.3420    2.3984 C.ar      1 <0>        -0.0795
     13 C13         5.4643   -3.3516    1.5802 C.ar      1 <0>        -0.0795
     14 C14         6.1917   -2.7226    0.5429 C.ar      1 <0>         0.3603
     15 N1          5.5955   -1.7945   -0.1856 N.ar      1 <0>        -0.2703
     16 N2          4.3801   -1.4315   -0.0073 N.ar      1 <0>        -0.2407
     17 N3          7.5079   -3.0732    0.2947 N.pl3     1 <0>        -0.6537
     18 C15         7.8349   -4.0731   -0.7315 C.3       1 <0>         0.1375
     19 C16         8.8259   -3.4515   -1.7233 C.3       1 <0>         0.0910
     20 N4          9.9211   -2.8300   -0.9657 N.am      1 <0>        -0.6074
     21 C17         9.5942   -1.8301    0.0606 C.3       1 <0>         0.0995
     22 C18         8.6035   -2.4476    1.0485 C.3       1 <0>         0.1335
     23 C19        11.2024   -3.1713   -1.2073 C.2       1 <0>         0.6086
     24 O1         12.0854   -2.7855   -0.4639 O.2       1 <0>        -0.5240
     25 C20        11.5323   -4.0071   -2.3654 C.2       1 <0>        -0.2627
     26 C21        12.7411   -4.5977   -2.7011 C.2       1 <0>        -0.0616
     27 C22        12.7442   -5.3330   -3.8621 C.2       1 <0>        -0.1847
     28 C23        11.6001   -5.4311   -4.5832 C.2       1 <0>        -0.2407
     29 S1         10.4820   -4.5356   -3.7054 S.3       1 <0>         0.2172
     30 H1         -1.4225   -0.2494    1.4932 H         1 <0>         0.1269
     31 H2          0.0631   -0.3497    3.4516 H         1 <0>         0.1291
     32 H3          2.3823   -1.1306    3.2030 H         1 <0>         0.1259
     33 H4          1.7202   -1.7035   -0.9939 H         1 <0>         0.1278
     34 H5         -0.5959   -0.9200   -0.7247 H         1 <0>         0.1291
     35 H6          2.3412   -3.2428    2.9612 H         1 <0>         0.1421
     36 H7          3.3519   -4.9682    4.3609 H         1 <0>         0.1346
     37 H8          5.6793   -5.6695    4.0112 H         1 <0>         0.1338
     38 H9          7.0401   -4.6587    2.2552 H         1 <0>         0.1386
     39 H10         8.2873   -4.9459   -0.2608 H         1 <0>         0.0700
     40 H11         6.9269   -4.3676   -1.2577 H         1 <0>         0.0869
     41 H12         9.2265   -4.2278   -2.3753 H         1 <0>         0.0874
     42 H13         8.3187   -2.6941   -2.3211 H         1 <0>         0.0881
     43 H14        10.5022   -1.5356    0.5867 H         1 <0>         0.1056
     44 H15         9.1417   -0.9573   -0.4101 H         1 <0>         0.0785
     45 H16         8.2030   -1.6689    1.6976 H         1 <0>         0.0844
     46 H17         9.1120   -3.2021    1.6489 H         1 <0>         0.0691
     47 H18        13.6241   -4.4866   -2.0892 H         1 <0>         0.1495
     48 H19        13.6455   -5.8256   -4.1957 H         1 <0>         0.1366
     49 H20        11.4424   -5.9665   -5.5078 H         1 <0>         0.1860
@<TRIPOS>BOND
     1    1    6 ar
     2    1    2 ar
     3    1   30 1
     4    2    3 ar
     5    2   31 1
     6    3    4 ar
     7    3   32 1
     8    4    5 ar
     9    4    7 1
    10    5    6 ar
    11    5   33 1
    12    6   34 1
    13    7   16 ar
    14    7    8 ar
    15    8   13 ar
    16    8    9 ar
    17    9   10 ar
    18    9   35 1
    19   10   11 ar
    20   10   36 1
    21   11   12 ar
    22   11   37 1
    23   12   13 ar
    24   12   38 1
    25   13   14 ar
    26   14   15 ar
    27   14   17 1
    28   15   16 ar
    29   17   22 1
    30   17   18 1
    31   18   19 1
    32   18   39 1
    33   18   40 1
    34   19   20 1
    35   19   41 1
    36   19   42 1
    37   20   21 1
    38   20   23 am
    39   21   22 1
    40   21   43 1
    41   21   44 1
    42   22   45 1
    43   22   46 1
    44   23   24 2
    45   23   25 1
    46   25   29 1
    47   25   26 2
    48   26   27 1
    49   26   47 1
    50   27   28 2
    51   27   48 1
    52   28   29 1
    53   28   49 1
@<TRIPOS>MOLECULE
ZINC04098868
   72    77     0     0     0
SMALL
USER_CHARGES

@<TRIPOS>ATOM
      1 C1          0.0103    1.5347    0.0637 C.3       1 <0>        -0.1513
      2 C2          0.0229    0.0049    0.0434 C.3       1 <0>        -0.1057
      3 H1         -1.0037   -0.3610    0.0548 H         1 <0>         0.0973
      4 C3          0.7162   -0.4770   -1.2436 C.3       1 <0>        -0.1258
      5 C4          0.8096   -1.9888   -1.1535 C.3       1 <0>         0.0694
      6 H2         -0.1858   -2.4138   -1.0245 H         1 <0>         0.0836
      7 C5          1.6873   -2.3134    0.0882 C.3       1 <0>        -0.0281
      8 H3          2.6179   -1.7466    0.0586 H         1 <0>         0.1557
      9 C6          1.9609   -3.8055   -0.1329 C.3       1 <0>        -0.1147
     10 H4          2.9639   -4.0679    0.2035 H         1 <0>         0.1205
     11 C7          1.8419   -3.9541   -1.6670 C.3       1 <0>         0.1619
     12 O1          1.4896   -2.6613   -2.2106 O.3       1 <0>        -0.3197
     13 C8          0.7717   -4.9756   -2.0125 C.3       1 <0>        -0.1326
     14 C9          1.1684   -6.4033   -1.6570 C.3       1 <0>        -0.1121
     15 C10         2.5643   -6.4720   -1.0449 C.3       1 <0>        -0.0712
     16 H5          2.5553   -6.1137   -0.0156 H         1 <0>         0.0943
     17 C11         3.1312   -7.8883   -1.1250 C.3       1 <0>        -0.0890
     18 H6          2.7416   -8.4069   -2.0010 H         1 <0>         0.0858
     19 C12         2.9423   -8.7363    0.1236 C.3       1 <0>        -0.0750
     20 C13         3.7543   -9.9944   -0.0783 C.2       1 <0>        -0.1625
     21 C14         4.7829  -10.0743   -0.8758 C.2       1 <0>        -0.0981
     22 C15         5.4727  -11.4191   -1.0151 C.3       1 <0>        -0.1201
     23 C16         6.9774  -11.2249   -0.8122 C.3       1 <0>         0.1086
     24 H7          7.1673  -10.8940    0.2089 H         1 <0>         0.0547
     25 C17         7.4868  -10.1683   -1.7948 C.3       1 <0>        -0.1168
     26 C18         6.8368   -8.8215   -1.4770 C.3       1 <0>        -0.1024
     27 C19         5.3223   -8.9171   -1.6830 C.3       1 <0>        -0.0092
     28 C20         4.6570   -7.6309   -1.2742 C.3       1 <0>        -0.0771
     29 H8          5.0755   -7.3037   -0.3224 H         1 <0>         0.0754
     30 C21         4.6857   -6.4905   -2.3026 C.3       1 <0>        -0.0812
     31 C22         3.4958   -5.6236   -1.9125 C.2       1 <0>        -0.1028
     32 C23         3.1820   -4.3893   -2.2286 C.2       1 <0>        -0.1305
     33 C24         4.0622   -3.4961   -3.0644 C.3       1 <0>        -0.1002
     34 C25         5.0263   -9.1518   -3.1656 C.3       1 <0>        -0.1487
     35 O2          7.6541  -12.4615   -1.0467 O.3       1 <0>        -0.5666
     36 C26         0.9115   -4.6601    0.5809 C.3       1 <0>        -0.1995
     37 N1          0.9111   -1.9543    1.2649 N.4       1 <0>        -0.4848
     38 C27         0.7499   -0.5059    1.2841 C.3       1 <0>        -0.0126
     39 H9          1.0348    1.9067    0.0524 H         1 <0>         0.0696
     40 H10        -0.5205    1.9053   -0.8132 H         1 <0>         0.0808
     41 H11        -0.4925    1.8820    0.9664 H         1 <0>         0.0720
     42 H12         0.1254   -0.1917   -2.1140 H         1 <0>         0.1051
     43 H13         1.7149   -0.0457   -1.3125 H         1 <0>         0.0939
     44 H14        -0.1417   -4.7216   -1.4745 H         1 <0>         0.0714
     45 H15         0.5707   -4.9241   -3.0826 H         1 <0>         0.0818
     46 H16         0.4483   -6.8043   -0.9437 H         1 <0>         0.0726
     47 H17         1.1470   -7.0127   -2.5606 H         1 <0>         0.0752
     48 H18         3.3030   -8.1963    0.9991 H         1 <0>         0.0730
     49 H19         1.8891   -8.9882    0.2474 H         1 <0>         0.0723
     50 H20         3.4658  -10.8792    0.4696 H         1 <0>         0.1060
     51 H21         5.0882  -12.1066   -0.2618 H         1 <0>         0.0708
     52 H22         5.2874  -11.8234   -2.0103 H         1 <0>         0.0824
     53 H23         8.5694  -10.0796   -1.7041 H         1 <0>         0.0731
     54 H24         7.2304  -10.4644   -2.8120 H         1 <0>         0.0746
     55 H25         7.0456   -8.5536   -0.4413 H         1 <0>         0.0647
     56 H26         7.2450   -8.0569   -2.1379 H         1 <0>         0.0732
     57 H27         5.6110   -5.9207   -2.2173 H         1 <0>         0.0759
     58 H28         4.5676   -6.8824   -3.3129 H         1 <0>         0.0940
     59 H29         4.7408   -2.9436   -2.4145 H         1 <0>         0.0651
     60 H30         4.6403   -4.1041   -3.7604 H         1 <0>         0.0679
     61 H31         3.4423   -2.7948   -3.6229 H         1 <0>         0.0727
     62 H32         3.9491   -9.2285   -3.3134 H         1 <0>         0.0571
     63 H33         5.4147   -8.3178   -3.7501 H         1 <0>         0.0639
     64 H34         5.5042  -10.0763   -3.4897 H         1 <0>         0.0614
     65 H35         7.3776  -13.1786   -0.4599 H         1 <0>         0.3800
     66 H36        -0.0838   -4.3678    0.2463 H         1 <0>         0.0703
     67 H37         1.0792   -5.7115    0.3473 H         1 <0>         0.1158
     68 H38         0.9917   -4.5098    1.6575 H         1 <0>         0.0641
     69 H39        -0.0007   -2.3838    1.2184 H         1 <0>         0.4257
     70 H40         1.7367   -0.0454    1.3321 H         1 <0>         0.1321
     71 H41         0.1831   -0.2205    2.1703 H         1 <0>         0.1397
     72 H42         1.3918   -2.2579    2.0985 H         1 <0>         0.4327
@<TRIPOS>BOND
     1    1    2 1
     2    1   39 1
     3    1   40 1
     4    1   41 1
     5    2    3 1
     6    2   38 1
     7    2    4 1
     8    4    5 1
     9    4   42 1
    10    4   43 1
    11    5    6 1
    12    5   12 1
    13    5    7 1
    14    7    8 1
    15    7    9 1
    16    7   37 1
    17    9   10 1
    18    9   11 1
    19    9   36 1
    20   11   32 1
    21   11   12 1
    22   11   13 1
    23   13   14 1
    24   13   44 1
    25   13   45 1
    26   14   15 1
    27   14   46 1
    28   14   47 1
    29   15   16 1
    30   15   31 1
    31   15   17 1
    32   17   18 1
    33   17   28 1
    34   17   19 1
    35   19   20 1
    36   19   48 1
    37   19   49 1
    38   20   21 2
    39   20   50 1
    40   21   27 1
    41   21   22 1
    42   22   23 1
    43   22   51 1
    44   22   52 1
    45   23   24 1
    46   23   25 1
    47   23   35 1
    48   25   26 1
    49   25   53 1
    50   25   54 1
    51   26   27 1
    52   26   55 1
    53   26   56 1
    54   27   28 1
    55   27   34 1
    56   28   29 1
    57   28   30 1
    58   30   31 1
    59   30   57 1
    60   30   58 1
    61   31   32 2
    62   32   33 1
    63   33   59 1
    64   33   60 1
    65   33   61 1
    66   34   62 1
    67   34   63 1
    68   34   64 1
    69   35   65 1
    70   36   66 1
    71   36   67 1
    72   36   68 1
    73   37   38 1
    74   37   69 1
    75   37   72 1
    76   38   70 1
    77   38   71 1
@<TRIPOS>MOLECULE
ZINC33359324
   63    67     0     0     0
SMALL
USER_CHARGES
3-methyl-N-[(2S)-2-[(4-methylthiazol-2-yl)methylamino]indan-5-yl]-2-[4-(trifluoromethyl)phenyl]benzamide
@<TRIPOS>ATOM
      1 C1          6.5696   -3.1958   -1.7509 C.3       1 <0>        -0.1220
      2 C2          5.8554   -1.8871   -1.5310 C.ar      1 <0>        -0.0719
      3 C3          5.5692   -1.4640   -0.2482 C.ar      1 <0>        -0.0905
      4 C4          4.9082   -0.2658   -0.0358 C.ar      1 <0>        -0.1150
      5 C5          4.5328    0.5234   -1.1034 C.ar      1 <0>        -0.0911
      6 C6          4.8186    0.1150   -2.4062 C.ar      1 <0>        -0.1189
      7 C7          5.4897   -1.1025   -2.6207 C.ar      1 <0>        -0.0008
      8 C8          5.7999   -1.5500   -3.9989 C.ar      1 <0>        -0.0026
      9 C9          7.1255   -1.6614   -4.4170 C.ar      1 <0>        -0.1064
     10 C10         7.4080   -2.0731   -5.7034 C.ar      1 <0>        -0.0729
     11 C11         6.3795   -2.3851   -6.5743 C.ar      1 <0>        -0.1777
     12 C12         5.0624   -2.2765   -6.1653 C.ar      1 <0>        -0.0698
     13 C13         4.7674   -1.8608   -4.8830 C.ar      1 <0>        -0.0596
     14 C14         6.6949   -2.8397   -7.9761 C.3       1 <0>         0.5072
     15 F1          6.7680   -1.7276   -8.8216 F         1 <0>        -0.1762
     16 F2          7.9216   -3.5124   -7.9833 F         1 <0>        -0.1783
     17 F3          5.6881   -3.7012   -8.4247 F         1 <0>        -0.1777
     18 C15         4.4199    0.9553   -3.5522 C.2       1 <0>         0.5550
     19 O1          4.6714    0.5958   -4.6862 O.2       1 <0>        -0.5000
     20 N1          3.7771    2.1211   -3.3417 N.am      1 <0>        -0.6808
     21 C16         3.4975    2.9695   -4.4176 C.ar      1 <0>         0.1524
     22 C17         2.3426    3.7415   -4.4145 C.ar      1 <0>        -0.1442
     23 C18         2.0721    4.5772   -5.4783 C.ar      1 <0>        -0.0869
     24 C19         2.9470    4.6503   -6.5504 C.ar      1 <0>        -0.1089
     25 C20         4.0974    3.8830   -6.5566 C.ar      1 <0>        -0.0753
     26 C21         4.3755    3.0473   -5.4892 C.ar      1 <0>        -0.1066
     27 C22         4.8780    4.1414   -7.8276 C.3       1 <0>        -0.0795
     28 C23         4.3105    5.4626   -8.3885 C.3       1 <0>         0.0885
     29 H1          4.9086    6.3576   -8.1623 H         1 <0>         0.0645
     30 C24         2.8769    5.4764   -7.8172 C.3       1 <0>        -0.0673
     31 N2          4.2871    5.4389   -9.8571 N.3       1 <0>        -0.6675
     32 C25         4.3316    6.8007  -10.4063 C.3       1 <0>         0.1393
     33 C26         4.3060    6.7363  -11.9117 C.2       1 <0>         0.1017
     34 N3          3.2713    6.7407  -12.7200 N.2       1 <0>        -0.4917
     35 C27         3.4202    6.6783  -14.0267 C.2       1 <0>         0.0578
     36 C28         4.6789    6.6084  -14.5301 C.2       1 <0>        -0.2113
     37 S1          5.6378    6.6450  -13.0225 S.3       1 <0>         0.0315
     38 C29         2.2224    6.6848  -14.9412 C.3       1 <0>        -0.0840
     39 H2          6.7744   -3.6695   -0.7795 H         1 <0>         0.0717
     40 H3          7.5183   -3.0120   -2.2764 H         1 <0>         0.0766
     41 H4          5.9374   -3.8611   -2.3573 H         1 <0>         0.0750
     42 H5          5.8591   -2.0736    0.5950 H         1 <0>         0.1332
     43 H6          4.6855    0.0530    0.9718 H         1 <0>         0.1337
     44 H7          4.0182    1.4570   -0.9304 H         1 <0>         0.1288
     45 H8          7.9293   -1.4217   -3.7367 H         1 <0>         0.1310
     46 H9          8.4342   -2.1556   -6.0297 H         1 <0>         0.1348
     47 H10         4.2636   -2.5179   -6.8508 H         1 <0>         0.1333
     48 H11         3.7388   -1.7760   -4.5649 H         1 <0>         0.1251
     49 H12         3.4724    2.4052   -2.3236 H         1 <0>         0.4305
     50 H13         1.6582    3.6878   -3.5808 H         1 <0>         0.1264
     51 H14         1.1740    5.1770   -5.4757 H         1 <0>         0.1243
     52 H15         5.2761    2.4512   -5.4922 H         1 <0>         0.1311
     53 H16         5.9482    4.2297   -7.5891 H         1 <0>         0.0774
     54 H17         4.7261    3.3064   -8.5274 H         1 <0>         0.0956
     55 H18         2.1594    5.0187   -8.5141 H         1 <0>         0.0954
     56 H19         2.5492    6.4973   -7.5715 H         1 <0>         0.0731
     57 H20         5.1586    4.8800  -10.2287 H         1 <0>         0.3465
     58 H21         3.4602    7.3689  -10.0487 H         1 <0>         0.1088
     59 H22         5.2549    7.2992  -10.0763 H         1 <0>         0.0636
     60 H23         5.0093    6.5512  -15.5567 H         1 <0>         0.1967
     61 H24         2.5591    6.6265  -15.9868 H         1 <0>         0.0743
     62 H25         1.6515    7.6130  -14.7910 H         1 <0>         0.0750
     63 H26         1.5824    5.8197  -14.7133 H         1 <0>         0.0759
@<TRIPOS>BOND
     1    1    2 1
     2    1   39 1
     3    1   40 1
     4    1   41 1
     5    2    7 ar
     6    2    3 ar
     7    3    4 ar
     8    3   42 1
     9    4    5 ar
    10    4   43 1
    11    5    6 ar
    12    5   44 1
    13    6    7 ar
    14    6   18 1
    15    7    8 1
    16    8   13 ar
    17    8    9 ar
    18    9   10 ar
    19    9   45 1
    20   10   11 ar
    21   10   46 1
    22   11   12 ar
    23   11   14 1
    24   12   13 ar
    25   12   47 1
    26   13   48 1
    27   14   15 1
    28   14   16 1
    29   14   17 1
    30   18   19 2
    31   18   20 am
    32   20   21 1
    33   20   49 1
    34   21   26 ar
    35   21   22 ar
    36   22   23 ar
    37   22   50 1
    38   23   24 ar
    39   23   51 1
    40   24   30 1
    41   24   25 ar
    42   25   26 ar
    43   25   27 1
    44   26   52 1
    45   27   28 1
    46   27   53 1
    47   27   54 1
    48   28   29 1
    49   28   30 1
    50   28   31 1
    51   30   55 1
    52   30   56 1
    53   31   32 1
    54   31   57 1
    55   32   33 1
    56   32   58 1
    57   32   59 1
    58   33   37 1
    59   33   34 2
    60   34   35 1
    61   35   36 2
    62   35   38 1
    63   36   37 1
    64   36   60 1
    65   38   61 1
    66   38   62 1
    67   38   63 1
@<TRIPOS>MOLECULE
ZINC43197966
   64    68     0     0     0
SMALL
USER_CHARGES

@<TRIPOS>ATOM
      1 C1         -0.0184    1.5263   -0.0203 C.3       1 <0>        -0.1521
      2 C2          0.0017   -0.0034    0.0054 C.3       1 <0>         0.1746
      3 C3          0.7302   -0.4828    1.2625 C.3       1 <0>        -0.1839
      4 C4         -1.4123   -0.5243    0.0147 C.ar      1 <0>        -0.1456
      5 C5         -2.4301    0.2198    0.5971 C.ar      1 <0>         0.0480
      6 C6         -3.7139   -0.2944    0.5845 C.ar      1 <0>        -0.1898
      7 C7         -3.9410   -1.5327   -0.0079 C.ar      1 <0>         0.4405
      8 N1         -2.9437   -2.2119   -0.5529 N.ar      1 <0>        -0.4956
      9 C8         -1.7100   -1.7432   -0.5604 C.ar      1 <0>         0.1470
     10 N2         -5.2263   -2.0616   -0.0274 N.pl3     1 <0>        -0.5986
     11 C9         -6.3225   -1.3896    0.6844 C.3       1 <0>         0.0933
     12 C10        -7.4594   -1.1200   -0.3092 C.3       1 <0>         0.1129
     13 N3         -7.7465   -2.3610   -1.0423 N.pl3     1 <0>        -0.6728
     14 C11        -6.6503   -3.0330   -1.7540 C.3       1 <0>         0.1181
     15 C12        -5.5146   -3.2995   -0.7651 C.3       1 <0>         0.0817
     16 C13        -9.0272   -2.8880   -1.0617 C.ar      1 <0>         0.4604
     17 C14        -9.9087   -2.5996   -2.1287 C.ar      1 <0>        -0.0825
     18 C15        -9.5507   -1.7834   -3.2066 C.ar      1 <0>        -0.0599
     19 C16       -10.4558   -1.5508   -4.1999 C.ar      1 <0>        -0.0678
     20 C17       -11.7295   -2.1129   -4.1574 C.ar      1 <0>        -0.0382
     21 C18       -12.1111   -2.9126   -3.1214 C.ar      1 <0>        -0.0837
     22 C19       -11.2060   -3.1727   -2.0844 C.ar      1 <0>        -0.0433
     23 C20       -11.5248   -3.9881   -0.9823 C.ar      1 <0>         0.2273
     24 N4        -10.6211   -4.1838   -0.0504 N.ar      1 <0>        -0.2652
     25 N5         -9.4464   -3.6744   -0.0860 N.ar      1 <0>        -0.2957
     26 C21       -12.8851   -4.6273   -0.8733 C.3       1 <0>        -0.0375
     27 C22       -12.8602   -5.9783   -1.5405 C.ar      1 <0>        -0.1108
     28 C23       -13.1641   -6.0913   -2.8843 C.ar      1 <0>        -0.1117
     29 C24       -13.1413   -7.3306   -3.4963 C.ar      1 <0>        -0.1135
     30 C25       -12.8141   -8.4568   -2.7645 C.ar      1 <0>        -0.1012
     31 C26       -12.5094   -8.3437   -1.4209 C.ar      1 <0>        -0.1142
     32 C27       -12.5281   -7.1039   -0.8100 C.ar      1 <0>        -0.1020
     33 O1          0.6811   -0.4903   -1.1537 O.3       1 <0>        -0.5376
     34 H1          1.0044    1.9030   -0.0270 H         1 <0>         0.0892
     35 H2         -0.5374    1.8678   -0.9159 H         1 <0>         0.0730
     36 H3         -0.5366    1.8977    0.8638 H         1 <0>         0.0802
     37 H4          0.2120   -0.1114    2.1466 H         1 <0>         0.0761
     38 H5          0.7446   -1.5726    1.2808 H         1 <0>         0.0647
     39 H6          1.7530   -0.1061    1.2557 H         1 <0>         0.0901
     40 H7         -2.2236    1.1783    1.0500 H         1 <0>         0.1820
     41 H8         -4.5290    0.2576    1.0287 H         1 <0>         0.1834
     42 H9         -0.9224   -2.3229   -1.0187 H         1 <0>         0.2058
     43 H10        -6.6838   -2.0307    1.4885 H         1 <0>         0.0999
     44 H11        -5.9663   -0.4460    1.0975 H         1 <0>         0.1235
     45 H12        -8.3500   -0.8004    0.2319 H         1 <0>         0.1097
     46 H13        -7.1557   -0.3428   -1.0105 H         1 <0>         0.1011
     47 H14        -7.0065   -3.9766   -2.1672 H         1 <0>         0.1098
     48 H15        -6.2890   -2.3919   -2.5582 H         1 <0>         0.0978
     49 H16        -4.6249   -3.6169   -1.3090 H         1 <0>         0.0987
     50 H17        -5.8170   -4.0797   -0.0666 H         1 <0>         0.1041
     51 H18        -8.5665   -1.3410   -3.2517 H         1 <0>         0.1545
     52 H19       -10.1806   -0.9205   -5.0326 H         1 <0>         0.1606
     53 H20       -12.4261   -1.9117   -4.9579 H         1 <0>         0.1638
     54 H21       -13.1020   -3.3416   -3.1003 H         1 <0>         0.1659
     55 H22       -13.1476   -4.7459    0.1779 H         1 <0>         0.1231
     56 H23       -13.6246   -3.9937   -1.3632 H         1 <0>         0.1224
     57 H24       -13.4197   -5.2113   -3.4560 H         1 <0>         0.1234
     58 H25       -13.3794   -7.4189   -4.5460 H         1 <0>         0.1315
     59 H26       -12.7970   -9.4252   -3.2425 H         1 <0>         0.1314
     60 H27       -12.2542   -9.2237   -0.8492 H         1 <0>         0.1307
     61 H28       -12.2864   -7.0150    0.2389 H         1 <0>         0.1274
     62 H29         0.7319   -1.4547   -1.2037 H         1 <0>         0.3765
     63 H30        -3.1249   -3.0734   -0.9601 H         1 <0>         0.4391
     64 H31        -8.8359   -3.8720    0.6414 H         1 <0>         0.4601
@<TRIPOS>BOND
     1    1    2 1
     2    1   34 1
     3    1   35 1
     4    1   36 1
     5    2    3 1
     6    2    4 1
     7    2   33 1
     8    3   37 1
     9    3   38 1
    10    3   39 1
    11    4    9 ar
    12    4    5 ar
    13    5    6 ar
    14    5   40 1
    15    6    7 ar
    16    6   41 1
    17    7    8 ar
    18    7   10 1
    19    8    9 ar
    20    8   63 1
    21    9   42 1
    22   10   15 1
    23   10   11 1
    24   11   12 1
    25   11   43 1
    26   11   44 1
    27   12   13 1
    28   12   45 1
    29   12   46 1
    30   13   14 1
    31   13   16 1
    32   14   15 1
    33   14   47 1
    34   14   48 1
    35   15   49 1
    36   15   50 1
    37   16   25 ar
    38   16   17 ar
    39   17   22 ar
    40   17   18 ar
    41   18   19 ar
    42   18   51 1
    43   19   20 ar
    44   19   52 1
    45   20   21 ar
    46   20   53 1
    47   21   22 ar
    48   21   54 1
    49   22   23 ar
    50   23   24 ar
    51   23   26 1
    52   24   25 ar
    53   25   64 1
    54   26   27 1
    55   26   55 1
    56   26   56 1
    57   27   32 ar
    58   27   28 ar
    59   28   29 ar
    60   28   57 1
    61   29   30 ar
    62   29   58 1
    63   30   31 ar
    64   30   59 1
    65   31   32 ar
    66   31   60 1
    67   32   61 1
    68   33   62 1
@<TRIPOS>MOLECULE
ZINC43197966
   63    67     0     0     0
SMALL
USER_CHARGES

@<TRIPOS>ATOM
      1 C1         -0.0184    1.5261   -0.0201 C.3       1 <0>        -0.1503
      2 C2          0.0018   -0.0035    0.0052 C.3       1 <0>         0.1779
      3 C3          0.7304   -0.4832    1.2622 C.3       1 <0>        -0.1825
      4 C4         -1.4123   -0.5245    0.0146 C.ar      1 <0>        -0.1601
      5 C5         -2.4300    0.2195    0.5972 C.ar      1 <0>         0.0419
      6 C6         -3.7138   -0.2946    0.5845 C.ar      1 <0>        -0.1933
      7 C7         -3.9410   -1.5328   -0.0081 C.ar      1 <0>         0.4459
      8 N1         -2.9437   -2.2119   -0.5532 N.ar      1 <0>        -0.5032
      9 C8         -1.7100   -1.7432   -0.5607 C.ar      1 <0>         0.1452
     10 N2         -5.2262   -2.0618   -0.0275 N.pl3     1 <0>        -0.5782
     11 C9         -6.3224   -1.3899    0.6844 C.3       1 <0>         0.0916
     12 C10        -7.4593   -1.1201   -0.3090 C.3       1 <0>         0.1309
     13 N3         -7.7465   -2.3610   -1.0423 N.pl3     1 <0>        -0.6495
     14 C11        -6.6503   -3.0328   -1.7542 C.3       1 <0>         0.1340
     15 C12        -5.5146   -3.2996   -0.7654 C.3       1 <0>         0.0804
     16 C13        -9.0272   -2.8880   -1.0617 C.ar      1 <0>         0.3367
     17 C14        -9.9106   -2.5949   -2.1257 C.ar      1 <0>        -0.0768
     18 C15        -9.5547   -1.7738   -3.2007 C.ar      1 <0>        -0.0893
     19 C16       -10.4616   -1.5369   -4.1913 C.ar      1 <0>        -0.0926
     20 C17       -11.7352   -2.0993   -4.1490 C.ar      1 <0>        -0.0937
     21 C18       -12.1148   -2.9037   -3.1158 C.ar      1 <0>        -0.0900
     22 C19       -11.2078   -3.1683   -2.0817 C.ar      1 <0>        -0.0689
     23 C20       -11.5245   -3.9886   -0.9826 C.ar      1 <0>         0.1336
     24 N4        -10.6191   -4.1884   -0.0532 N.ar      1 <0>        -0.2513
     25 N5         -9.4446   -3.6787   -0.0887 N.ar      1 <0>        -0.2654
     26 C21       -12.8847   -4.6284   -0.8740 C.3       1 <0>        -0.0323
     27 C22       -12.8609   -5.9764   -1.5472 C.ar      1 <0>        -0.0876
     28 C23       -13.1672   -6.0834   -2.8910 C.ar      1 <0>        -0.1149
     29 C24       -13.1455   -7.3199   -3.5085 C.ar      1 <0>        -0.1186
     30 C25       -12.8169   -8.4494   -2.7824 C.ar      1 <0>        -0.1155
     31 C26       -12.5097   -8.3423   -1.4389 C.ar      1 <0>        -0.1180
     32 C27       -12.5273   -7.1052   -0.8224 C.ar      1 <0>        -0.1026
     33 O1          0.6811   -0.4903   -1.1540 O.3       1 <0>        -0.5409
     34 H1          1.0044    1.9029   -0.0269 H         1 <0>         0.0848
     35 H2         -0.5374    1.8678   -0.9157 H         1 <0>         0.0723
     36 H3         -0.5365    1.8974    0.8641 H         1 <0>         0.0795
     37 H4          0.2122   -0.1119    2.1464 H         1 <0>         0.0753
     38 H5          0.7447   -1.5730    1.2803 H         1 <0>         0.0639
     39 H6          1.7531   -0.1064    1.2555 H         1 <0>         0.0856
     40 H7         -2.2235    1.1779    1.0503 H         1 <0>         0.1765
     41 H8         -4.5289    0.2573    1.0289 H         1 <0>         0.1822
     42 H9         -0.9224   -2.3229   -1.0191 H         1 <0>         0.2001
     43 H10        -6.6836   -2.0311    1.4885 H         1 <0>         0.1046
     44 H11        -5.9661   -0.4463    1.0977 H         1 <0>         0.1087
     45 H12        -8.3499   -0.8006    0.2322 H         1 <0>         0.0997
     46 H13        -7.1557   -0.3428   -1.0102 H         1 <0>         0.0740
     47 H14        -7.0066   -3.9764   -2.1675 H         1 <0>         0.0986
     48 H15        -6.2891   -2.3917   -2.5583 H         1 <0>         0.0721
     49 H16        -4.6249   -3.6169   -1.3094 H         1 <0>         0.0840
     50 H17        -5.8170   -4.0799   -0.0670 H         1 <0>         0.1077
     51 H18        -8.5706   -1.3312   -3.2457 H         1 <0>         0.1332
     52 H19       -10.1880   -0.9028   -5.0217 H         1 <0>         0.1349
     53 H20       -12.4333   -1.8946   -4.9472 H         1 <0>         0.1381
     54 H21       -13.1057   -3.3328   -3.0948 H         1 <0>         0.1429
     55 H22       -13.1452   -4.7517    0.1772 H         1 <0>         0.1048
     56 H23       -13.6250   -3.9927   -1.3597 H         1 <0>         0.0982
     57 H24       -13.4239   -5.2009   -3.4582 H         1 <0>         0.1207
     58 H25       -13.3855   -7.4036   -4.5582 H         1 <0>         0.1245
     59 H26       -12.8006   -9.4156   -3.2647 H         1 <0>         0.1242
     60 H27       -12.2534   -9.2248   -0.8715 H         1 <0>         0.1249
     61 H28       -12.2837   -7.0210    0.2264 H         1 <0>         0.1265
     62 H29         0.7319   -1.4546   -1.2041 H         1 <0>         0.3760
     63 H30        -3.1249   -3.0734   -0.9606 H         1 <0>         0.4388
@<TRIPOS>BOND
     1    1    2 1
     2    1   34 1
     3    1   35 1
     4    1   36 1
     5    2    3 1
     6    2    4 1
     7    2   33 1
     8    3   37 1
     9    3   38 1
    10    3   39 1
    11    4    9 ar
    12    4    5 ar
    13    5    6 ar
    14    5   40 1
    15    6    7 ar
    16    6   41 1
    17    7    8 ar
    18    7   10 1
    19    8    9 ar
    20    8   63 1
    21    9   42 1
    22   10   15 1
    23   10   11 1
    24   11   12 1
    25   11   43 1
    26   11   44 1
    27   12   13 1
    28   12   45 1
    29   12   46 1
    30   13   14 1
    31   13   16 1
    32   14   15 1
    33   14   47 1
    34   14   48 1
    35   15   49 1
    36   15   50 1
    37   16   25 ar
    38   16   17 ar
    39   17   22 ar
    40   17   18 ar
    41   18   19 ar
    42   18   51 1
    43   19   20 ar
    44   19   52 1
    45   20   21 ar
    46   20   53 1
    47   21   22 ar
    48   21   54 1
    49   22   23 ar
    50   23   24 ar
    51   23   26 1
    52   24   25 ar
    53   26   27 1
    54   26   55 1
    55   26   56 1
    56   27   32 ar
    57   27   28 ar
    58   28   29 ar
    59   28   57 1
    60   29   30 ar
    61   29   58 1
    62   30   31 ar
    63   30   59 1
    64   31   32 ar
    65   31   60 1
    66   32   61 1
    67   33   62 1
@<TRIPOS>MOLECULE
ZINC43197966
   63    67     0     0     0
SMALL
USER_CHARGES

@<TRIPOS>ATOM
      1 C1         -0.0418    1.5640   -0.3478 C.3       1 <0>        -0.1429
      2 C2         -0.0246    0.0788    0.0194 C.3       1 <0>         0.1778
      3 C3          0.6115   -0.0979    1.3997 C.3       1 <0>        -0.1761
      4 C4         -1.4360   -0.4486    0.0455 C.ar      1 <0>        -0.2064
      5 C5         -1.6934   -1.7789   -0.2593 C.ar      1 <0>        -0.0250
      6 C6         -3.0028   -2.2228   -0.2238 C.ar      1 <0>        -0.2292
      7 C7         -4.0120   -1.3266    0.1142 C.ar      1 <0>         0.3954
      8 N1         -3.7259   -0.0656    0.3985 N.ar      1 <0>        -0.5351
      9 C8         -2.4853    0.3840    0.3781 C.ar      1 <0>         0.1580
     10 N2         -5.3325   -1.7591    0.1534 N.pl3     1 <0>        -0.6139
     11 C9         -6.3832   -0.9035    0.7226 C.3       1 <0>         0.1097
     12 C10        -7.4875   -0.7203   -0.3259 C.3       1 <0>         0.1173
     13 N3         -7.8579   -2.0411   -0.8534 N.pl3     1 <0>        -0.6743
     14 C11        -6.8073   -2.8966   -1.4225 C.3       1 <0>         0.1171
     15 C12        -5.7039   -3.0775   -0.3792 C.3       1 <0>         0.1072
     16 C13        -9.1737   -2.4719   -0.8144 C.ar      1 <0>         0.4796
     17 C14       -10.0453   -2.2237   -1.8994 C.ar      1 <0>        -0.0850
     18 C15        -9.6427   -1.5437   -3.0534 C.ar      1 <0>        -0.0511
     19 C16       -10.5410   -1.3421   -4.0596 C.ar      1 <0>        -0.0756
     20 C17       -11.8516   -1.8023   -3.9556 C.ar      1 <0>        -0.0421
     21 C18       -12.2770   -2.4682   -2.8448 C.ar      1 <0>        -0.0896
     22 C19       -11.3801   -2.6930   -1.7925 C.ar      1 <0>        -0.0436
     23 C20       -11.7433   -3.3726   -0.6147 C.ar      1 <0>         0.2150
     24 N4        -10.8445   -3.5435    0.3268 N.ar      1 <0>        -0.2657
     25 N5         -9.6365   -3.1276    0.2354 N.ar      1 <0>        -0.3029
     26 C21       -13.1450   -3.8966   -0.4366 C.3       1 <0>        -0.0342
     27 C22       -13.2268   -5.3038   -0.9696 C.ar      1 <0>        -0.1068
     28 C23       -13.5550   -5.5232   -2.2943 C.ar      1 <0>        -0.1116
     29 C24       -13.6300   -6.8140   -2.7833 C.ar      1 <0>        -0.1148
     30 C25       -13.3763   -7.8855   -1.9475 C.ar      1 <0>        -0.1042
     31 C26       -13.0472   -7.6661   -0.6229 C.ar      1 <0>        -0.1149
     32 C27       -12.9680   -6.3751   -0.1351 C.ar      1 <0>        -0.1017
     33 O1          0.7359   -0.6431   -0.9514 O.3       1 <0>        -0.5515
     34 H1          0.9791    1.9455   -0.3666 H         1 <0>         0.0719
     35 H2         -0.4950    1.6899   -1.3311 H         1 <0>         0.0658
     36 H3         -0.6219    2.1147    0.3928 H         1 <0>         0.0739
     37 H4          0.0315    0.4528    2.1403 H         1 <0>         0.0682
     38 H5          0.6238   -1.1560    1.6613 H         1 <0>         0.0587
     39 H6          1.6324    0.2836    1.3809 H         1 <0>         0.0722
     40 H7         -0.8892   -2.4516   -0.5187 H         1 <0>         0.1343
     41 H8         -3.2387   -3.2509   -0.4556 H         1 <0>         0.1329
     42 H9         -2.2890    1.4180    0.6205 H         1 <0>         0.1614
     43 H10        -6.7984   -1.3769    1.6123 H         1 <0>         0.0644
     44 H11        -5.9625    0.0674    0.9842 H         1 <0>         0.1193
     45 H12        -8.3573   -0.2540    0.1366 H         1 <0>         0.0902
     46 H13        -7.1207   -0.0920   -1.1375 H         1 <0>         0.0923
     47 H14        -7.2279   -3.8675   -1.6842 H         1 <0>         0.0925
     48 H15        -6.3921   -2.4232   -2.3123 H         1 <0>         0.0918
     49 H16        -4.8347   -3.5420   -0.8449 H         1 <0>         0.1078
     50 H17        -6.0696   -3.7092    0.4303 H         1 <0>         0.0716
     51 H18        -8.6296   -1.1813   -3.1468 H         1 <0>         0.1574
     52 H19       -10.2314   -0.8169   -4.9511 H         1 <0>         0.1582
     53 H20       -12.5418   -1.6286   -4.7679 H         1 <0>         0.1594
     54 H21       -13.2961   -2.8192   -2.7766 H         1 <0>         0.1620
     55 H22       -13.4021   -3.8938    0.6227 H         1 <0>         0.1202
     56 H23       -13.8426   -3.2606   -0.9815 H         1 <0>         0.1194
     57 H24       -13.7532   -4.6860   -2.9473 H         1 <0>         0.1234
     58 H25       -13.8872   -6.9854   -3.8181 H         1 <0>         0.1298
     59 H26       -13.4356   -8.8940   -2.3293 H         1 <0>         0.1294
     60 H27       -12.8493   -8.5032    0.0301 H         1 <0>         0.1295
     61 H28       -12.7072   -6.2035    0.8988 H         1 <0>         0.1276
     62 H29         0.7896   -1.5936   -0.7816 H         1 <0>         0.3741
     63 H30        -9.0328   -3.2986    0.9751 H         1 <0>         0.4613
@<TRIPOS>BOND
     1    1    2 1
     2    1   34 1
     3    1   35 1
     4    1   36 1
     5    2    3 1
     6    2    4 1
     7    2   33 1
     8    3   37 1
     9    3   38 1
    10    3   39 1
    11    4    9 ar
    12    4    5 ar
    13    5    6 ar
    14    5   40 1
    15    6    7 ar
    16    6   41 1
    17    7    8 ar
    18    7   10 1
    19    8    9 ar
    20    9   42 1
    21   10   15 1
    22   10   11 1
    23   11   12 1
    24   11   43 1
    25   11   44 1
    26   12   13 1
    27   12   45 1
    28   12   46 1
    29   13   14 1
    30   13   16 1
    31   14   15 1
    32   14   47 1
    33   14   48 1
    34   15   49 1
    35   15   50 1
    36   16   25 ar
    37   16   17 ar
    38   17   22 ar
    39   17   18 ar
    40   18   19 ar
    41   18   51 1
    42   19   20 ar
    43   19   52 1
    44   20   21 ar
    45   20   53 1
    46   21   22 ar
    47   21   54 1
    48   22   23 ar
    49   23   24 ar
    50   23   26 1
    51   24   25 ar
    52   25   63 1
    53   26   27 1
    54   26   55 1
    55   26   56 1
    56   27   32 ar
    57   27   28 ar
    58   28   29 ar
    59   28   57 1
    60   29   30 ar
    61   29   58 1
    62   30   31 ar
    63   30   59 1
    64   31   32 ar
    65   31   60 1
    66   32   61 1
    67   33   62 1
@<TRIPOS>MOLECULE
ZINC43197966
   62    66     0     0     0
SMALL
USER_CHARGES

@<TRIPOS>ATOM
      1 C1         -0.0409    1.5616   -0.3444 C.3       1 <0>        -0.1412
      2 C2         -0.0234    0.0753    0.0180 C.3       1 <0>         0.1812
      3 C3          0.6141   -0.1060    1.3970 C.3       1 <0>        -0.1744
      4 C4         -1.4349   -0.4521    0.0439 C.ar      1 <0>        -0.2252
      5 C5         -1.6928   -1.7814   -0.2650 C.ar      1 <0>        -0.0246
      6 C6         -3.0021   -2.2252   -0.2296 C.ar      1 <0>        -0.2364
      7 C7         -4.0109   -1.3301    0.1125 C.ar      1 <0>         0.4073
      8 N1         -3.7244   -0.0700    0.4005 N.ar      1 <0>        -0.5395
      9 C8         -2.4838    0.3795    0.3803 C.ar      1 <0>         0.1596
     10 N2         -5.3314   -1.7625    0.1516 N.pl3     1 <0>        -0.6039
     11 C9         -6.3814   -0.9087    0.7247 C.3       1 <0>         0.1104
     12 C10        -7.4868   -0.7221   -0.3220 C.3       1 <0>         0.1351
     13 N3         -7.8579   -2.0411   -0.8534 N.pl3     1 <0>        -0.6547
     14 C11        -6.8080   -2.8949   -1.4264 C.3       1 <0>         0.1346
     15 C12        -5.7035   -3.0792   -0.3848 C.3       1 <0>         0.1080
     16 C13        -9.1737   -2.4719   -0.8144 C.ar      1 <0>         0.3591
     17 C14       -10.0469   -2.2186   -1.8969 C.ar      1 <0>        -0.0808
     18 C15        -9.6459   -1.5334   -3.0485 C.ar      1 <0>        -0.0784
     19 C16       -10.5457   -1.3271   -4.0523 C.ar      1 <0>        -0.1022
     20 C17       -11.8562   -1.7876   -3.9485 C.ar      1 <0>        -0.0951
     21 C18       -12.2801   -2.4585   -2.8401 C.ar      1 <0>        -0.0970
     22 C19       -11.3816   -2.6882   -1.7902 C.ar      1 <0>        -0.0665
     23 C20       -11.7431   -3.3732   -0.6150 C.ar      1 <0>         0.1154
     24 N4        -10.8429   -3.5485    0.3244 N.ar      1 <0>        -0.2488
     25 N5         -9.6350   -3.1324    0.2331 N.ar      1 <0>        -0.2705
     26 C21       -13.1447   -3.8978   -0.4371 C.3       1 <0>        -0.0284
     27 C22       -13.2274   -5.3025   -0.9765 C.ar      1 <0>        -0.0835
     28 C23       -13.5577   -5.5158   -2.3017 C.ar      1 <0>        -0.1148
     29 C24       -13.6336   -6.8043   -2.7964 C.ar      1 <0>        -0.1199
     30 C25       -13.3788   -7.8796   -1.9660 C.ar      1 <0>        -0.1185
     31 C26       -13.0476   -7.6664   -0.6409 C.ar      1 <0>        -0.1187
     32 C27       -12.9675   -6.3777   -0.1473 C.ar      1 <0>        -0.1024
     33 O1          0.7359   -0.6436   -0.9560 O.3       1 <0>        -0.5545
     34 H1          0.9800    1.9431   -0.3631 H         1 <0>         0.0676
     35 H2         -0.4951    1.6908   -1.3268 H         1 <0>         0.0653
     36 H3         -0.6201    2.1099    0.3986 H         1 <0>         0.0733
     37 H4          0.0349    0.4423    2.1400 H         1 <0>         0.0675
     38 H5          0.6266   -1.1649    1.6552 H         1 <0>         0.0579
     39 H6          1.6350    0.2754    1.3783 H         1 <0>         0.0677
     40 H7         -0.8889   -2.4533   -0.5274 H         1 <0>         0.1292
     41 H8         -3.2384   -3.2526   -0.4645 H         1 <0>         0.1326
     42 H9         -2.2871    1.4127    0.6259 H         1 <0>         0.1560
     43 H10        -6.7957   -1.3849    1.6133 H         1 <0>         0.0670
     44 H11        -5.9604    0.0613    0.9890 H         1 <0>         0.1036
     45 H12        -8.3561   -0.2571    0.1429 H         1 <0>         0.0785
     46 H13        -7.1208   -0.0912   -1.1320 H         1 <0>         0.0646
     47 H14        -7.2290   -3.8649   -1.6908 H         1 <0>         0.0807
     48 H15        -6.3937   -2.4187   -2.3150 H         1 <0>         0.0642
     49 H16        -4.8348   -3.5423   -0.8529 H         1 <0>         0.0913
     50 H17        -6.0684   -3.7135    0.4230 H         1 <0>         0.0742
     51 H18        -8.6329   -1.1707   -3.1417 H         1 <0>         0.1365
     52 H19       -10.2374   -0.7978   -4.9418 H         1 <0>         0.1326
     53 H20       -12.5476   -1.6100   -4.7590 H         1 <0>         0.1338
     54 H21       -13.2991   -2.8097   -2.7720 H         1 <0>         0.1390
     55 H22       -13.4002   -3.8998    0.6225 H         1 <0>         0.1018
     56 H23       -13.8430   -3.2592   -0.9781 H         1 <0>         0.0951
     57 H24       -13.7568   -4.6756   -2.9505 H         1 <0>         0.1208
     58 H25       -13.8923   -6.9709   -3.8317 H         1 <0>         0.1228
     59 H26       -13.4388   -8.8864   -2.3523 H         1 <0>         0.1222
     60 H27       -12.8488   -8.5065    0.0079 H         1 <0>         0.1236
     61 H28       -12.7051   -6.2109    0.8870 H         1 <0>         0.1268
     62 H29         0.7897   -1.5946   -0.7893 H         1 <0>         0.3733
@<TRIPOS>BOND
     1    1    2 1
     2    1   34 1
     3    1   35 1
     4    1   36 1
     5    2    3 1
     6    2    4 1
     7    2   33 1
     8    3   37 1
     9    3   38 1
    10    3   39 1
    11    4    9 ar
    12    4    5 ar
    13    5    6 ar
    14    5   40 1
    15    6    7 ar
    16    6   41 1
    17    7    8 ar
    18    7   10 1
    19    8    9 ar
    20    9   42 1
    21   10   15 1
    22   10   11 1
    23   11   12 1
    24   11   43 1
    25   11   44 1
    26   12   13 1
    27   12   45 1
    28   12   46 1
    29   13   14 1
    30   13   16 1
    31   14   15 1
    32   14   47 1
    33   14   48 1
    34   15   49 1
    35   15   50 1
    36   16   25 ar
    37   16   17 ar
    38   17   22 ar
    39   17   18 ar
    40   18   19 ar
    41   18   51 1
    42   19   20 ar
    43   19   52 1
    44   20   21 ar
    45   20   53 1
    46   21   22 ar
    47   21   54 1
    48   22   23 ar
    49   23   24 ar
    50   23   26 1
    51   24   25 ar
    52   26   27 1
    53   26   55 1
    54   26   56 1
    55   27   32 ar
    56   27   28 ar
    57   28   29 ar
    58   28   57 1
    59   29   30 ar
    60   29   58 1
    61   30   31 ar
    62   30   59 1
    63   31   32 ar
    64   31   60 1
    65   32   61 1
    66   33   62 1
@<TRIPOS>MOLECULE
ZINC01393434
   53    57     0     0     0
SMALL
USER_CHARGES
1-benzyl-4-(4-phenylpiperazin-1-yl)-phthalazine
@<TRIPOS>ATOM
      1 C1          1.2750    2.9837    0.0326 C.ar      1 <0>        -0.1182
      2 C2          1.2236    1.6027    0.0003 C.ar      1 <0>        -0.1198
      3 C3          0.0017    0.9563    0.0015 C.ar      1 <0>        -0.1144
      4 C4         -1.1689    1.6911    0.0293 C.ar      1 <0>        -0.0840
      5 C5         -1.1175    3.0720    0.0656 C.ar      1 <0>        -0.1025
      6 C6          0.1045    3.7184    0.0652 C.ar      1 <0>        -0.1187
      7 C7         -2.5011    0.9866    0.0245 C.3       1 <0>        -0.0285
      8 C8         -2.9326    0.7181    1.4432 C.ar      1 <0>         0.1188
      9 C9         -2.5745   -0.4837    2.0824 C.ar      1 <0>        -0.0679
     10 C10        -1.8147   -1.4787    1.4540 C.ar      1 <0>        -0.0992
     11 C11        -1.5073   -2.6174    2.1376 C.ar      1 <0>        -0.0926
     12 C12        -1.9365   -2.8060    3.4493 C.ar      1 <0>        -0.1055
     13 C13        -2.6682   -1.8525    4.0941 C.ar      1 <0>        -0.0698
     14 C14        -3.0066   -0.6744    3.4204 C.ar      1 <0>        -0.0574
     15 C15        -3.7765    0.3522    4.0138 C.ar      1 <0>         0.2771
     16 N1         -4.0502    1.4325    3.3038 N.ar      1 <0>        -0.2860
     17 N2         -3.6520    1.5997    2.0979 N.ar      1 <0>        -0.2494
     18 N3         -4.2355    0.2278    5.3146 N.pl3     1 <0>        -0.4822
     19 C16        -5.7045    0.2361    5.3578 C.3       1 <0>         0.0594
     20 C17        -6.1710    0.0172    6.7990 C.3       1 <0>         0.0634
     21 N4         -5.6158    1.0735    7.6566 N.pl3     1 <0>        -0.4902
     22 C18        -4.1469    1.0652    7.6135 C.3       1 <0>         0.0558
     23 C19        -3.6803    1.2840    6.1723 C.3       1 <0>         0.0600
     24 C20        -6.0787    0.9481    8.9685 C.ar      1 <0>         0.1113
     25 C21        -5.1754    0.8310   10.0172 C.ar      1 <0>        -0.1708
     26 C22        -5.6365    0.7119   11.3136 C.ar      1 <0>        -0.0934
     27 C23        -6.9958    0.6986   11.5671 C.ar      1 <0>        -0.1459
     28 C24        -7.8979    0.8096   10.5249 C.ar      1 <0>        -0.0948
     29 C25        -7.4436    0.9343    9.2267 C.ar      1 <0>        -0.1397
     30 H1          2.2296    3.4887    0.0319 H         1 <0>         0.1224
     31 H2          2.1381    1.0287   -0.0256 H         1 <0>         0.1230
     32 H3         -0.0385   -0.1226   -0.0236 H         1 <0>         0.1211
     33 H4         -2.0320    3.6460    0.0907 H         1 <0>         0.1265
     34 H5          0.1446    4.7973    0.0901 H         1 <0>         0.1237
     35 H6         -3.2428    1.6153   -0.4681 H         1 <0>         0.1018
     36 H7         -2.4108    0.0424   -0.5127 H         1 <0>         0.0959
     37 H8         -1.4760   -1.3451    0.4372 H         1 <0>         0.1392
     38 H9         -0.9213   -3.3853    1.6547 H         1 <0>         0.1341
     39 H10        -1.6780   -3.7178    3.9671 H         1 <0>         0.1338
     40 H11        -2.9944   -2.0114    5.1113 H         1 <0>         0.1453
     41 H12        -6.0734    1.1966    4.9981 H         1 <0>         0.0660
     42 H13        -6.0914   -0.5626    4.7250 H         1 <0>         0.0852
     43 H14        -5.8251   -0.9552    7.1495 H         1 <0>         0.0557
     44 H15        -7.2598    0.0520    6.8379 H         1 <0>         0.0926
     45 H16        -3.7780    0.1047    7.9732 H         1 <0>         0.0582
     46 H17        -3.7599    1.8639    8.2463 H         1 <0>         0.0930
     47 H18        -2.5916    1.2493    6.1334 H         1 <0>         0.0846
     48 H19        -4.0263    2.2564    5.8218 H         1 <0>         0.0655
     49 H20        -4.1137    0.8369    9.8194 H         1 <0>         0.1261
     50 H21        -4.9346    0.6250   12.1298 H         1 <0>         0.1221
     51 H22        -7.3538    0.6016   12.5815 H         1 <0>         0.1211
     52 H23        -8.9589    0.7992   10.7264 H         1 <0>         0.1240
     53 H24        -8.1486    1.0206    8.4131 H         1 <0>         0.1242
@<TRIPOS>BOND
     1    1    6 ar
     2    1    2 ar
     3    1   30 1
     4    2    3 ar
     5    2   31 1
     6    3    4 ar
     7    3   32 1
     8    4    5 ar
     9    4    7 1
    10    5    6 ar
    11    5   33 1
    12    6   34 1
    13    7    8 1
    14    7   35 1
    15    7   36 1
    16    8   17 ar
    17    8    9 ar
    18    9   14 ar
    19    9   10 ar
    20   10   11 ar
    21   10   37 1
    22   11   12 ar
    23   11   38 1
    24   12   13 ar
    25   12   39 1
    26   13   14 ar
    27   13   40 1
    28   14   15 ar
    29   15   16 ar
    30   15   18 1
    31   16   17 ar
    32   18   23 1
    33   18   19 1
    34   19   20 1
    35   19   41 1
    36   19   42 1
    37   20   21 1
    38   20   43 1
    39   20   44 1
    40   21   22 1
    41   21   24 1
    42   22   23 1
    43   22   45 1
    44   22   46 1
    45   23   47 1
    46   23   48 1
    47   24   29 ar
    48   24   25 ar
    49   25   26 ar
    50   25   49 1
    51   26   27 ar
    52   26   50 1
    53   27   28 ar
    54   27   51 1
    55   28   29 ar
    56   28   52 1
    57   29   53 1
@<TRIPOS>MOLECULE
ZINC16480912
   52    56     0     0     0
SMALL
USER_CHARGES
1-benzyl-4-[4-(2-pyridyl)piperazin-1-yl]phthalazine
@<TRIPOS>ATOM
      1 C1          1.2750    2.9837    0.0326 C.ar      1 <0>        -0.1182
      2 C2          1.2236    1.6027    0.0003 C.ar      1 <0>        -0.1198
      3 C3          0.0017    0.9563    0.0015 C.ar      1 <0>        -0.1144
      4 C4         -1.1689    1.6911    0.0293 C.ar      1 <0>        -0.0840
      5 C5         -1.1175    3.0720    0.0656 C.ar      1 <0>        -0.1025
      6 C6          0.1045    3.7184    0.0652 C.ar      1 <0>        -0.1187
      7 C7         -2.5011    0.9866    0.0245 C.3       1 <0>        -0.0284
      8 C8         -2.9326    0.7181    1.4432 C.ar      1 <0>         0.1184
      9 C9         -2.5745   -0.4837    2.0824 C.ar      1 <0>        -0.0677
     10 C10        -1.8147   -1.4787    1.4540 C.ar      1 <0>        -0.0995
     11 C11        -1.5073   -2.6174    2.1376 C.ar      1 <0>        -0.0925
     12 C12        -1.9365   -2.8060    3.4493 C.ar      1 <0>        -0.1057
     13 C13        -2.6682   -1.8525    4.0941 C.ar      1 <0>        -0.0693
     14 C14        -3.0066   -0.6744    3.4204 C.ar      1 <0>        -0.0574
     15 C15        -3.7765    0.3522    4.0138 C.ar      1 <0>         0.2778
     16 N1         -4.0502    1.4325    3.3038 N.ar      1 <0>        -0.2863
     17 N2         -3.6520    1.5997    2.0979 N.ar      1 <0>        -0.2494
     18 N3         -4.2355    0.2278    5.3146 N.pl3     1 <0>        -0.4827
     19 C16        -5.7045    0.2361    5.3578 C.3       1 <0>         0.0607
     20 C17        -6.1710    0.0172    6.7990 C.3       1 <0>         0.0648
     21 N4         -5.6158    1.0735    7.6566 N.pl3     1 <0>        -0.4784
     22 C18        -4.1469    1.0652    7.6135 C.3       1 <0>         0.0738
     23 C19        -3.6803    1.2840    6.1723 C.3       1 <0>         0.0574
     24 C20        -6.0765    0.9487    8.9621 C.ar      1 <0>         0.3121
     25 C21        -7.4452    0.9358    9.2120 C.ar      1 <0>        -0.1861
     26 C22        -7.8897    0.8109   10.5157 C.ar      1 <0>        -0.0529
     27 C23        -6.9470    0.7028   11.5299 C.ar      1 <0>        -0.2009
     28 C24        -5.6045    0.7228   11.2100 C.ar      1 <0>         0.1262
     29 N5         -5.2091    0.8377    9.9562 N.ar      1 <0>        -0.5203
     30 H1          2.2296    3.4887    0.0319 H         1 <0>         0.1223
     31 H2          2.1381    1.0287   -0.0256 H         1 <0>         0.1230
     32 H3         -0.0385   -0.1226   -0.0236 H         1 <0>         0.1211
     33 H4         -2.0320    3.6460    0.0907 H         1 <0>         0.1265
     34 H5          0.1446    4.7973    0.0901 H         1 <0>         0.1237
     35 H6         -3.2428    1.6153   -0.4681 H         1 <0>         0.1017
     36 H7         -2.4108    0.0424   -0.5127 H         1 <0>         0.0958
     37 H8         -1.4760   -1.3451    0.4372 H         1 <0>         0.1390
     38 H9         -0.9213   -3.3853    1.6547 H         1 <0>         0.1339
     39 H10        -1.6780   -3.7178    3.9671 H         1 <0>         0.1337
     40 H11        -2.9944   -2.0114    5.1113 H         1 <0>         0.1456
     41 H12        -6.0734    1.1966    4.9981 H         1 <0>         0.0671
     42 H13        -6.0914   -0.5626    4.7250 H         1 <0>         0.0872
     43 H14        -5.8251   -0.9552    7.1495 H         1 <0>         0.0580
     44 H15        -7.2598    0.0520    6.8379 H         1 <0>         0.0942
     45 H16        -3.7780    0.1047    7.9732 H         1 <0>         0.0621
     46 H17        -3.7599    1.8639    8.2463 H         1 <0>         0.0959
     47 H18        -2.5916    1.2493    6.1334 H         1 <0>         0.0854
     48 H19        -4.0263    2.2564    5.8218 H         1 <0>         0.0641
     49 H20        -8.1509    1.0217    8.3990 H         1 <0>         0.1358
     50 H21        -8.9460    0.7982   10.7401 H         1 <0>         0.1363
     51 H22        -7.2613    0.6037   12.5584 H         1 <0>         0.1348
     52 H23        -4.8681    0.6390   11.9956 H         1 <0>         0.1566
@<TRIPOS>BOND
     1    1    6 ar
     2    1    2 ar
     3    1   30 1
     4    2    3 ar
     5    2   31 1
     6    3    4 ar
     7    3   32 1
     8    4    5 ar
     9    4    7 1
    10    5    6 ar
    11    5   33 1
    12    6   34 1
    13    7    8 1
    14    7   35 1
    15    7   36 1
    16    8   17 ar
    17    8    9 ar
    18    9   14 ar
    19    9   10 ar
    20   10   11 ar
    21   10   37 1
    22   11   12 ar
    23   11   38 1
    24   12   13 ar
    25   12   39 1
    26   13   14 ar
    27   13   40 1
    28   14   15 ar
    29   15   16 ar
    30   15   18 1
    31   16   17 ar
    32   18   23 1
    33   18   19 1
    34   19   20 1
    35   19   41 1
    36   19   42 1
    37   20   21 1
    38   20   43 1
    39   20   44 1
    40   21   22 1
    41   21   24 1
    42   22   23 1
    43   22   45 1
    44   22   46 1
    45   23   47 1
    46   23   48 1
    47   24   29 ar
    48   24   25 ar
    49   25   26 ar
    50   25   49 1
    51   26   27 ar
    52   26   50 1
    53   27   28 ar
    54   27   51 1
    55   28   29 ar
    56   28   52 1
@<TRIPOS>MOLECULE
ZINC33315026
   53    57     0     0     0
SMALL
USER_CHARGES
1-(4-pyridylmethyl)-4-[4-(2-pyridyl)piperazin-1-yl]phthalazine
@<TRIPOS>ATOM
      1 C1         -0.9182   11.4528   -4.0788 C.ar      1 <0>        -0.0356
      2 C2         -0.9933   10.0636   -4.1480 C.ar      1 <0>        -0.0718
      3 C3         -0.4609    9.2805   -3.1666 C.ar      1 <0>        -0.0501
      4 C4          0.1745    9.8832   -2.0760 C.ar      1 <0>        -0.0617
      5 C5          0.2464   11.2987   -2.0016 C.ar      1 <0>        -0.0456
      6 C6         -0.3107   12.0728   -3.0276 C.ar      1 <0>        -0.0880
      7 C7          0.8890   11.8642   -0.8848 C.ar      1 <0>         0.2217
      8 N1          1.3858   11.0706    0.0358 N.ar      1 <0>        -0.2568
      9 N2          1.3202    9.7928   -0.0216 N.ar      1 <0>        -0.3269
     10 C8          0.7439    9.1409   -1.0165 C.ar      1 <0>         0.3839
     11 N3          0.7038    7.7565   -1.0235 N.pl3     1 <0>        -0.4995
     12 C9          2.0596    7.1905   -1.0545 C.3       1 <0>         0.0456
     13 C10         1.9708    5.6650   -1.1417 C.3       1 <0>         0.0181
     14 N4          1.2161    5.1542    0.0112 N.pl3     1 <0>        -0.4797
     15 C11        -0.1397    5.7202    0.0421 C.3       1 <0>         0.0533
     16 C12        -0.0509    7.2456    0.1293 C.3       1 <0>         0.0377
     17 C13         1.1759    3.7648    0.0041 C.ar      1 <0>         0.3488
     18 C14         0.5049    3.0893    1.0188 C.ar      1 <0>        -0.1429
     19 C15         0.4687    1.7069    0.9967 C.ar      1 <0>         0.0271
     20 C16         1.1158    1.0433   -0.0376 C.ar      1 <0>        -0.1376
     21 C17         1.7625    1.7770   -1.0115 C.ar      1 <0>         0.1471
     22 N5          1.7766    3.0959   -0.9678 N.ar      1 <0>        -0.5035
     23 C18         1.0059   13.3604   -0.7474 C.3       1 <0>        -0.0418
     24 C19         2.2829   13.8264   -1.3980 C.ar      1 <0>        -0.0613
     25 C20         3.4601   13.9114   -0.6704 C.ar      1 <0>        -0.1580
     26 C21         4.6126   14.3390   -1.3018 C.ar      1 <0>         0.1105
     27 N6          4.5987   14.6728   -2.5775 N.ar      1 <0>        -0.4704
     28 C22         3.4968   14.6087   -3.2991 C.ar      1 <0>         0.1113
     29 C23         2.3072   14.1857   -2.7369 C.ar      1 <0>        -0.1677
     30 H1         -1.3479   12.0482   -4.8707 H         1 <0>         0.1640
     31 H2         -1.4805    9.5992   -4.9926 H         1 <0>         0.1613
     32 H3         -0.5258    8.2044   -3.2329 H         1 <0>         0.1626
     33 H4         -0.2598   13.1508   -2.9861 H         1 <0>         0.1649
     34 H5          2.5988    7.5781   -1.9315 H         1 <0>         0.1250
     35 H6          2.5971    7.4757   -0.1381 H         1 <0>         0.0771
     36 H7          1.4580    5.3802   -2.0722 H         1 <0>         0.0909
     37 H8          2.9844    5.2378   -1.1361 H         1 <0>         0.1202
     38 H9         -0.6771    5.4350   -0.8744 H         1 <0>         0.0907
     39 H10        -0.6790    5.3326    0.9190 H         1 <0>         0.1286
     40 H11         0.4623    7.5314    1.0593 H         1 <0>         0.0764
     41 H12        -1.0641    7.6738    0.1232 H         1 <0>         0.1267
     42 H13         0.0153    3.6371    1.8103 H         1 <0>         0.1837
     43 H14        -0.0479    1.1557    1.7686 H         1 <0>         0.1822
     44 H15         1.1093   -0.0358   -0.0818 H         1 <0>         0.1886
     45 H16         2.2632    1.2651   -1.8199 H         1 <0>         0.2120
     46 H17         0.1473   13.8419   -1.2384 H         1 <0>         0.1287
     47 H18         1.0176   13.6309    0.3188 H         1 <0>         0.1293
     48 H19         3.4768   13.6438    0.3758 H         1 <0>         0.1412
     49 H20         5.5344   14.4048   -0.7430 H         1 <0>         0.1643
     50 H21         3.5242   14.8904   -4.3414 H         1 <0>         0.1648
     51 H22         1.4079   14.1360   -3.3328 H         1 <0>         0.1373
     52 H23         1.7567    9.1830    0.7831 H         1 <0>         0.4969
     53 H24         2.3043    3.6397   -1.7652 H         1 <0>         0.4765
@<TRIPOS>BOND
     1    1    6 ar
     2    1    2 ar
     3    1   30 1
     4    2    3 ar
     5    2   31 1
     6    3    4 ar
     7    3   32 1
     8    4   10 ar
     9    4    5 ar
    10    5    6 ar
    11    5    7 ar
    12    6   33 1
    13    7    8 ar
    14    7   23 1
    15    8    9 ar
    16    9   10 ar
    17    9   52 1
    18   10   11 1
    19   11   16 1
    20   11   12 1
    21   12   13 1
    22   12   34 1
    23   12   35 1
    24   13   14 1
    25   13   36 1
    26   13   37 1
    27   14   15 1
    28   14   17 1
    29   15   16 1
    30   15   38 1
    31   15   39 1
    32   16   40 1
    33   16   41 1
    34   17   22 ar
    35   17   18 ar
    36   18   19 ar
    37   18   42 1
    38   19   20 ar
    39   19   43 1
    40   20   21 ar
    41   20   44 1
    42   21   22 ar
    43   21   45 1
    44   22   53 1
    45   23   24 1
    46   23   46 1
    47   23   47 1
    48   24   29 ar
    49   24   25 ar
    50   25   26 ar
    51   25   48 1
    52   26   27 ar
    53   26   49 1
    54   27   28 ar
    55   28   29 ar
    56   28   50 1
    57   29   51 1
@<TRIPOS>MOLECULE
ZINC33315026
   52    56     0     0     0
SMALL
USER_CHARGES
1-(4-pyridylmethyl)-4-[4-(2-pyridyl)piperazin-1-yl]phthalazine
@<TRIPOS>ATOM
      1 C1         -0.9182   11.4528   -4.0788 C.ar      1 <0>        -0.0391
      2 C2         -0.9933   10.0636   -4.1480 C.ar      1 <0>        -0.0794
      3 C3         -0.4609    9.2805   -3.1666 C.ar      1 <0>        -0.0412
      4 C4          0.1745    9.8832   -2.0760 C.ar      1 <0>        -0.0655
      5 C5          0.2464   11.2987   -2.0016 C.ar      1 <0>        -0.0459
      6 C6         -0.3107   12.0728   -3.0276 C.ar      1 <0>        -0.0941
      7 C7          0.8890   11.8642   -0.8848 C.ar      1 <0>         0.2091
      8 N1          1.3858   11.0706    0.0358 N.ar      1 <0>        -0.2577
      9 N2          1.3202    9.7928   -0.0216 N.ar      1 <0>        -0.3354
     10 C8          0.7439    9.1409   -1.0165 C.ar      1 <0>         0.4020
     11 N3          0.7038    7.7565   -1.0235 N.pl3     1 <0>        -0.4998
     12 C9          2.0596    7.1905   -1.0545 C.3       1 <0>         0.0415
     13 C10         1.9708    5.6650   -1.1417 C.3       1 <0>         0.0679
     14 N4          1.2161    5.1542    0.0112 N.pl3     1 <0>        -0.4809
     15 C11        -0.1397    5.7202    0.0421 C.3       1 <0>         0.0576
     16 C12        -0.0509    7.2456    0.1293 C.3       1 <0>         0.0452
     17 C13         1.1759    3.7648    0.0041 C.ar      1 <0>         0.2984
     18 C14         0.5049    3.0893    1.0188 C.ar      1 <0>        -0.1810
     19 C15         0.4687    1.7069    0.9967 C.ar      1 <0>        -0.0509
     20 C16         1.1158    1.0433   -0.0376 C.ar      1 <0>        -0.1865
     21 C17         1.7625    1.7770   -1.0115 C.ar      1 <0>         0.1278
     22 N5          1.7766    3.0959   -0.9678 N.ar      1 <0>        -0.5181
     23 C18         1.0059   13.3604   -0.7474 C.3       1 <0>        -0.0381
     24 C19         2.2829   13.8264   -1.3980 C.ar      1 <0>        -0.0580
     25 C20         3.4601   13.9114   -0.6704 C.ar      1 <0>        -0.1575
     26 C21         4.6126   14.3390   -1.3018 C.ar      1 <0>         0.1089
     27 N6          4.5987   14.6728   -2.5775 N.ar      1 <0>        -0.4730
     28 C22         3.4968   14.6087   -3.2991 C.ar      1 <0>         0.1092
     29 C23         2.3072   14.1857   -2.7369 C.ar      1 <0>        -0.1672
     30 H1         -1.3479   12.0482   -4.8707 H         1 <0>         0.1597
     31 H2         -1.4805    9.5992   -4.9926 H         1 <0>         0.1591
     32 H3         -0.5258    8.2044   -3.2329 H         1 <0>         0.1660
     33 H4         -0.2598   13.1508   -2.9861 H         1 <0>         0.1610
     34 H5          2.5988    7.5781   -1.9315 H         1 <0>         0.1092
     35 H6          2.5971    7.4757   -0.1381 H         1 <0>         0.0647
     36 H7          1.4580    5.3802   -2.0722 H         1 <0>         0.0745
     37 H8          2.9844    5.2378   -1.1361 H         1 <0>         0.1128
     38 H9         -0.6771    5.4350   -0.8744 H         1 <0>         0.0704
     39 H10        -0.6790    5.3326    0.9190 H         1 <0>         0.1106
     40 H11         0.4623    7.5314    1.0593 H         1 <0>         0.0675
     41 H12        -1.0641    7.6738    0.1232 H         1 <0>         0.1110
     42 H13         0.0153    3.6371    1.8103 H         1 <0>         0.1362
     43 H14        -0.0479    1.1557    1.7686 H         1 <0>         0.1412
     44 H15         1.1093   -0.0358   -0.0818 H         1 <0>         0.1408
     45 H16         2.2632    1.2651   -1.8199 H         1 <0>         0.1618
     46 H17         0.1473   13.8419   -1.2384 H         1 <0>         0.1256
     47 H18         1.0176   13.6309    0.3188 H         1 <0>         0.1262
     48 H19         3.4768   13.6438    0.3758 H         1 <0>         0.1411
     49 H20         5.5344   14.4048   -0.7430 H         1 <0>         0.1631
     50 H21         3.5242   14.8904   -4.3414 H         1 <0>         0.1633
     51 H22         1.4079   14.1360   -3.3328 H         1 <0>         0.1372
     52 H23         1.7567    9.1830    0.7831 H         1 <0>         0.4990
@<TRIPOS>BOND
     1    1    6 ar
     2    1    2 ar
     3    1   30 1
     4    2    3 ar
     5    2   31 1
     6    3    4 ar
     7    3   32 1
     8    4   10 ar
     9    4    5 ar
    10    5    6 ar
    11    5    7 ar
    12    6   33 1
    13    7    8 ar
    14    7   23 1
    15    8    9 ar
    16    9   10 ar
    17    9   52 1
    18   10   11 1
    19   11   16 1
    20   11   12 1
    21   12   13 1
    22   12   34 1
    23   12   35 1
    24   13   14 1
    25   13   36 1
    26   13   37 1
    27   14   15 1
    28   14   17 1
    29   15   16 1
    30   15   38 1
    31   15   39 1
    32   16   40 1
    33   16   41 1
    34   17   22 ar
    35   17   18 ar
    36   18   19 ar
    37   18   42 1
    38   19   20 ar
    39   19   43 1
    40   20   21 ar
    41   20   44 1
    42   21   22 ar
    43   21   45 1
    44   23   24 1
    45   23   46 1
    46   23   47 1
    47   24   29 ar
    48   24   25 ar
    49   25   26 ar
    50   25   48 1
    51   26   27 ar
    52   26   49 1
    53   27   28 ar
    54   28   29 ar
    55   28   50 1
    56   29   51 1
