@<TRIPOS>MOLECULE
ZINC00527204
   46    49     0     0     0
SMALL
USER_CHARGES

@<TRIPOS>ATOM
      1 C1          2.5138    1.4213    0.0502 C.3       1 <0>        -0.1787
      2 C2          1.2066    1.0456   -0.5987 C.2       1 <0>         0.5167
      3 O1          0.1580    1.3441   -0.0674 O.2       1 <0>        -0.5275
      4 N1          1.2027    0.3780   -1.7694 N.am      1 <0>        -0.6216
      5 C3          2.4657    0.0044   -2.4216 C.3       1 <0>         0.0864
      6 C4          2.4618   -1.5096   -2.6662 C.3       1 <0>         0.1167
      7 N2          1.1947   -1.8776   -3.3132 N.pl3     1 <0>        -0.6737
      8 C5         -0.0683   -1.5040   -2.6611 C.3       1 <0>         0.1175
      9 C6         -0.0644    0.0051   -2.4137 C.3       1 <0>         0.0911
     10 C7          1.1907   -2.5635   -4.5160 C.ar      1 <0>         0.4752
     11 C8          1.2869   -3.9746   -4.5384 C.ar      1 <0>        -0.0839
     12 C9          1.3888   -4.7437   -3.3746 C.ar      1 <0>        -0.0518
     13 C10         1.4776   -6.1013   -3.4748 C.ar      1 <0>        -0.0749
     14 C11         1.4688   -6.7310   -4.7166 C.ar      1 <0>        -0.0432
     15 C12         1.3710   -6.0092   -5.8703 C.ar      1 <0>        -0.0899
     16 C13         1.2774   -4.6161   -5.8025 C.ar      1 <0>        -0.0425
     17 C14         1.1721   -3.7984   -6.9555 C.ar      1 <0>         0.2598
     18 N3          1.0883   -2.4881   -6.8040 N.ar      1 <0>        -0.2676
     19 N4          1.0916   -1.9102   -5.6609 N.ar      1 <0>        -0.3002
     20 C15         1.1567   -4.4022   -8.3075 C.ar      1 <0>        -0.0887
     21 C16         0.3759   -5.5297   -8.5621 C.ar      1 <0>        -0.0848
     22 C17         0.3654   -6.0875   -9.8241 C.ar      1 <0>        -0.1149
     23 C18         1.1272   -5.5307  -10.8358 C.ar      1 <0>        -0.0752
     24 C19         1.9037   -4.4125  -10.5896 C.ar      1 <0>        -0.1161
     25 C20         1.9186   -3.8424   -9.3332 C.ar      1 <0>        -0.0630
     26 H1          2.8328    0.6192    0.7158 H         1 <0>         0.0996
     27 H2          3.2698    1.5773   -0.7193 H         1 <0>         0.0837
     28 H3          2.3842    2.3392    0.6236 H         1 <0>         0.1009
     29 H4          2.5550    0.5285   -3.3732 H         1 <0>         0.0769
     30 H5          3.3030    0.2685   -1.7757 H         1 <0>         0.1154
     31 H6          3.2954   -1.7774   -3.3154 H         1 <0>         0.0954
     32 H7          2.5526   -2.0341   -1.7149 H         1 <0>         0.0937
     33 H8         -0.9056   -1.7681   -3.3070 H         1 <0>         0.0936
     34 H9         -0.1576   -2.0281   -1.7095 H         1 <0>         0.0943
     35 H10        -0.8976    0.2697   -1.7626 H         1 <0>         0.1170
     36 H11        -0.1594    0.5292   -3.3647 H         1 <0>         0.0725
     37 H12         1.3975   -4.2672   -2.4054 H         1 <0>         0.1582
     38 H13         1.5564   -6.6967   -2.5773 H         1 <0>         0.1588
     39 H14         1.5408   -7.8074   -4.7675 H         1 <0>         0.1597
     40 H15         1.3659   -6.5096   -6.8273 H         1 <0>         0.1655
     41 H16        -0.2190   -5.9654   -7.7729 H         1 <0>         0.1343
     42 H17        -0.2385   -6.9606  -10.0223 H         1 <0>         0.1412
     43 H18         1.1160   -5.9711  -11.8219 H         1 <0>         0.1388
     44 H19         2.4963   -3.9825  -11.3835 H         1 <0>         0.1399
     45 H20         2.5216   -2.9668   -9.1433 H         1 <0>         0.1332
     46 H21         1.0217   -0.9430   -5.6342 H         1 <0>         0.4622
@<TRIPOS>BOND
     1    1    2 1
     2    1   26 1
     3    1   27 1
     4    1   28 1
     5    2    3 2
     6    2    4 am
     7    4    9 1
     8    4    5 1
     9    5    6 1
    10    5   29 1
    11    5   30 1
    12    6    7 1
    13    6   31 1
    14    6   32 1
    15    7    8 1
    16    7   10 1
    17    8    9 1
    18    8   33 1
    19    8   34 1
    20    9   35 1
    21    9   36 1
    22   10   19 ar
    23   10   11 ar
    24   11   16 ar
    25   11   12 ar
    26   12   13 ar
    27   12   37 1
    28   13   14 ar
    29   13   38 1
    30   14   15 ar
    31   14   39 1
    32   15   16 ar
    33   15   40 1
    34   16   17 ar
    35   17   18 ar
    36   17   20 1
    37   18   19 ar
    38   19   46 1
    39   20   25 ar
    40   20   21 ar
    41   21   22 ar
    42   21   41 1
    43   22   23 ar
    44   22   42 1
    45   23   24 ar
    46   23   43 1
    47   24   25 ar
    48   24   44 1
    49   25   45 1
@<TRIPOS>MOLECULE
ZINC00527204
   45    48     0     0     0
SMALL
USER_CHARGES

@<TRIPOS>ATOM
      1 C1          0.0268    1.3962   -2.5268 C.3       1 <0>        -0.1747
      2 C2         -0.6183    1.0242   -1.2166 C.2       1 <0>         0.5127
      3 O1         -0.0955    1.3455   -0.1705 O.2       1 <0>        -0.5449
      4 N1         -1.7761    0.3344   -1.2075 N.am      1 <0>        -0.6117
      5 C3         -2.4177   -0.0669   -2.4673 C.3       1 <0>         0.0904
      6 C4         -2.6333   -1.5852   -2.4455 C.3       1 <0>         0.1328
      7 N2         -3.2767   -1.9500   -1.1755 N.pl3     1 <0>        -0.6547
      8 C5         -2.6351   -1.5487    0.0843 C.3       1 <0>         0.1355
      9 C6         -2.4165   -0.0352    0.0626 C.3       1 <0>         0.0941
     10 C7         -4.4661   -2.6586   -1.1661 C.ar      1 <0>         0.3601
     11 C8         -4.4616   -4.0706   -1.2509 C.ar      1 <0>        -0.0800
     12 C9         -3.2833   -4.8182   -1.3466 C.ar      1 <0>        -0.0794
     13 C10        -3.3577   -6.1781   -1.4244 C.ar      1 <0>        -0.1007
     14 C11        -4.5873   -6.8313   -1.4105 C.ar      1 <0>        -0.0949
     15 C12        -5.7545   -6.1308   -1.3186 C.ar      1 <0>        -0.0991
     16 C13        -5.7133   -4.7360   -1.2363 C.ar      1 <0>        -0.0626
     17 C14        -6.8817   -3.9397   -1.1376 C.ar      1 <0>         0.1466
     18 N3         -6.7552   -2.6260   -1.0644 N.ar      1 <0>        -0.2417
     19 N4         -5.6233   -2.0265   -1.0722 N.ar      1 <0>        -0.2703
     20 C15        -8.2219   -4.5690   -1.1174 C.ar      1 <0>        -0.0469
     21 C16        -8.4551   -5.6948   -0.3275 C.ar      1 <0>        -0.1001
     22 C17        -9.7062   -6.2764   -0.3126 C.ar      1 <0>        -0.1202
     23 C18       -10.7283   -5.7452   -1.0789 C.ar      1 <0>        -0.1039
     24 C19       -10.5033   -4.6288   -1.8644 C.ar      1 <0>        -0.1198
     25 C20        -9.2579   -4.0350   -1.8838 C.ar      1 <0>        -0.0772
     26 H1          0.9478    1.9468   -2.3349 H         1 <0>         0.0931
     27 H2          0.2551    0.4910   -3.0894 H         1 <0>         0.0883
     28 H3         -0.6559    2.0200   -3.1037 H         1 <0>         0.0886
     29 H4         -3.3788    0.4377   -2.5654 H         1 <0>         0.0779
     30 H5         -1.7747    0.1993   -3.3063 H         1 <0>         0.0962
     31 H6         -3.2752   -1.8755   -3.2773 H         1 <0>         0.0826
     32 H7         -1.6721   -2.0925   -2.5276 H         1 <0>         0.0670
     33 H8         -3.2781   -1.8148    0.9233 H         1 <0>         0.0822
     34 H9         -1.6739   -2.0533    0.1824 H         1 <0>         0.0661
     35 H10        -1.7728    0.2519    0.8940 H         1 <0>         0.1008
     36 H11        -3.3776    0.4717    0.1488 H         1 <0>         0.0745
     37 H12        -2.3234   -4.3234   -1.3590 H         1 <0>         0.1380
     38 H13        -2.4489   -6.7570   -1.4984 H         1 <0>         0.1338
     39 H14        -4.6175   -7.9090   -1.4738 H         1 <0>         0.1348
     40 H15        -6.7018   -6.6494   -1.3095 H         1 <0>         0.1443
     41 H16        -7.6579   -6.1105    0.2709 H         1 <0>         0.1276
     42 H17        -9.8879   -7.1482    0.2983 H         1 <0>         0.1293
     43 H18       -11.7058   -6.2042   -1.0641 H         1 <0>         0.1271
     44 H19       -11.3051   -4.2187   -2.4604 H         1 <0>         0.1293
     45 H20        -9.0847   -3.1608   -2.4938 H         1 <0>         0.1291
@<TRIPOS>BOND
     1    1    2 1
     2    1   26 1
     3    1   27 1
     4    1   28 1
     5    2    3 2
     6    2    4 am
     7    4    9 1
     8    4    5 1
     9    5    6 1
    10    5   29 1
    11    5   30 1
    12    6    7 1
    13    6   31 1
    14    6   32 1
    15    7    8 1
    16    7   10 1
    17    8    9 1
    18    8   33 1
    19    8   34 1
    20    9   35 1
    21    9   36 1
    22   10   19 ar
    23   10   11 ar
    24   11   16 ar
    25   11   12 ar
    26   12   13 ar
    27   12   37 1
    28   13   14 ar
    29   13   38 1
    30   14   15 ar
    31   14   39 1
    32   15   16 ar
    33   15   40 1
    34   16   17 ar
    35   17   18 ar
    36   17   20 1
    37   18   19 ar
    38   20   25 ar
    39   20   21 ar
    40   21   22 ar
    41   21   41 1
    42   22   23 ar
    43   22   42 1
    44   23   24 ar
    45   23   43 1
    46   24   25 ar
    47   24   44 1
    48   25   45 1
@<TRIPOS>MOLECULE
ZINC02399103
   53    57     0     0     0
SMALL
USER_CHARGES
phenyl-[4-(4-phenylphthalazin-1-yl)piperazin-1-yl]methanone
@<TRIPOS>ATOM
      1 C1         -0.6104   10.7585    5.6113 C.ar      1 <0>        -0.0757
      2 C2         -1.2737    9.5868    5.2930 C.ar      1 <0>        -0.1151
      3 C3         -0.6010    8.5585    4.6655 C.ar      1 <0>        -0.0851
      4 C4          0.7505    8.7023    4.3516 C.ar      1 <0>        -0.0880
      5 C5          1.4149    9.8842    4.6795 C.ar      1 <0>        -0.0635
      6 C6          0.7300   10.9071    5.3026 C.ar      1 <0>        -0.1163
      7 C7          1.4785    7.6024    3.6787 C.ar      1 <0>         0.2569
      8 C8          0.8921    6.9109    2.5891 C.ar      1 <0>        -0.0447
      9 C9         -0.3791    7.2183    2.0956 C.ar      1 <0>        -0.0929
     10 C10        -0.8760    6.5128    1.0388 C.ar      1 <0>        -0.0424
     11 C11        -0.1414    5.4852    0.4531 C.ar      1 <0>        -0.0791
     12 C12         1.1019    5.1606    0.9111 C.ar      1 <0>        -0.0427
     13 C13         1.6427    5.8685    1.9894 C.ar      1 <0>        -0.0641
     14 C14         2.9243    5.5913    2.5201 C.ar      1 <0>         0.3997
     15 N1          3.3632    6.3074    3.5410 N.ar      1 <0>        -0.3337
     16 N2          2.6861    7.2494    4.0838 N.ar      1 <0>        -0.2679
     17 N3          3.7069    4.5856    1.9787 N.pl3     1 <0>        -0.4946
     18 C15         3.8369    3.4593    2.9127 C.3       1 <0>         0.0281
     19 C16         4.5525    2.2993    2.2123 C.3       1 <0>         0.0980
     20 N4          5.8208    2.7983    1.6594 N.am      1 <0>        -0.6209
     21 C17         5.7873    4.0078    0.8233 C.3       1 <0>         0.1174
     22 C18         5.0231    5.1006    1.5783 C.3       1 <0>         0.0259
     23 C19         6.9827    2.1638    1.9119 C.2       1 <0>         0.5683
     24 O1          8.0330    2.6467    1.5361 O.2       1 <0>        -0.5166
     25 C20         6.9799    0.8805    2.6460 C.ar      1 <0>        -0.1431
     26 C21         5.9248   -0.0185    2.4819 C.ar      1 <0>        -0.1000
     27 C22         5.9309   -1.2166    3.1659 C.ar      1 <0>        -0.1238
     28 C23         6.9743   -1.5231    4.0213 C.ar      1 <0>        -0.0879
     29 C24         8.0204   -0.6339    4.1927 C.ar      1 <0>        -0.1204
     30 C25         8.0294    0.5651    3.5104 C.ar      1 <0>        -0.0616
     31 H1         -1.1413   11.5606    6.1024 H         1 <0>         0.1387
     32 H2         -2.3201    9.4767    5.5365 H         1 <0>         0.1411
     33 H3         -1.1199    7.6443    4.4175 H         1 <0>         0.1343
     34 H4          2.4623    9.9998    4.4428 H         1 <0>         0.1324
     35 H5          1.2423   11.8241    5.5537 H         1 <0>         0.1396
     36 H6         -0.9606    8.0104    2.5437 H         1 <0>         0.1645
     37 H7         -1.8562    6.7520    0.6536 H         1 <0>         0.1589
     38 H8         -0.5606    4.9396   -0.3793 H         1 <0>         0.1591
     39 H9          1.6636    4.3645    0.4452 H         1 <0>         0.1667
     40 H10         4.4205    3.7758    3.7897 H         1 <0>         0.0642
     41 H11         2.8371    3.1335    3.2357 H         1 <0>         0.1132
     42 H12         4.7497    1.4977    2.9393 H         1 <0>         0.1246
     43 H13         3.9169    1.9117    1.4025 H         1 <0>         0.0954
     44 H14         6.8155    4.3414    0.6197 H         1 <0>         0.1191
     45 H15         5.2799    3.7831   -0.1265 H         1 <0>         0.0931
     46 H16         4.8912    5.9756    0.9249 H         1 <0>         0.1129
     47 H17         5.5900    5.3941    2.4741 H         1 <0>         0.0613
     48 H18         5.1076    0.2215    1.8179 H         1 <0>         0.1334
     49 H19         5.1174   -1.9150    3.0365 H         1 <0>         0.1334
     50 H20         6.9720   -2.4604    4.5578 H         1 <0>         0.1326
     51 H21         8.8318   -0.8792    4.8619 H         1 <0>         0.1348
     52 H22         8.8465    1.2583    3.6451 H         1 <0>         0.1335
     53 H23         4.3572    6.1063    3.9669 H         1 <0>         0.4989
@<TRIPOS>BOND
     1    1    6 ar
     2    1    2 ar
     3    1   31 1
     4    2    3 ar
     5    2   32 1
     6    3    4 ar
     7    3   33 1
     8    4    5 ar
     9    4    7 1
    10    5    6 ar
    11    5   34 1
    12    6   35 1
    13    7   16 ar
    14    7    8 ar
    15    8   13 ar
    16    8    9 ar
    17    9   10 ar
    18    9   36 1
    19   10   11 ar
    20   10   37 1
    21   11   12 ar
    22   11   38 1
    23   12   13 ar
    24   12   39 1
    25   13   14 ar
    26   14   15 ar
    27   14   17 1
    28   15   16 ar
    29   15   53 1
    30   17   22 1
    31   17   18 1
    32   18   19 1
    33   18   40 1
    34   18   41 1
    35   19   20 1
    36   19   42 1
    37   19   43 1
    38   20   21 1
    39   20   23 am
    40   21   22 1
    41   21   44 1
    42   21   45 1
    43   22   46 1
    44   22   47 1
    45   23   24 2
    46   23   25 1
    47   25   30 ar
    48   25   26 ar
    49   26   27 ar
    50   26   48 1
    51   27   28 ar
    52   27   49 1
    53   28   29 ar
    54   28   50 1
    55   29   30 ar
    56   29   51 1
    57   30   52 1
@<TRIPOS>MOLECULE
ZINC01465336
   50    54     0     0     0
SMALL
USER_CHARGES

@<TRIPOS>ATOM
      1 C1         -0.3907   -0.4593    1.3018 C.ar      1 <0>        -0.0755
      2 C2          0.3508   -0.8045    2.4176 C.ar      1 <0>        -0.1149
      3 C3          1.6418   -1.2700    2.2745 C.ar      1 <0>        -0.0847
      4 C4          2.1990   -1.3922    1.0015 C.ar      1 <0>        -0.0885
      5 C5          1.4462   -1.0425   -0.1195 C.ar      1 <0>        -0.0632
      6 C6          0.1563   -0.5782    0.0366 C.ar      1 <0>        -0.1160
      7 C7          3.5841   -1.8906    0.8410 C.ar      1 <0>         0.2598
      8 C8          4.0314   -3.0219    1.5684 C.ar      1 <0>        -0.0424
      9 C9          3.2113   -3.7194    2.4599 C.ar      1 <0>        -0.0899
     10 C10         3.7117   -4.8005    3.1250 C.ar      1 <0>        -0.0430
     11 C11         5.0255   -5.2182    2.9293 C.ar      1 <0>        -0.0750
     12 C12         5.8515   -4.5590    2.0667 C.ar      1 <0>        -0.0513
     13 C13         5.3689   -3.4472    1.3685 C.ar      1 <0>        -0.0834
     14 C14         6.1634   -2.7130    0.4572 C.ar      1 <0>         0.4760
     15 N1          5.6319   -1.6733   -0.1626 N.ar      1 <0>        -0.2999
     16 N2          4.4220   -1.2912    0.0130 N.ar      1 <0>        -0.2675
     17 N3          7.4777   -3.0773    0.2183 N.pl3     1 <0>        -0.6751
     18 C15         7.8076   -4.0263   -0.8543 C.3       1 <0>         0.1187
     19 C16         8.8330   -3.3724   -1.7888 C.3       1 <0>         0.0766
     20 N4          9.9231   -2.8167   -0.9747 N.am      1 <0>        -0.6129
     21 C17         9.5931   -1.8677    0.0978 C.3       1 <0>         0.0944
     22 C18         8.5682   -2.5172    1.0287 C.3       1 <0>         0.1180
     23 C19        11.2024   -3.1713   -1.2073 C.2       1 <0>         0.6123
     24 O1         12.0836   -2.7976   -0.4558 O.2       1 <0>        -0.5040
     25 C20        11.5325   -4.0075   -2.3660 C.2       1 <0>        -0.0996
     26 C21        12.7519   -4.5594   -2.6358 C.2       1 <0>        -0.0989
     27 C22        12.6141   -5.2760   -3.8349 C.2       1 <0>        -0.2192
     28 C23        11.3328   -5.1318   -4.2393 C.2       1 <0>        -0.0019
     29 O2         10.6830   -4.3710   -3.3491 O.3       1 <0>        -0.1680
     30 H1         -1.4024   -0.0997    1.4186 H         1 <0>         0.1387
     31 H2         -0.0816   -0.7091    3.4026 H         1 <0>         0.1412
     32 H3          2.2198   -1.5388    3.1463 H         1 <0>         0.1342
     33 H4          1.8721   -1.1350   -1.1077 H         1 <0>         0.1330
     34 H5         -0.4277   -0.3075   -0.8306 H         1 <0>         0.1398
     35 H6          2.1907   -3.4051    2.6211 H         1 <0>         0.1653
     36 H7          3.0792   -5.3403    3.8141 H         1 <0>         0.1596
     37 H8          5.3963   -6.0770    3.4689 H         1 <0>         0.1588
     38 H9          6.8688   -4.8925    1.9242 H         1 <0>         0.1586
     39 H10         8.2318   -4.9329   -0.4229 H         1 <0>         0.0940
     40 H11         6.9060   -4.2723   -1.4153 H         1 <0>         0.0954
     41 H12         9.2327   -4.1202   -2.4739 H         1 <0>         0.1311
     42 H13         8.3547   -2.5729   -2.3546 H         1 <0>         0.0778
     43 H14        10.4947   -1.6217    0.6588 H         1 <0>         0.1205
     44 H15         9.1689   -0.9610   -0.3336 H         1 <0>         0.0770
     45 H16         8.1688   -1.7669    1.7111 H         1 <0>         0.0958
     46 H17         9.0478   -3.3140    1.5973 H         1 <0>         0.0952
     47 H18        13.6487   -4.4633   -2.0417 H         1 <0>         0.1638
     48 H19        13.3869   -5.8367   -4.3396 H         1 <0>         0.1624
     49 H20        10.9028   -5.5621   -5.1317 H         1 <0>         0.2148
     50 H21         6.1853   -1.1767   -0.7855 H         1 <0>         0.4621
@<TRIPOS>BOND
     1    1    6 ar
     2    1    2 ar
     3    1   30 1
     4    2    3 ar
     5    2   31 1
     6    3    4 ar
     7    3   32 1
     8    4    5 ar
     9    4    7 1
    10    5    6 ar
    11    5   33 1
    12    6   34 1
    13    7   16 ar
    14    7    8 ar
    15    8   13 ar
    16    8    9 ar
    17    9   10 ar
    18    9   35 1
    19   10   11 ar
    20   10   36 1
    21   11   12 ar
    22   11   37 1
    23   12   13 ar
    24   12   38 1
    25   13   14 ar
    26   14   15 ar
    27   14   17 1
    28   15   16 ar
    29   15   50 1
    30   17   22 1
    31   17   18 1
    32   18   19 1
    33   18   39 1
    34   18   40 1
    35   19   20 1
    36   19   41 1
    37   19   42 1
    38   20   21 1
    39   20   23 am
    40   21   22 1
    41   21   43 1
    42   21   44 1
    43   22   45 1
    44   22   46 1
    45   23   24 2
    46   23   25 1
    47   25   29 1
    48   25   26 2
    49   26   27 1
    50   26   47 1
    51   27   28 2
    52   27   48 1
    53   28   29 1
    54   28   49 1
@<TRIPOS>MOLECULE
ZINC01465336
   49    53     0     0     0
SMALL
USER_CHARGES

@<TRIPOS>ATOM
      1 C1         -0.3913   -0.4609    1.3011 C.ar      1 <0>        -0.1040
      2 C2          0.3514   -0.8027    2.4172 C.ar      1 <0>        -0.1202
      3 C3          1.6425   -1.2679    2.2744 C.ar      1 <0>        -0.0999
      4 C4          2.1987   -1.3932    1.0013 C.ar      1 <0>        -0.0466
      5 C5          1.4449   -1.0470   -0.1201 C.ar      1 <0>        -0.0775
      6 C6          0.1548   -0.5830    0.0358 C.ar      1 <0>        -0.1197
      7 C7          3.5840   -1.8913    0.8410 C.ar      1 <0>         0.1470
      8 C8          4.0325   -3.0204    1.5712 C.ar      1 <0>        -0.0627
      9 C9          3.2135   -3.7158    2.4653 C.ar      1 <0>        -0.0990
     10 C10         3.7151   -4.7948    3.1329 C.ar      1 <0>        -0.0948
     11 C11         5.0289   -5.2123    2.9373 C.ar      1 <0>        -0.1007
     12 C12         5.8539   -4.5550    2.0723 C.ar      1 <0>        -0.0791
     13 C13         5.3701   -3.4454    1.3714 C.ar      1 <0>        -0.0795
     14 C14         6.1635   -2.7133    0.4574 C.ar      1 <0>         0.3602
     15 N1          5.6308   -1.6756   -0.1648 N.ar      1 <0>        -0.2696
     16 N2          4.4209   -1.2937    0.0107 N.ar      1 <0>        -0.2418
     17 N3          7.4777   -3.0775    0.2184 N.pl3     1 <0>        -0.6554
     18 C15         7.8077   -4.0265   -0.8541 C.3       1 <0>         0.1360
     19 C16         8.8330   -3.3726   -1.7887 C.3       1 <0>         0.0787
     20 N4          9.9231   -2.8168   -0.9747 N.am      1 <0>        -0.6006
     21 C17         9.5931   -1.8678    0.0979 C.3       1 <0>         0.0963
     22 C18         8.5683   -2.5173    1.0289 C.3       1 <0>         0.1349
     23 C19        11.2024   -3.1713   -1.2073 C.2       1 <0>         0.6045
     24 O1         12.0836   -2.7975   -0.4558 O.2       1 <0>        -0.5196
     25 C20        11.5325   -4.0075   -2.3660 C.2       1 <0>        -0.0827
     26 C21        12.7519   -4.5594   -2.6358 C.2       1 <0>        -0.1137
     27 C22        12.6141   -5.2760   -3.8349 C.2       1 <0>        -0.2224
     28 C23        11.3328   -5.1318   -4.2393 C.2       1 <0>        -0.0108
     29 O2         10.6830   -4.3710   -3.3491 O.3       1 <0>        -0.1605
     30 H1         -1.4030   -0.1016    1.4177 H         1 <0>         0.1270
     31 H2         -0.0803   -0.7049    3.4023 H         1 <0>         0.1293
     32 H3          2.2213   -1.5340    3.1464 H         1 <0>         0.1275
     33 H4          1.8701   -1.1419   -1.1083 H         1 <0>         0.1290
     34 H5         -0.4300   -0.3149   -0.8317 H         1 <0>         0.1292
     35 H6          2.1928   -3.4017    2.6264 H         1 <0>         0.1440
     36 H7          3.0835   -5.3331    3.8240 H         1 <0>         0.1347
     37 H8          5.4007   -6.0695    3.4791 H         1 <0>         0.1338
     38 H9          6.8712   -4.8884    1.9299 H         1 <0>         0.1383
     39 H10         8.2320   -4.9331   -0.4227 H         1 <0>         0.0667
     40 H11         6.9061   -4.2725   -1.4150 H         1 <0>         0.0836
     41 H12         9.2327   -4.1203   -2.4738 H         1 <0>         0.1149
     42 H13         8.3546   -2.5731   -2.3545 H         1 <0>         0.0799
     43 H14        10.4947   -1.6217    0.6588 H         1 <0>         0.1048
     44 H15         9.1688   -0.9611   -0.3336 H         1 <0>         0.0789
     45 H16         8.1689   -1.7670    1.7112 H         1 <0>         0.0840
     46 H17         9.0480   -3.3140    1.5974 H         1 <0>         0.0681
     47 H18        13.6487   -4.4633   -2.0417 H         1 <0>         0.1608
     48 H19        13.3869   -5.8367   -4.3396 H         1 <0>         0.1579
     49 H20        10.9028   -5.5621   -5.1317 H         1 <0>         0.2108
@<TRIPOS>BOND
     1    1    6 ar
     2    1    2 ar
     3    1   30 1
     4    2    3 ar
     5    2   31 1
     6    3    4 ar
     7    3   32 1
     8    4    5 ar
     9    4    7 1
    10    5    6 ar
    11    5   33 1
    12    6   34 1
    13    7   16 ar
    14    7    8 ar
    15    8   13 ar
    16    8    9 ar
    17    9   10 ar
    18    9   35 1
    19   10   11 ar
    20   10   36 1
    21   11   12 ar
    22   11   37 1
    23   12   13 ar
    24   12   38 1
    25   13   14 ar
    26   14   15 ar
    27   14   17 1
    28   15   16 ar
    29   17   22 1
    30   17   18 1
    31   18   19 1
    32   18   39 1
    33   18   40 1
    34   19   20 1
    35   19   41 1
    36   19   42 1
    37   20   21 1
    38   20   23 am
    39   21   22 1
    40   21   43 1
    41   21   44 1
    42   22   45 1
    43   22   46 1
    44   23   24 2
    45   23   25 1
    46   25   29 1
    47   25   26 2
    48   26   27 1
    49   26   47 1
    50   27   28 2
    51   27   48 1
    52   28   29 1
    53   28   49 1
@<TRIPOS>MOLECULE
ZINC01114473
   56    60     0     0     0
SMALL
USER_CHARGES

@<TRIPOS>ATOM
      1 C1          1.2680    1.0176    1.8251 C.3       1 <0>        -0.1309
      2 C2          1.1601   -0.4685    1.5994 C.ar      1 <0>        -0.0360
      3 C3          2.3064   -1.2402    1.5332 C.ar      1 <0>        -0.1190
      4 C4          2.2142   -2.6014    1.3267 C.ar      1 <0>        -0.0784
      5 C5          0.9618   -3.1990    1.1845 C.ar      1 <0>        -0.0970
      6 C6         -0.1902   -2.4155    1.2522 C.ar      1 <0>        -0.0565
      7 C7         -0.0851   -1.0562    1.4648 C.ar      1 <0>        -0.1204
      8 C8          0.8558   -4.6592    0.9622 C.ar      1 <0>         0.2617
      9 C9          1.6404   -5.5624    1.7223 C.ar      1 <0>        -0.0427
     10 C10         2.5401   -5.1394    2.7048 C.ar      1 <0>        -0.0902
     11 C11         3.2617   -6.0678    3.3969 C.ar      1 <0>        -0.0435
     12 C12         3.1154   -7.4282    3.1389 C.ar      1 <0>        -0.0753
     13 C13         2.2464   -7.8735    2.1863 C.ar      1 <0>        -0.0514
     14 C14         1.4909   -6.9475    1.4595 C.ar      1 <0>        -0.0834
     15 C15         0.5692   -7.3312    0.4575 C.ar      1 <0>         0.4749
     16 N1         -0.1061   -6.3934   -0.1845 N.ar      1 <0>        -0.2995
     17 N2          0.0241   -5.1420    0.0556 N.ar      1 <0>        -0.2693
     18 N3          0.3776   -8.6683    0.1534 N.pl3     1 <0>        -0.6745
     19 C16        -0.6696   -9.4466    0.8297 C.3       1 <0>         0.1167
     20 C17        -1.5808  -10.0707   -0.2344 C.3       1 <0>         0.0754
     21 N4         -0.7409  -10.7369   -1.2397 N.am      1 <0>        -0.6149
     22 C18         0.3063   -9.9586   -1.9161 C.3       1 <0>         0.0939
     23 C19         1.2138   -9.3331   -0.8559 C.3       1 <0>         0.1187
     24 C20        -0.9274  -12.0385   -1.5357 C.2       1 <0>         0.5681
     25 O1         -0.1520  -12.6104   -2.2767 O.2       1 <0>        -0.5161
     26 C21        -2.0753  -12.7706   -0.9592 C.ar      1 <0>        -0.1414
     27 C22        -3.3008  -12.1261   -0.7832 C.ar      1 <0>        -0.0988
     28 C23        -4.3680  -12.8151   -0.2451 C.ar      1 <0>        -0.1241
     29 C24        -4.2253  -14.1420    0.1202 C.ar      1 <0>        -0.0884
     30 C25        -3.0131  -14.7866   -0.0512 C.ar      1 <0>        -0.1196
     31 C26        -1.9397  -14.1109   -0.5939 C.ar      1 <0>        -0.0612
     32 H1          1.2558    1.2243    2.8953 H         1 <0>         0.0841
     33 H2          2.2002    1.3837    1.3950 H         1 <0>         0.0768
     34 H3          0.4261    1.5196    1.3484 H         1 <0>         0.0767
     35 H4          3.2755   -0.7763    1.6430 H         1 <0>         0.1407
     36 H5          3.1098   -3.2027    1.2748 H         1 <0>         0.1346
     37 H6         -1.1627   -2.8725    1.1429 H         1 <0>         0.1333
     38 H7         -0.9765   -0.4492    1.5221 H         1 <0>         0.1392
     39 H8          2.6633   -4.0871    2.9141 H         1 <0>         0.1653
     40 H9          3.9572   -5.7425    4.1564 H         1 <0>         0.1593
     41 H10         3.6993   -8.1418    3.7012 H         1 <0>         0.1585
     42 H11         2.1426   -8.9313    1.9951 H         1 <0>         0.1583
     43 H12        -0.2113  -10.2349    1.4269 H         1 <0>         0.0945
     44 H13        -1.2551   -8.7901    1.4734 H         1 <0>         0.0945
     45 H14        -2.2415  -10.8011    0.2325 H         1 <0>         0.1237
     46 H15        -2.1734   -9.2903   -0.7119 H         1 <0>         0.0772
     47 H16         0.8918  -10.6151   -2.5597 H         1 <0>         0.1189
     48 H17        -0.1519   -9.1703   -2.5133 H         1 <0>         0.0746
     49 H18         1.8718   -8.6017   -1.3252 H         1 <0>         0.0944
     50 H19         1.8092  -10.1132   -0.3815 H         1 <0>         0.0939
     51 H20        -3.4132  -11.0902   -1.0673 H         1 <0>         0.1294
     52 H21        -5.3168  -12.3177   -0.1085 H         1 <0>         0.1323
     53 H22        -5.0638  -14.6768    0.5413 H         1 <0>         0.1324
     54 H23        -2.9082  -15.8223    0.2364 H         1 <0>         0.1350
     55 H24        -0.9954  -14.6165   -0.7317 H         1 <0>         0.1340
     56 H25        -0.7355   -6.6673   -0.8698 H         1 <0>         0.4616
@<TRIPOS>BOND
     1    1    2 1
     2    1   32 1
     3    1   33 1
     4    1   34 1
     5    2    7 ar
     6    2    3 ar
     7    3    4 ar
     8    3   35 1
     9    4    5 ar
    10    4   36 1
    11    5    6 ar
    12    5    8 1
    13    6    7 ar
    14    6   37 1
    15    7   38 1
    16    8   17 ar
    17    8    9 ar
    18    9   14 ar
    19    9   10 ar
    20   10   11 ar
    21   10   39 1
    22   11   12 ar
    23   11   40 1
    24   12   13 ar
    25   12   41 1
    26   13   14 ar
    27   13   42 1
    28   14   15 ar
    29   15   16 ar
    30   15   18 1
    31   16   17 ar
    32   16   56 1
    33   18   23 1
    34   18   19 1
    35   19   20 1
    36   19   43 1
    37   19   44 1
    38   20   21 1
    39   20   45 1
    40   20   46 1
    41   21   22 1
    42   21   24 am
    43   22   23 1
    44   22   47 1
    45   22   48 1
    46   23   49 1
    47   23   50 1
    48   24   25 2
    49   24   26 1
    50   26   31 ar
    51   26   27 ar
    52   27   28 ar
    53   27   51 1
    54   28   29 ar
    55   28   52 1
    56   29   30 ar
    57   29   53 1
    58   30   31 ar
    59   30   54 1
    60   31   55 1
@<TRIPOS>MOLECULE
ZINC01114473
   56    60     0     0     0
SMALL
USER_CHARGES

@<TRIPOS>ATOM
      1 C1         -0.9993    1.2327    0.9349 C.3       1 <0>        -0.1352
      2 C2         -0.8493   -0.2637    0.8381 C.ar      1 <0>        -0.0209
      3 C3         -1.0534   -0.8995   -0.3735 C.ar      1 <0>        -0.1144
      4 C4         -0.9180   -2.2694   -0.4685 C.ar      1 <0>        -0.0701
      5 C5         -0.5741   -3.0132    0.6604 C.ar      1 <0>        -0.1446
      6 C6         -0.3692   -2.3662    1.8791 C.ar      1 <0>        -0.0601
      7 C7         -0.5025   -0.9952    1.9600 C.ar      1 <0>        -0.1165
      8 C8         -0.4277   -4.4836    0.5655 C.ar      1 <0>         0.2887
      9 C9         -1.0012   -5.3296    1.5477 C.ar      1 <0>        -0.0764
     10 C10        -1.7225   -4.8389    2.6393 C.ar      1 <0>        -0.0673
     11 C11        -2.2462   -5.7153    3.5450 C.ar      1 <0>        -0.0725
     12 C12        -2.0722   -7.0884    3.3979 C.ar      1 <0>        -0.0483
     13 C13        -1.3732   -7.5994    2.3434 C.ar      1 <0>        -0.0721
     14 C14        -0.8242   -6.7285    1.3972 C.ar      1 <0>        -0.0563
     15 C15        -0.0879   -7.1817    0.2776 C.ar      1 <0>         0.4554
     16 N1          0.3986   -6.2928   -0.5714 N.ar      1 <0>        -0.2900
     17 N2          0.2352   -5.0293   -0.4394 N.ar      1 <0>        -0.2859
     18 N3          0.1204   -8.5353    0.0743 N.pl3     1 <0>        -0.6505
     19 C16        -0.7833   -9.3100   -0.7877 C.3       1 <0>         0.1263
     20 C17         0.0494  -10.0034   -1.8731 C.3       1 <0>         0.0810
     21 N4          1.1785  -10.6911   -1.2312 N.am      1 <0>        -0.6109
     22 C18         2.0822   -9.9164   -0.3692 C.3       1 <0>         0.0953
     23 C19         1.2528   -9.2219    0.7117 C.3       1 <0>         0.1274
     24 C20         1.3812  -12.0087   -1.4291 C.2       1 <0>         0.5663
     25 O1          2.2555  -12.5881   -0.8146 O.2       1 <0>        -0.5212
     26 C21         0.5404  -12.7494   -2.3935 C.ar      1 <0>        -0.1374
     27 C22         0.2157  -12.1771   -3.6245 C.ar      1 <0>        -0.0948
     28 C23        -0.5690  -12.8738   -4.5201 C.ar      1 <0>        -0.1240
     29 C24        -1.0342  -14.1369   -4.2001 C.ar      1 <0>        -0.0916
     30 C25        -0.7165  -14.7098   -2.9815 C.ar      1 <0>        -0.1203
     31 C26         0.0725  -14.0263   -2.0794 C.ar      1 <0>        -0.0646
     32 H1         -0.0410    1.7082    0.7256 H         1 <0>         0.0886
     33 H2         -1.7390    1.5714    0.2095 H         1 <0>         0.0803
     34 H3         -1.3263    1.5009    1.9395 H         1 <0>         0.0807
     35 H4         -1.3196   -0.3225   -1.2468 H         1 <0>         0.1455
     36 H5         -1.0783   -2.7647   -1.4147 H         1 <0>         0.1345
     37 H6         -0.1027   -2.9367    2.7565 H         1 <0>         0.1415
     38 H7         -0.3402   -0.4927    2.9020 H         1 <0>         0.1467
     39 H8         -1.8640   -3.7757    2.7653 H         1 <0>         0.1614
     40 H9         -2.8039   -5.3375    4.3892 H         1 <0>         0.1587
     41 H10        -2.4966   -7.7596    4.1298 H         1 <0>         0.1580
     42 H11        -1.2449   -8.6668    2.2406 H         1 <0>         0.1600
     43 H12        -1.3042  -10.0594   -0.1917 H         1 <0>         0.0852
     44 H13        -1.5073   -8.6413   -1.2533 H         1 <0>         0.0881
     45 H14        -0.5691  -10.7295   -2.4007 H         1 <0>         0.1128
     46 H15         0.4256   -9.2602   -2.5761 H         1 <0>         0.0785
     47 H16         2.8062  -10.5851    0.0964 H         1 <0>         0.1121
     48 H17         2.6031   -9.1670   -0.9652 H         1 <0>         0.0757
     49 H18         1.8731   -8.4950    1.2361 H         1 <0>         0.0882
     50 H19         0.8801   -9.9648    1.4169 H         1 <0>         0.0849
     51 H20         0.5777  -11.1909   -3.8751 H         1 <0>         0.1279
     52 H21        -0.8209  -12.4322   -5.4729 H         1 <0>         0.1314
     53 H22        -1.6485  -14.6780   -4.9047 H         1 <0>         0.1311
     54 H23        -1.0832  -15.6959   -2.7377 H         1 <0>         0.1337
     55 H24         0.3239  -14.4766   -1.1304 H         1 <0>         0.1324
     56 H25         0.6210   -4.4428   -1.1088 H         1 <0>         0.4679
@<TRIPOS>BOND
     1    1    2 1
     2    1   32 1
     3    1   33 1
     4    1   34 1
     5    2    7 ar
     6    2    3 ar
     7    3    4 ar
     8    3   35 1
     9    4    5 ar
    10    4   36 1
    11    5    6 ar
    12    5    8 1
    13    6    7 ar
    14    6   37 1
    15    7   38 1
    16    8   17 ar
    17    8    9 ar
    18    9   10 ar
    19    9   14 ar
    20   10   11 ar
    21   10   39 1
    22   11   12 ar
    23   11   40 1
    24   12   13 ar
    25   12   41 1
    26   13   42 1
    27   13   14 ar
    28   14   15 ar
    29   15   16 ar
    30   15   18 1
    31   16   17 ar
    32   17   56 1
    33   18   23 1
    34   18   19 1
    35   19   20 1
    36   19   43 1
    37   19   44 1
    38   20   21 1
    39   20   45 1
    40   20   46 1
    41   21   22 1
    42   21   24 am
    43   22   23 1
    44   22   47 1
    45   22   48 1
    46   23   49 1
    47   23   50 1
    48   24   25 2
    49   24   26 1
    50   26   31 ar
    51   26   27 ar
    52   27   28 ar
    53   27   51 1
    54   28   29 ar
    55   28   52 1
    56   29   30 ar
    57   29   53 1
    58   30   31 ar
    59   30   54 1
    60   31   55 1
@<TRIPOS>MOLECULE
ZINC58538075
   56    59     0     0     0
SMALL
USER_CHARGES

@<TRIPOS>ATOM
      1 C1         -0.3401    1.4785    0.0284 C.3       1 <0>        -0.0767
      2 C2         -0.1370   -0.0147    0.0099 C.2       1 <0>         0.0887
      3 C3         -0.1276   -0.8269   -1.1294 C.2       1 <0>        -0.2227
      4 C4          0.0840   -2.1024   -0.7300 C.2       1 <0>         0.1111
      5 N1          0.2043   -2.0972    0.6169 N.pl3     1 <0>        -0.3276
      6 N2          0.0666   -0.7741    1.0562 N.2       1 <0>        -0.2893
      7 C5          0.4308   -3.2169    1.4293 C.ar      1 <0>         0.1526
      8 C6          1.3486   -4.1836    1.0412 C.ar      1 <0>        -0.1251
      9 C7          1.5696   -5.2858    1.8438 C.ar      1 <0>        -0.1006
     10 C8          0.8778   -5.4269    3.0328 C.ar      1 <0>        -0.1191
     11 C9         -0.0372   -4.4659    3.4218 C.ar      1 <0>        -0.1023
     12 C10        -0.2580   -3.3584    2.6264 C.ar      1 <0>        -0.1089
     13 C11         0.1695   -3.3116   -1.6253 C.3       1 <0>        -0.0917
     14 C12        -0.3199   -0.3632   -2.5503 C.3       1 <0>         0.1366
     15 N3          0.9842   -0.0243   -3.1355 N.3       1 <0>        -0.5285
     16 C13         1.5791    1.1361   -2.4592 C.3       1 <0>         0.0412
     17 C14         3.0079    1.3451   -2.9723 C.3       1 <0>         0.1542
     18 N4          2.9691    1.4331   -4.4399 N.pl3     1 <0>        -0.6681
     19 C15         2.2684    0.3742   -5.1823 C.3       1 <0>         0.1551
     20 C16         0.8688    0.2035   -4.5822 C.3       1 <0>         0.0413
     21 C17         3.5830    2.4962   -5.1123 C.ar      1 <0>         0.1403
     22 C18         4.9060    2.3923   -5.5162 C.ar      1 <0>        -0.0875
     23 C19         5.5099    3.4433   -6.1805 C.ar      1 <0>        -0.1516
     24 C20         4.7985    4.5991   -6.4439 C.ar      1 <0>        -0.0847
     25 C21         3.4794    4.7098   -6.0442 C.ar      1 <0>        -0.2070
     26 C22         2.8653    3.6592   -5.3828 C.ar      1 <0>         0.1179
     27 O1          1.5663    3.7647   -4.9937 O.3       1 <0>        -0.3044
     28 C23         0.8930    4.9861   -5.3048 C.3       1 <0>         0.0254
     29 H1          0.6246    1.9775   -0.0630 H         1 <0>         0.0796
     30 H2         -0.9796    1.7685   -0.8053 H         1 <0>         0.0767
     31 H3         -0.8122    1.7693    0.9668 H         1 <0>         0.0745
     32 H4          1.8889   -4.0742    0.1125 H         1 <0>         0.1306
     33 H5          2.2831   -6.0384    1.5423 H         1 <0>         0.1333
     34 H6          1.0523   -6.2896    3.6587 H         1 <0>         0.1300
     35 H7         -0.5765   -4.5792    4.3506 H         1 <0>         0.1323
     36 H8         -0.9693   -2.6058    2.9331 H         1 <0>         0.1309
     37 H9          1.2125   -3.5051   -1.8759 H         1 <0>         0.0840
     38 H10        -0.2465   -4.1765   -1.1085 H         1 <0>         0.0705
     39 H11        -0.3957   -3.1278   -2.5390 H         1 <0>         0.0866
     40 H12        -0.7836   -1.1594   -3.1327 H         1 <0>         0.0784
     41 H13        -0.9629    0.5168   -2.5614 H         1 <0>         0.0407
     42 H14         0.9836    2.0245   -2.6694 H         1 <0>         0.0387
     43 H15         1.6011    0.9586   -1.3840 H         1 <0>         0.0806
     44 H16         3.4133    2.2694   -2.5606 H         1 <0>         0.0661
     45 H17         3.6315    0.5029   -2.6723 H         1 <0>         0.0533
     46 H18         2.1849    0.6567   -6.2317 H         1 <0>         0.0675
     47 H19         2.8209   -0.5613   -5.0948 H         1 <0>         0.0552
     48 H20         0.3756   -0.6504   -5.0466 H         1 <0>         0.0760
     49 H21         0.2831    1.1049   -4.7629 H         1 <0>         0.0392
     50 H22         5.4642    1.4906   -5.3114 H         1 <0>         0.1283
     51 H23         6.5401    3.3615   -6.4943 H         1 <0>         0.1240
     52 H24         5.2745    5.4180   -6.9629 H         1 <0>         0.1238
     53 H25         2.9265    5.6141   -6.2516 H         1 <0>         0.1264
     54 H26        -0.1330    4.9386   -4.9399 H         1 <0>         0.0973
     55 H27         1.4104    5.8181   -4.8269 H         1 <0>         0.0535
     56 H28         0.8882    5.1335   -6.3848 H         1 <0>         0.0535
@<TRIPOS>BOND
     1    1    2 1
     2    1   29 1
     3    1   30 1
     4    1   31 1
     5    2    6 2
     6    2    3 1
     7    3    4 2
     8    3   14 1
     9    4    5 1
    10    4   13 1
    11    5    6 1
    12    5    7 1
    13    7   12 ar
    14    7    8 ar
    15    8    9 ar
    16    8   32 1
    17    9   10 ar
    18    9   33 1
    19   10   11 ar
    20   10   34 1
    21   11   12 ar
    22   11   35 1
    23   12   36 1
    24   13   37 1
    25   13   38 1
    26   13   39 1
    27   14   15 1
    28   14   40 1
    29   14   41 1
    30   15   20 1
    31   15   16 1
    32   16   17 1
    33   16   42 1
    34   16   43 1
    35   17   18 1
    36   17   44 1
    37   17   45 1
    38   18   19 1
    39   18   21 1
    40   19   20 1
    41   19   46 1
    42   19   47 1
    43   20   48 1
    44   20   49 1
    45   21   26 ar
    46   21   22 ar
    47   22   23 ar
    48   22   50 1
    49   23   24 ar
    50   23   51 1
    51   24   25 ar
    52   24   52 1
    53   25   26 ar
    54   25   53 1
    55   26   27 1
    56   27   28 1
    57   28   54 1
    58   28   55 1
    59   28   56 1
@<TRIPOS>MOLECULE
ZINC58538075
   57    60     0     0     0
SMALL
USER_CHARGES

@<TRIPOS>ATOM
      1 C1         -0.3408    1.4784    0.0286 C.3       1 <0>        -0.0909
      2 C2         -0.1373   -0.0147    0.0100 C.2       1 <0>         0.1019
      3 C3         -0.1280   -0.8269   -1.1293 C.2       1 <0>        -0.3132
      4 C4          0.0840   -2.1024   -0.7300 C.2       1 <0>         0.1411
      5 N1          0.2048   -2.0971    0.6168 N.pl3     1 <0>        -0.3006
      6 N2          0.0669   -0.7741    1.0562 N.2       1 <0>        -0.2659
      7 C5          0.4319   -3.2168    1.4291 C.ar      1 <0>         0.1218
      8 C6          1.3498   -4.1833    1.0407 C.ar      1 <0>        -0.1195
      9 C7          1.5714   -5.2854    1.8431 C.ar      1 <0>        -0.0994
     10 C8          0.8801   -5.4267    3.0323 C.ar      1 <0>        -0.1021
     11 C9         -0.0351   -4.4660    3.4217 C.ar      1 <0>        -0.0987
     12 C10        -0.2564   -3.3586    2.6265 C.ar      1 <0>        -0.0970
     13 C11         0.1695   -3.3115   -1.6254 C.3       1 <0>        -0.1168
     14 C12        -0.3210   -0.3632   -2.5502 C.3       1 <0>         0.0869
     15 N3          0.9827   -0.0239   -3.1359 N.4       1 <0>        -0.3780
     16 C13         1.5570    1.1208   -2.4176 C.3       1 <0>        -0.0264
     17 C14         2.9652    1.4032   -2.9514 C.3       1 <0>         0.1251
     18 N4          2.8844    1.5799   -4.4096 N.pl3     1 <0>        -0.6640
     19 C15         2.1785    0.5550   -5.1940 C.3       1 <0>         0.1239
     20 C16         0.8074    0.3126   -4.5543 C.3       1 <0>        -0.0236
     21 C17         3.4632    2.6914   -5.0330 C.ar      1 <0>         0.1132
     22 C18         4.7757    2.6339   -5.4785 C.ar      1 <0>        -0.0789
     23 C19         5.3449    3.7327   -6.0942 C.ar      1 <0>        -0.1463
     24 C20         4.6092    4.8903   -6.2677 C.ar      1 <0>        -0.0689
     25 C21         3.3003    4.9549   -5.8262 C.ar      1 <0>        -0.2021
     26 C22         2.7209    3.8565   -5.2130 C.ar      1 <0>         0.1241
     27 O1          1.4320    3.9169   -4.7829 O.3       1 <0>        -0.3175
     28 C23         0.7321    5.1436   -5.0011 C.3       1 <0>         0.0225
     29 H1          0.6238    1.9777   -0.0631 H         1 <0>         0.0852
     30 H2         -0.9807    1.7683   -0.8048 H         1 <0>         0.0825
     31 H3         -0.8126    1.7691    0.9672 H         1 <0>         0.0899
     32 H4          1.8897   -4.0737    0.1118 H         1 <0>         0.1291
     33 H5          2.2850   -6.0378    1.5413 H         1 <0>         0.1393
     34 H6          1.0550   -6.2894    3.6582 H         1 <0>         0.1375
     35 H7         -0.5740   -4.5795    4.3507 H         1 <0>         0.1396
     36 H8         -0.9678   -2.6062    2.9334 H         1 <0>         0.1344
     37 H9          1.2125   -3.5049   -1.8760 H         1 <0>         0.0926
     38 H10        -0.2465   -4.1764   -1.1087 H         1 <0>         0.0924
     39 H11        -0.3957   -3.1277   -2.5392 H         1 <0>         0.0926
     40 H12        -0.7847   -1.1595   -3.1324 H         1 <0>         0.1321
     41 H13        -0.9643    0.5167   -2.5610 H         1 <0>         0.1341
     42 H14         0.9280    1.9979   -2.5696 H         1 <0>         0.1335
     43 H15         1.6108    0.8921   -1.3532 H         1 <0>         0.1323
     44 H16         3.3551    2.3122   -2.4933 H         1 <0>         0.1114
     45 H17         3.6199    0.5631   -2.7199 H         1 <0>         0.0735
     46 H18         2.0482    0.9033   -6.2186 H         1 <0>         0.1128
     47 H19         2.7538   -0.3708   -5.1890 H         1 <0>         0.0754
     48 H20         0.3089   -0.5116   -5.0645 H         1 <0>         0.1335
     49 H21         0.2011    1.2142   -4.6417 H         1 <0>         0.1336
     50 H22         5.3528    1.7309   -5.3439 H         1 <0>         0.1310
     51 H23         6.3669    3.6870   -6.4404 H         1 <0>         0.1310
     52 H24         5.0581    5.7466   -6.7491 H         1 <0>         0.1314
     53 H25         2.7284    5.8608   -5.9633 H         1 <0>         0.1329
     54 H26         1.2503    5.9537   -4.4881 H         1 <0>         0.0591
     55 H27         0.6945    5.3553   -6.0696 H         1 <0>         0.0590
     56 H28        -0.2824    5.0572   -4.6119 H         1 <0>         0.1015
     57 H29         1.6033   -0.8152   -3.0534 H         1 <0>         0.4162
@<TRIPOS>BOND
     1    1    2 1
     2    1   29 1
     3    1   30 1
     4    1   31 1
     5    2    6 2
     6    2    3 1
     7    3    4 2
     8    3   14 1
     9    4    5 1
    10    4   13 1
    11    5    6 1
    12    5    7 1
    13    7   12 ar
    14    7    8 ar
    15    8    9 ar
    16    8   32 1
    17    9   10 ar
    18    9   33 1
    19   10   11 ar
    20   10   34 1
    21   11   12 ar
    22   11   35 1
    23   12   36 1
    24   13   37 1
    25   13   38 1
    26   13   39 1
    27   14   15 1
    28   14   40 1
    29   14   41 1
    30   15   20 1
    31   15   16 1
    32   15   57 1
    33   16   17 1
    34   16   42 1
    35   16   43 1
    36   17   18 1
    37   17   44 1
    38   17   45 1
    39   18   19 1
    40   18   21 1
    41   19   20 1
    42   19   46 1
    43   19   47 1
    44   20   48 1
    45   20   49 1
    46   21   26 ar
    47   21   22 ar
    48   22   23 ar
    49   22   50 1
    50   23   24 ar
    51   23   51 1
    52   24   25 ar
    53   24   52 1
    54   25   26 ar
    55   25   53 1
    56   26   27 1
    57   27   28 1
    58   28   54 1
    59   28   55 1
    60   28   56 1
@<TRIPOS>MOLECULE
ZINC58534567
   56    59     0     0     0
SMALL
USER_CHARGES

@<TRIPOS>ATOM
      1 C1         -0.1515    1.2972    0.3701 C.3       1 <0>        -0.0716
      2 C2         -0.1559   -0.2077    0.2909 C.2       1 <0>         0.1053
      3 C3         -0.2018   -0.9668   -0.8834 C.2       1 <0>        -0.2181
      4 C4         -0.1888   -2.2745   -0.5350 C.2       1 <0>         0.0946
      5 N1         -0.1365   -2.3402    0.8145 N.pl3     1 <0>        -0.3268
      6 N2         -0.1118   -1.0295    1.3086 N.2       1 <0>        -0.2887
      7 C5         -0.1071   -3.5128    1.5832 C.ar      1 <0>         0.1432
      8 C6          0.6886   -4.5809    1.1916 C.ar      1 <0>        -0.0974
      9 C7          0.7162   -5.7348    1.9498 C.ar      1 <0>        -0.1334
     10 C8         -0.0495   -5.8271    3.1000 C.ar      1 <0>         0.1019
     11 C9         -0.8442   -4.7628    3.4920 C.ar      1 <0>        -0.1344
     12 C10        -0.8693   -3.6048    2.7399 C.ar      1 <0>        -0.0778
     13 F1         -0.0216   -6.9568    3.8403 F         1 <0>        -0.1326
     14 C11        -0.2265   -3.4468   -1.4812 C.3       1 <0>        -0.1029
     15 C12        -0.2566   -0.4242   -2.2883 C.3       1 <0>         0.1355
     16 N3          1.1095   -0.2485   -2.7990 N.3       1 <0>        -0.5291
     17 C13         1.7882   -1.5434   -2.9430 C.3       1 <0>         0.0377
     18 C14         3.2593   -1.3081   -3.3018 C.3       1 <0>         0.1278
     19 N4          3.3180   -0.4399   -4.4876 N.pl3     1 <0>        -0.6321
     20 C15         2.5496    0.8141   -4.4705 C.3       1 <0>         0.1284
     21 C16         1.1064    0.4953   -4.0657 C.3       1 <0>         0.0399
     22 C17         4.0848   -0.7973   -5.6022 C.ar      1 <0>         0.1892
     23 C18         4.2249    0.0888   -6.6621 C.ar      1 <0>        -0.1603
     24 C19         4.9823   -0.2645   -7.7616 C.ar      1 <0>        -0.1000
     25 C20         5.6029   -1.5041   -7.8073 C.ar      1 <0>         0.0672
     26 C21         5.4632   -2.3900   -6.7493 C.ar      1 <0>        -0.1563
     27 C22         4.7108   -2.0360   -5.6465 C.ar      1 <0>        -0.1626
     28 O1          6.3486   -1.8512   -8.8904 O.3       1 <0>        -0.3220
     29 C23         6.9593   -3.1430   -8.8706 C.3       1 <0>         0.0295
     30 H1          0.8763    1.6594    0.3446 H         1 <0>         0.0822
     31 H2         -0.7023    1.7073   -0.4764 H         1 <0>         0.0785
     32 H3         -0.6252    1.6136    1.2994 H         1 <0>         0.0722
     33 H4          1.2854   -4.5095    0.2942 H         1 <0>         0.1397
     34 H5          1.3351   -6.5659    1.6454 H         1 <0>         0.1474
     35 H6         -1.4413   -4.8369    4.3889 H         1 <0>         0.1470
     36 H7         -1.4852   -2.7731    3.0487 H         1 <0>         0.1431
     37 H8          0.7862   -3.6818   -1.8089 H         1 <0>         0.0848
     38 H9         -0.6534   -4.3110   -0.9722 H         1 <0>         0.0759
     39 H10        -0.8394   -3.1956   -2.3468 H         1 <0>         0.0868
     40 H11        -0.7962   -1.1234   -2.9271 H         1 <0>         0.0403
     41 H12        -0.7703    0.5372   -2.2867 H         1 <0>         0.0857
     42 H13         1.7263   -2.0929   -2.0037 H         1 <0>         0.0856
     43 H14         1.3085   -2.1195   -3.7342 H         1 <0>         0.0373
     44 H15         3.7667   -0.8234   -2.4676 H         1 <0>         0.0671
     45 H16         3.7395   -2.2615   -3.5219 H         1 <0>         0.0823
     46 H17         2.9887    1.5028   -3.7487 H         1 <0>         0.0691
     47 H18         2.5606    1.2638   -5.4634 H         1 <0>         0.0851
     48 H19         0.6362   -0.1092   -4.8413 H         1 <0>         0.0383
     49 H20         0.5501    1.4242   -3.9407 H         1 <0>         0.0868
     50 H21         3.7414    1.0539   -6.6268 H         1 <0>         0.1294
     51 H22         5.0911    0.4244   -8.5862 H         1 <0>         0.1297
     52 H23         5.9465   -3.3551   -6.7859 H         1 <0>         0.1259
     53 H24         4.6060   -2.7240   -4.8207 H         1 <0>         0.1236
     54 H25         7.5232   -3.2925   -9.7913 H         1 <0>         0.0976
     55 H26         7.6329   -3.2134   -8.0165 H         1 <0>         0.0523
     56 H27         6.1877   -3.9085   -8.7887 H         1 <0>         0.0520
@<TRIPOS>BOND
     1    1    2 1
     2    1   30 1
     3    1   31 1
     4    1   32 1
     5    2    6 2
     6    2    3 1
     7    3    4 2
     8    3   15 1
     9    4    5 1
    10    4   14 1
    11    5    6 1
    12    5    7 1
    13    7   12 ar
    14    7    8 ar
    15    8    9 ar
    16    8   33 1
    17    9   10 ar
    18    9   34 1
    19   10   11 ar
    20   10   13 1
    21   11   12 ar
    22   11   35 1
    23   12   36 1
    24   14   37 1
    25   14   38 1
    26   14   39 1
    27   15   16 1
    28   15   40 1
    29   15   41 1
    30   16   21 1
    31   16   17 1
    32   17   18 1
    33   17   42 1
    34   17   43 1
    35   18   19 1
    36   18   44 1
    37   18   45 1
    38   19   20 1
    39   19   22 1
    40   20   21 1
    41   20   46 1
    42   20   47 1
    43   21   48 1
    44   21   49 1
    45   22   27 ar
    46   22   23 ar
    47   23   24 ar
    48   23   50 1
    49   24   25 ar
    50   24   51 1
    51   25   26 ar
    52   25   28 1
    53   26   27 ar
    54   26   52 1
    55   27   53 1
    56   28   29 1
    57   29   54 1
    58   29   55 1
    59   29   56 1
@<TRIPOS>MOLECULE
ZINC58534567
   57    60     0     0     0
SMALL
USER_CHARGES

@<TRIPOS>ATOM
      1 C1         -0.1634    1.3215    0.3482 C.3       1 <0>        -0.0902
      2 C2         -0.1650   -0.1844    0.2910 C.2       1 <0>         0.1070
      3 C3         -0.1967   -0.9607   -0.8725 C.2       1 <0>        -0.3118
      4 C4         -0.1859   -2.2631   -0.5048 C.2       1 <0>         0.1379
      5 N1         -0.1486   -2.3090    0.8460 N.pl3     1 <0>        -0.3003
      6 N2         -0.1312   -0.9912    1.3211 N.2       1 <0>        -0.2648
      7 C5         -0.1264   -3.4702    1.6321 C.ar      1 <0>         0.1107
      8 C6          0.6747   -4.5429    1.2649 C.ar      1 <0>        -0.0896
      9 C7          0.6953   -5.6855    2.0403 C.ar      1 <0>        -0.1346
     10 C8         -0.0829   -5.7619    3.1832 C.ar      1 <0>         0.1222
     11 C9         -0.8830   -4.6930    3.5509 C.ar      1 <0>        -0.1335
     12 C10        -0.9011   -3.5462    2.7816 C.ar      1 <0>        -0.0650
     13 F1         -0.0618   -6.8807    3.9403 F         1 <0>        -0.1237
     14 C11        -0.2114   -3.4493   -1.4340 C.3       1 <0>        -0.1229
     15 C12        -0.2363   -0.4388   -2.2857 C.3       1 <0>         0.0859
     16 N3          1.1352   -0.2687   -2.7835 N.4       1 <0>        -0.3809
     17 C13         1.7920   -1.5797   -2.8611 C.3       1 <0>        -0.0286
     18 C14         3.2568   -1.3926   -3.2702 C.3       1 <0>         0.1032
     19 N4          3.2965   -0.6187   -4.5206 N.pl3     1 <0>        -0.6443
     20 C15         2.5281    0.6341   -4.5852 C.3       1 <0>         0.1018
     21 C16         1.0977    0.3514   -4.1140 C.3       1 <0>        -0.0231
     22 C17         4.0438   -1.0618   -5.6176 C.ar      1 <0>         0.1601
     23 C18         4.1655   -0.2599   -6.7447 C.ar      1 <0>        -0.1429
     24 C19         4.9036   -0.6978   -7.8268 C.ar      1 <0>        -0.1043
     25 C20         5.5231   -1.9382   -7.7879 C.ar      1 <0>         0.0958
     26 C21         5.4016   -2.7400   -6.6627 C.ar      1 <0>        -0.1620
     27 C22         4.6687   -2.3012   -5.5775 C.ar      1 <0>        -0.1450
     28 O1          6.2497   -2.3686   -8.8539 O.3       1 <0>        -0.3163
     29 C23         6.8605   -3.6560   -8.7455 C.3       1 <0>         0.0261
     30 H1          0.8642    1.6847    0.3289 H         1 <0>         0.0862
     31 H2         -0.7051    1.7183   -0.5104 H         1 <0>         0.0830
     32 H3         -0.6479    1.6507    1.2674 H         1 <0>         0.0904
     33 H4          1.2812   -4.4839    0.3732 H         1 <0>         0.1393
     34 H5          1.3184   -6.5202    1.7549 H         1 <0>         0.1533
     35 H6         -1.4898   -4.7547    4.4422 H         1 <0>         0.1539
     36 H7         -1.5213   -2.7109    3.0715 H         1 <0>         0.1461
     37 H8          0.8053   -3.6879   -1.7465 H         1 <0>         0.0929
     38 H9         -0.6433   -4.3063   -0.9174 H         1 <0>         0.0939
     39 H10        -0.8144   -3.2114   -2.3103 H         1 <0>         0.0966
     40 H11        -0.7678   -1.1481   -2.9202 H         1 <0>         0.1319
     41 H12        -0.7512    0.5217   -2.3039 H         1 <0>         0.1391
     42 H13         1.7461   -2.0674   -1.8874 H         1 <0>         0.1338
     43 H14         1.2839   -2.1975   -3.6015 H         1 <0>         0.1328
     44 H15         3.7894   -0.8521   -2.4877 H         1 <0>         0.0848
     45 H16         3.7204   -2.3665   -3.4273 H         1 <0>         0.1232
     46 H17         2.9871    1.3793   -3.9355 H         1 <0>         0.0865
     47 H18         2.5099    1.0001   -5.6117 H         1 <0>         0.1261
     48 H19         0.6106   -0.3249   -4.8165 H         1 <0>         0.1331
     49 H20         0.5401    1.2866   -4.0635 H         1 <0>         0.1418
     50 H21         3.6829    0.7058   -6.7753 H         1 <0>         0.1308
     51 H22         4.9981   -0.0744   -8.7037 H         1 <0>         0.1373
     52 H23         5.8841   -3.7058   -6.6334 H         1 <0>         0.1333
     53 H24         4.5782   -2.9236   -4.6995 H         1 <0>         0.1247
     54 H25         7.4082   -3.8766   -9.6617 H         1 <0>         0.1046
     55 H26         7.5488   -3.6615   -7.9004 H         1 <0>         0.0563
     56 H27         6.0902   -4.4118   -8.5917 H         1 <0>         0.0559
     57 H28         1.6499    0.3257   -2.1512 H         1 <0>         0.4215
@<TRIPOS>BOND
     1    1    2 1
     2    1   30 1
     3    1   31 1
     4    1   32 1
     5    2    6 2
     6    2    3 1
     7    3    4 2
     8    3   15 1
     9    4    5 1
    10    4   14 1
    11    5    6 1
    12    5    7 1
    13    7   12 ar
    14    7    8 ar
    15    8    9 ar
    16    8   33 1
    17    9   10 ar
    18    9   34 1
    19   10   11 ar
    20   10   13 1
    21   11   12 ar
    22   11   35 1
    23   12   36 1
    24   14   37 1
    25   14   38 1
    26   14   39 1
    27   15   16 1
    28   15   40 1
    29   15   41 1
    30   16   21 1
    31   16   17 1
    32   16   57 1
    33   17   18 1
    34   17   42 1
    35   17   43 1
    36   18   19 1
    37   18   44 1
    38   18   45 1
    39   19   20 1
    40   19   22 1
    41   20   21 1
    42   20   46 1
    43   20   47 1
    44   21   48 1
    45   21   49 1
    46   22   27 ar
    47   22   23 ar
    48   23   24 ar
    49   23   50 1
    50   24   25 ar
    51   24   51 1
    52   25   26 ar
    53   25   28 1
    54   26   27 ar
    55   26   52 1
    56   27   53 1
    57   28   29 1
    58   29   54 1
    59   29   55 1
    60   29   56 1
@<TRIPOS>MOLECULE
ZINC58538132
   56    59     0     0     0
SMALL
USER_CHARGES

@<TRIPOS>ATOM
      1 C1         -0.1522    1.2866    0.3832 C.3       1 <0>        -0.0715
      2 C2         -0.1560   -0.2178    0.2962 C.2       1 <0>         0.1053
      3 C3         -0.2044   -0.9709   -0.8819 C.2       1 <0>        -0.2187
      4 C4         -0.1898   -2.2803   -0.5403 C.2       1 <0>         0.0952
      5 N1         -0.1340   -2.3530    0.8086 N.pl3     1 <0>        -0.3267
      6 N2         -0.1089   -1.0449    1.3095 N.2       1 <0>        -0.2888
      7 C5         -0.1020   -3.5296    1.5712 C.ar      1 <0>         0.1431
      8 C6          0.6934   -4.5951    1.1721 C.ar      1 <0>        -0.0972
      9 C7          0.7236   -5.7529    1.9243 C.ar      1 <0>        -0.1332
     10 C8         -0.0393   -5.8516    3.0758 C.ar      1 <0>         0.1019
     11 C9         -0.8337   -4.7900    3.4753 C.ar      1 <0>        -0.1346
     12 C10        -0.8614   -3.6281    2.7292 C.ar      1 <0>        -0.0779
     13 F1         -0.0089   -6.9852    3.8102 F         1 <0>        -0.1326
     14 C11        -0.2291   -3.4478   -1.4925 C.3       1 <0>        -0.1033
     15 C12        -0.2630   -0.4210   -2.2838 C.3       1 <0>         0.1357
     16 N3          1.1017   -0.2419   -2.7970 N.3       1 <0>        -0.5295
     17 C13         1.7808   -1.5356   -2.9495 C.3       1 <0>         0.0377
     18 C14         3.2508   -1.2976   -3.3107 C.3       1 <0>         0.1239
     19 N4          3.3060   -0.4232   -4.4921 N.pl3     1 <0>        -0.6260
     20 C15         2.5369    0.8302   -4.4667 C.3       1 <0>         0.1267
     21 C16         1.0950    0.5084   -4.0599 C.3       1 <0>         0.0398
     22 C17         4.0688   -0.7737   -5.6084 C.ar      1 <0>         0.2579
     23 C18         4.2063    0.1183   -6.6651 C.ar      1 <0>        -0.2347
     24 C19         4.9607   -0.2285   -7.7688 C.ar      1 <0>        -0.0320
     25 C20         5.5808   -1.4624   -7.8254 C.ar      1 <0>        -0.2675
     26 C21         5.4474   -2.3571   -6.7730 C.ar      1 <0>         0.1732
     27 C22         4.6951   -2.0111   -5.6613 C.ar      1 <0>        -0.2368
     28 O1          6.0578   -3.5699   -6.8302 O.3       1 <0>        -0.3195
     29 C23         6.8210   -3.8574   -8.0037 C.3       1 <0>         0.0287
     30 H1          0.8753    1.6495    0.3570 H         1 <0>         0.0822
     31 H2         -0.7054    1.7007   -0.4598 H         1 <0>         0.0784
     32 H3         -0.6238    1.5979    1.3153 H         1 <0>         0.0721
     33 H4          1.2880   -4.5187    0.2737 H         1 <0>         0.1400
     34 H5          1.3423   -6.5820    1.6141 H         1 <0>         0.1476
     35 H6         -1.4286   -4.8691    4.3733 H         1 <0>         0.1469
     36 H7         -1.4770   -2.7984    3.0439 H         1 <0>         0.1431
     37 H8          0.7828   -3.6804   -1.8241 H         1 <0>         0.0854
     38 H9         -0.6541   -4.3149   -0.9868 H         1 <0>         0.0760
     39 H10        -0.8446   -3.1925   -2.3551 H         1 <0>         0.0869
     40 H11        -0.8038   -1.1172   -2.9249 H         1 <0>         0.0406
     41 H12        -0.7773    0.5400   -2.2759 H         1 <0>         0.0859
     42 H13         1.7216   -2.0901   -2.0129 H         1 <0>         0.0868
     43 H14         1.2994   -2.1079   -3.7425 H         1 <0>         0.0383
     44 H15         3.7600   -0.8169   -2.4754 H         1 <0>         0.0697
     45 H16         3.7310   -2.2496   -3.5370 H         1 <0>         0.0861
     46 H17         2.9775    1.5154   -3.7424 H         1 <0>         0.0713
     47 H18         2.5451    1.2850   -5.4572 H         1 <0>         0.0877
     48 H19         0.6232   -0.0923   -4.8374 H         1 <0>         0.0389
     49 H20         0.5384    1.4364   -3.9286 H         1 <0>         0.0878
     50 H21         3.7228    1.0831   -6.6234 H         1 <0>         0.1234
     51 H22         5.0659    0.4657   -8.5894 H         1 <0>         0.1234
     52 H23         6.1697   -1.7308   -8.6900 H         1 <0>         0.1233
     53 H24         4.5936   -2.7046   -4.8396 H         1 <0>         0.1285
     54 H25         7.2534   -4.8545   -7.9206 H         1 <0>         0.0992
     55 H26         6.1723   -3.8144   -8.8786 H         1 <0>         0.0560
     56 H27         7.6194   -3.1225   -8.1069 H         1 <0>         0.0563
@<TRIPOS>BOND
     1    1    2 1
     2    1   30 1
     3    1   31 1
     4    1   32 1
     5    2    6 2
     6    2    3 1
     7    3    4 2
     8    3   15 1
     9    4    5 1
    10    4   14 1
    11    5    6 1
    12    5    7 1
    13    7   12 ar
    14    7    8 ar
    15    8    9 ar
    16    8   33 1
    17    9   10 ar
    18    9   34 1
    19   10   11 ar
    20   10   13 1
    21   11   12 ar
    22   11   35 1
    23   12   36 1
    24   14   37 1
    25   14   38 1
    26   14   39 1
    27   15   16 1
    28   15   40 1
    29   15   41 1
    30   16   21 1
    31   16   17 1
    32   17   18 1
    33   17   42 1
    34   17   43 1
    35   18   19 1
    36   18   44 1
    37   18   45 1
    38   19   20 1
    39   19   22 1
    40   20   21 1
    41   20   46 1
    42   20   47 1
    43   21   48 1
    44   21   49 1
    45   22   27 ar
    46   22   23 ar
    47   23   24 ar
    48   23   50 1
    49   24   25 ar
    50   24   51 1
    51   25   26 ar
    52   25   52 1
    53   26   27 ar
    54   26   28 1
    55   27   53 1
    56   28   29 1
    57   29   54 1
    58   29   55 1
    59   29   56 1
@<TRIPOS>MOLECULE
ZINC58538132
   57    60     0     0     0
SMALL
USER_CHARGES

@<TRIPOS>ATOM
      1 C1         -0.1641    1.3107    0.3616 C.3       1 <0>        -0.0901
      2 C2         -0.1658   -0.1950    0.2975 C.2       1 <0>         0.1068
      3 C3         -0.2002   -0.9660   -0.8694 C.2       1 <0>        -0.3123
      4 C4         -0.1885   -2.2700   -0.5077 C.2       1 <0>         0.1383
      5 N1         -0.1480   -2.3220    0.8428 N.pl3     1 <0>        -0.3001
      6 N2         -0.1295   -1.0065    1.3238 N.2       1 <0>        -0.2648
      7 C5         -0.1238   -3.4868    1.6236 C.ar      1 <0>         0.1105
      8 C6          0.6766   -4.5577    1.2496 C.ar      1 <0>        -0.0894
      9 C7          0.6991   -5.7039    2.0197 C.ar      1 <0>        -0.1344
     10 C8         -0.0765   -5.7856    3.1641 C.ar      1 <0>         0.1222
     11 C9         -0.8759   -4.7185    3.5385 C.ar      1 <0>        -0.1337
     12 C10        -0.8959   -3.5682    2.7745 C.ar      1 <0>        -0.0651
     13 F1         -0.0536   -6.9078    3.9160 F         1 <0>        -0.1237
     14 C11        -0.2162   -3.4519   -1.4423 C.3       1 <0>        -0.1234
     15 C12        -0.2433   -0.4377   -2.2801 C.3       1 <0>         0.0860
     16 N3          1.1271   -0.2652   -2.7804 N.4       1 <0>        -0.3814
     17 C13         1.7837   -1.5758   -2.8656 C.3       1 <0>        -0.0284
     18 C14         3.2475   -1.3868   -3.2773 C.3       1 <0>         0.0996
     19 N4          3.2842   -0.6071   -4.5243 N.pl3     1 <0>        -0.6408
     20 C15         2.5155    0.6459   -4.5813 C.3       1 <0>         0.1006
     21 C16         1.0863    0.3609   -4.1080 C.3       1 <0>        -0.0230
     22 C17         4.0274   -1.0444   -5.6230 C.ar      1 <0>         0.2370
     23 C18         4.1470   -0.2371   -6.7478 C.ar      1 <0>        -0.2237
     24 C19         4.8820   -0.6697   -7.8342 C.ar      1 <0>        -0.0299
     25 C20         5.5005   -1.9054   -7.8057 C.ar      1 <0>        -0.2466
     26 C21         5.3849   -2.7157   -6.6851 C.ar      1 <0>         0.1764
     27 C22         4.6522   -2.2833   -5.5907 C.ar      1 <0>        -0.2253
     28 O1          5.9937   -3.9304   -6.6586 O.3       1 <0>        -0.3163
     29 C23         6.7364   -4.3092   -7.8192 C.3       1 <0>         0.0252
     30 H1          0.8634    1.6740    0.3415 H         1 <0>         0.0861
     31 H2         -0.7079    1.7113   -0.4939 H         1 <0>         0.0829
     32 H3         -0.6464    1.6356    1.2834 H         1 <0>         0.0903
     33 H4          1.2810   -4.4947    0.3568 H         1 <0>         0.1396
     34 H5          1.3216   -6.5372    1.7291 H         1 <0>         0.1535
     35 H6         -1.4806   -4.7842    4.4309 H         1 <0>         0.1538
     36 H7         -1.5155   -2.7342    3.0696 H         1 <0>         0.1460
     37 H8          0.7997   -3.6889   -1.7585 H         1 <0>         0.0934
     38 H9         -0.6466   -4.3114   -0.9284 H         1 <0>         0.0940
     39 H10        -0.8215   -3.2103   -2.3159 H         1 <0>         0.0967
     40 H11        -0.7762   -1.1441   -2.9165 H         1 <0>         0.1321
     41 H12        -0.7583    0.5229   -2.2928 H         1 <0>         0.1393
     42 H13         1.7401   -2.0679   -1.8940 H         1 <0>         0.1350
     43 H14         1.2739   -2.1902   -3.6076 H         1 <0>         0.1337
     44 H15         3.7820   -0.8498   -2.4937 H         1 <0>         0.0874
     45 H16         3.7108   -2.3599   -3.4400 H         1 <0>         0.1266
     46 H17         2.9761    1.3881   -3.9294 H         1 <0>         0.0886
     47 H18         2.4949    1.0166   -5.6061 H         1 <0>         0.1285
     48 H19         0.5976   -0.3121   -4.8124 H         1 <0>         0.1337
     49 H20         0.5288    1.2959   -4.0520 H         1 <0>         0.1428
     50 H21         3.6647    0.7289   -6.7727 H         1 <0>         0.1252
     51 H22         4.9734   -0.0413   -8.7078 H         1 <0>         0.1313
     52 H23         6.0743   -2.2410   -8.6569 H         1 <0>         0.1316
     53 H24         4.5645   -2.9108   -4.7161 H         1 <0>         0.1299
     54 H25         7.1697   -5.2976   -7.6666 H         1 <0>         0.1054
     55 H26         6.0727   -4.3330   -8.6835 H         1 <0>         0.0601
     56 H27         7.5332   -3.5860   -7.9928 H         1 <0>         0.0604
     57 H28         1.6433    0.3264   -2.1467 H         1 <0>         0.4216
@<TRIPOS>BOND
     1    1    2 1
     2    1   30 1
     3    1   31 1
     4    1   32 1
     5    2    6 2
     6    2    3 1
     7    3    4 2
     8    3   15 1
     9    4    5 1
    10    4   14 1
    11    5    6 1
    12    5    7 1
    13    7   12 ar
    14    7    8 ar
    15    8    9 ar
    16    8   33 1
    17    9   10 ar
    18    9   34 1
    19   10   11 ar
    20   10   13 1
    21   11   12 ar
    22   11   35 1
    23   12   36 1
    24   14   37 1
    25   14   38 1
    26   14   39 1
    27   15   16 1
    28   15   40 1
    29   15   41 1
    30   16   21 1
    31   16   17 1
    32   16   57 1
    33   17   18 1
    34   17   42 1
    35   17   43 1
    36   18   19 1
    37   18   44 1
    38   18   45 1
    39   19   20 1
    40   19   22 1
    41   20   21 1
    42   20   46 1
    43   20   47 1
    44   21   48 1
    45   21   49 1
    46   22   27 ar
    47   22   23 ar
    48   23   24 ar
    49   23   50 1
    50   24   25 ar
    51   24   51 1
    52   25   26 ar
    53   25   52 1
    54   26   27 ar
    55   26   28 1
    56   27   53 1
    57   28   29 1
    58   29   54 1
    59   29   55 1
    60   29   56 1
@<TRIPOS>MOLECULE
ZINC58604152
   49    52     0     0     0
SMALL
USER_CHARGES

@<TRIPOS>ATOM
      1 C1          0.0199    1.4931    0.0445 C.3       1 <0>        -0.0797
      2 C2          0.0322   -0.0137    0.0256 C.2       1 <0>         0.0939
      3 C3          0.0240   -0.8181   -1.1189 C.2       1 <0>        -0.1977
      4 C4          0.0399   -2.1125   -0.7195 C.2       1 <0>         0.1452
      5 N1          0.0576   -2.1229    0.6384 N.pl3     1 <0>        -0.3172
      6 N2          0.0580   -0.7924    1.0769 N.2       1 <0>        -0.2619
      7 C5          0.0777   -3.2619    1.4554 C.ar      1 <0>         0.1428
      8 C6         -0.6024   -4.4084    1.0673 C.ar      1 <0>        -0.1265
      9 C7         -0.5808   -5.5290    1.8744 C.ar      1 <0>        -0.0976
     10 C8          0.1169   -5.5096    3.0681 C.ar      1 <0>        -0.1157
     11 C9          0.7949   -4.3691    3.4576 C.ar      1 <0>        -0.1009
     12 C10         0.7824   -3.2475    2.6515 C.ar      1 <0>        -0.1050
     13 Cl1         0.0380   -3.5053   -1.7557 Cl        1 <0>         0.0114
     14 C11         0.0006   -0.3306   -2.5447 C.3       1 <0>         0.1326
     15 N3          1.3778   -0.1601   -3.0265 N.3       1 <0>        -0.5300
     16 C12         2.0627    0.9133   -2.2938 C.3       1 <0>         0.0364
     17 C13         3.5412    0.9388   -2.6958 C.3       1 <0>         0.1252
     18 N4          3.6254    1.0342   -4.1611 N.pl3     1 <0>        -0.6278
     19 C14         2.8539    0.0752   -4.9663 C.3       1 <0>         0.1262
     20 C15         1.4025    0.0837   -4.4749 C.3       1 <0>         0.0404
     21 C16         4.4174    2.0109   -4.7724 C.ar      1 <0>         0.2141
     22 C17         5.0486    2.9777   -4.0005 C.ar      1 <0>        -0.1745
     23 C18         5.8309    3.9413   -4.6064 C.ar      1 <0>        -0.1007
     24 C19         5.9861    3.9439   -5.9824 C.ar      1 <0>         0.0329
     25 C20         5.3578    2.9810   -6.7539 C.ar      1 <0>        -0.1008
     26 C21         4.5788    2.0124   -6.1517 C.ar      1 <0>        -0.1739
     27 F1          6.7514    4.8877   -6.5730 F         1 <0>        -0.1466
     28 H1          1.0444    1.8650    0.0306 H         1 <0>         0.0842
     29 H2         -0.5128    1.8631   -0.8315 H         1 <0>         0.0812
     30 H3         -0.4807    1.8411    0.9480 H         1 <0>         0.0810
     31 H4         -1.1480   -4.4238    0.1354 H         1 <0>         0.1318
     32 H5         -1.1096   -6.4211    1.5730 H         1 <0>         0.1351
     33 H6          0.1321   -6.3870    3.6977 H         1 <0>         0.1319
     34 H7          1.3386   -4.3568    4.3906 H         1 <0>         0.1347
     35 H8          1.3164   -2.3587    2.9537 H         1 <0>         0.1343
     36 H9         -0.5152   -1.0597   -3.1695 H         1 <0>         0.0865
     37 H10        -0.5223    0.6245   -2.5936 H         1 <0>         0.0510
     38 H11         1.6029    1.8710   -2.5376 H         1 <0>         0.0414
     39 H12         1.9803    0.7321   -1.2221 H         1 <0>         0.0891
     40 H13         4.0286    1.8028   -2.2440 H         1 <0>         0.0861
     41 H14         4.0279    0.0232   -2.3599 H         1 <0>         0.0699
     42 H15         2.8869    0.3682   -6.0157 H         1 <0>         0.0868
     43 H16         3.2745   -0.9235   -4.8487 H         1 <0>         0.0716
     44 H17         0.8412   -0.6992   -4.9850 H         1 <0>         0.0877
     45 H18         0.9518    1.0529   -4.6884 H         1 <0>         0.0410
     46 H19         4.9275    2.9762   -2.9273 H         1 <0>         0.1315
     47 H20         6.3216    4.6935   -4.0066 H         1 <0>         0.1335
     48 H21         5.4799    2.9852   -7.8269 H         1 <0>         0.1336
     49 H22         4.0925    1.2588   -6.7535 H         1 <0>         0.1317
@<TRIPOS>BOND
     1    1    2 1
     2    1   28 1
     3    1   29 1
     4    1   30 1
     5    2    6 2
     6    2    3 1
     7    3    4 2
     8    3   14 1
     9    4    5 1
    10    4   13 1
    11    5    6 1
    12    5    7 1
    13    7   12 ar
    14    7    8 ar
    15    8    9 ar
    16    8   31 1
    17    9   10 ar
    18    9   32 1
    19   10   11 ar
    20   10   33 1
    21   11   12 ar
    22   11   34 1
    23   12   35 1
    24   14   15 1
    25   14   36 1
    26   14   37 1
    27   15   20 1
    28   15   16 1
    29   16   17 1
    30   16   38 1
    31   16   39 1
    32   17   18 1
    33   17   40 1
    34   17   41 1
    35   18   19 1
    36   18   21 1
    37   19   20 1
    38   19   42 1
    39   19   43 1
    40   20   44 1
    41   20   45 1
    42   21   26 ar
    43   21   22 ar
    44   22   23 ar
    45   22   46 1
    46   23   24 ar
    47   23   47 1
    48   24   25 ar
    49   24   27 1
    50   25   26 ar
    51   25   48 1
    52   26   49 1
@<TRIPOS>MOLECULE
ZINC58604152
   50    53     0     0     0
SMALL
USER_CHARGES

@<TRIPOS>ATOM
      1 C1          0.0192    1.4930    0.0432 C.3       1 <0>        -0.0936
      2 C2          0.0324   -0.0138    0.0251 C.2       1 <0>         0.1080
      3 C3          0.0245   -0.8188   -1.1190 C.2       1 <0>        -0.2895
      4 C4          0.0412   -2.1130   -0.7190 C.2       1 <0>         0.1623
      5 N1          0.0591   -2.1227    0.6389 N.pl3     1 <0>        -0.2856
      6 N2          0.0588   -0.7920    1.0768 N.2       1 <0>        -0.2398
      7 C5          0.0800   -3.2612    1.4565 C.ar      1 <0>         0.1099
      8 C6         -0.5995   -4.4083    1.0691 C.ar      1 <0>        -0.1176
      9 C7         -0.5771   -5.5285    1.8767 C.ar      1 <0>        -0.0963
     10 C8          0.1207   -5.5081    3.0704 C.ar      1 <0>        -0.0972
     11 C9          0.7980   -4.3670    3.4591 C.ar      1 <0>        -0.0991
     12 C10         0.7848   -3.2458    2.6525 C.ar      1 <0>        -0.0931
     13 Cl1         0.0400   -3.5064   -1.7545 Cl        1 <0>         0.0287
     14 C11         0.0007   -0.3321   -2.5451 C.3       1 <0>         0.0824
     15 N3          1.3777   -0.1609   -3.0271 N.4       1 <0>        -0.3830
     16 C12         2.0365    0.9000   -2.2548 C.3       1 <0>        -0.0296
     17 C13         3.5056    1.0013   -2.6779 C.3       1 <0>         0.1009
     18 N4          3.5592    1.1892   -4.1360 N.pl3     1 <0>        -0.6426
     19 C14         2.7904    0.2639   -4.9828 C.3       1 <0>         0.1000
     20 C15         1.3550    0.1974   -4.4509 C.3       1 <0>        -0.0236
     21 C16         4.3195    2.2176   -4.7009 C.ar      1 <0>         0.1886
     22 C17         4.9476    3.1479   -3.8832 C.ar      1 <0>        -0.1580
     23 C18         5.6986    4.1627   -4.4434 C.ar      1 <0>        -0.1042
     24 C19         5.8253    4.2531   -5.8193 C.ar      1 <0>         0.0633
     25 C20         5.1999    3.3267   -6.6365 C.ar      1 <0>        -0.1042
     26 C21         4.4523    2.3071   -6.0804 C.ar      1 <0>        -0.1571
     27 F1          6.5600    5.2468   -6.3652 F         1 <0>        -0.1359
     28 H1          1.0435    1.8655    0.0289 H         1 <0>         0.0899
     29 H2         -0.5139    1.8623   -0.8330 H         1 <0>         0.0872
     30 H3         -0.4815    1.8412    0.9466 H         1 <0>         0.0963
     31 H4         -1.1452   -4.4246    0.1372 H         1 <0>         0.1322
     32 H5         -1.1055   -6.4211    1.5759 H         1 <0>         0.1417
     33 H6          0.1365   -6.3851    3.7005 H         1 <0>         0.1396
     34 H7          1.3419   -4.3539    4.3921 H         1 <0>         0.1418
     35 H8          1.3183   -2.3565    2.9542 H         1 <0>         0.1374
     36 H9         -0.5148   -1.0618   -3.1695 H         1 <0>         0.1378
     37 H10        -0.5229    0.6227   -2.5944 H         1 <0>         0.1447
     38 H11         1.5374    1.8505   -2.4439 H         1 <0>         0.1374
     39 H12         1.9797    0.6647   -1.1920 H         1 <0>         0.1390
     40 H13         3.9719    1.8525   -2.1816 H         1 <0>         0.1273
     41 H14         4.0288    0.0842   -2.4073 H         1 <0>         0.0872
     42 H15         2.7838    0.6275   -6.0103 H         1 <0>         0.1282
     43 H16         3.2414   -0.7277   -4.9450 H         1 <0>         0.0886
     44 H17         0.7961   -0.5556   -5.0064 H         1 <0>         0.1427
     45 H18         0.8766    1.1692   -4.5735 H         1 <0>         0.1368
     46 H19         4.8488    3.0780   -2.8100 H         1 <0>         0.1331
     47 H20         6.1870    4.8866   -3.8079 H         1 <0>         0.1417
     48 H21         5.2998    3.3992   -7.7095 H         1 <0>         0.1418
     49 H22         3.9683    1.5821   -6.7181 H         1 <0>         0.1337
     50 H23         1.8846   -1.0251   -2.9071 H         1 <0>         0.4197
@<TRIPOS>BOND
     1    1    2 1
     2    1   28 1
     3    1   29 1
     4    1   30 1
     5    2    6 2
     6    2    3 1
     7    3    4 2
     8    3   14 1
     9    4    5 1
    10    4   13 1
    11    5    6 1
    12    5    7 1
    13    7   12 ar
    14    7    8 ar
    15    8    9 ar
    16    8   31 1
    17    9   10 ar
    18    9   32 1
    19   10   11 ar
    20   10   33 1
    21   11   12 ar
    22   11   34 1
    23   12   35 1
    24   14   15 1
    25   14   36 1
    26   14   37 1
    27   15   20 1
    28   15   16 1
    29   15   50 1
    30   16   17 1
    31   16   38 1
    32   16   39 1
    33   17   18 1
    34   17   40 1
    35   17   41 1
    36   18   19 1
    37   18   21 1
    38   19   20 1
    39   19   42 1
    40   19   43 1
    41   20   44 1
    42   20   45 1
    43   21   26 ar
    44   21   22 ar
    45   22   23 ar
    46   22   46 1
    47   23   24 ar
    48   23   47 1
    49   24   25 ar
    50   24   27 1
    51   25   26 ar
    52   25   48 1
    53   26   49 1
@<TRIPOS>MOLECULE
ZINC58523811
   53    56     0     0     0
SMALL
USER_CHARGES

@<TRIPOS>ATOM
      1 C1         -0.0168    1.5005    0.0123 C.3       1 <0>        -0.0927
      2 C2         -0.0098   -0.0063   -0.0081 C.2       1 <0>         0.1140
      3 C3         -0.0085   -0.7896   -1.1116 C.2       1 <0>        -0.2306
      4 C4         -0.0005   -2.1245   -0.6923 C.2       1 <0>         0.0624
      5 N1          0.0029   -2.1429    0.6163 N.2       1 <0>        -0.2888
      6 N2          0.0023   -0.8186    1.0730 N.pl3     1 <0>        -0.3248
      7 C5          0.0105   -0.4080    2.4133 C.ar      1 <0>         0.1523
      8 C6          0.6922    0.7432    2.7840 C.ar      1 <0>        -0.1317
      9 C7          0.6981    1.1454    4.1053 C.ar      1 <0>        -0.0987
     10 C8          0.0259    0.4028    5.0586 C.ar      1 <0>        -0.1211
     11 C9         -0.6540   -0.7443    4.6924 C.ar      1 <0>        -0.1003
     12 C10        -0.6679   -1.1487    3.3718 C.ar      1 <0>        -0.1116
     13 C11        -0.0151   -0.3090   -2.5399 C.3       1 <0>         0.1365
     14 N3          1.3457    0.0826   -2.9310 N.3       1 <0>        -0.5316
     15 C12         2.2431   -1.0802   -2.9501 C.3       1 <0>         0.0430
     16 C13         3.6819   -0.6071   -3.1834 C.3       1 <0>         0.1295
     17 N4          3.7102    0.2205   -4.3990 N.pl3     1 <0>        -0.6324
     18 C14         2.7442    1.3237   -4.5124 C.3       1 <0>         0.1283
     19 C15         1.3424    0.7746   -4.2268 C.3       1 <0>         0.0393
     20 C16         4.6322   -0.0348   -5.4203 C.ar      1 <0>         0.1891
     21 C17         4.5708    0.6836   -6.6071 C.ar      1 <0>        -0.1611
     22 C18         5.4815    0.4313   -7.6143 C.ar      1 <0>        -0.1003
     23 C19         6.4571   -0.5391   -7.4407 C.ar      1 <0>         0.0670
     24 C20         6.5188   -1.2574   -6.2558 C.ar      1 <0>        -0.1561
     25 C21         5.6126   -1.0025   -5.2453 C.ar      1 <0>        -0.1617
     26 O1          7.3534   -0.7869   -8.4331 O.3       1 <0>        -0.3222
     27 C22         8.3308   -1.7997   -8.1866 C.3       1 <0>         0.0294
     28 H1          1.0092    1.8687    0.0099 H         1 <0>         0.0863
     29 H2         -0.5387    1.8734   -0.8690 H         1 <0>         0.0868
     30 H3         -0.5258    1.8493    0.9108 H         1 <0>         0.0713
     31 H4          0.0024   -2.9906   -1.3375 H         1 <0>         0.1841
     32 H5          1.2178    1.3235    2.0400 H         1 <0>         0.1329
     33 H6          1.2285    2.0407    4.3944 H         1 <0>         0.1337
     34 H7          0.0321    0.7191    6.0912 H         1 <0>         0.1302
     35 H8         -1.1779   -1.3225    5.4392 H         1 <0>         0.1327
     36 H9         -1.2025   -2.0425    3.0858 H         1 <0>         0.1326
     37 H10        -0.3639   -1.1103   -3.1912 H         1 <0>         0.0437
     38 H11        -0.6806    0.5494   -2.6313 H         1 <0>         0.0814
     39 H12         2.1823   -1.6024   -1.9953 H         1 <0>         0.0853
     40 H13         1.9473   -1.7548   -3.7535 H         1 <0>         0.0374
     41 H14         4.0159   -0.0163   -2.3304 H         1 <0>         0.0659
     42 H15         4.3348   -1.4702   -3.3128 H         1 <0>         0.0823
     43 H16         2.9881    2.1000   -3.7872 H         1 <0>         0.0681
     44 H17         2.7772    1.7371   -5.5205 H         1 <0>         0.0852
     45 H18         1.0591    0.0741   -5.0125 H         1 <0>         0.0388
     46 H19         0.6283    1.5975   -4.1979 H         1 <0>         0.0853
     47 H20         3.8110    1.4390   -6.7426 H         1 <0>         0.1293
     48 H21         5.4337    0.9897   -8.5376 H         1 <0>         0.1295
     49 H22         7.2786   -2.0131   -6.1216 H         1 <0>         0.1260
     50 H23         5.6638   -1.5586   -4.3208 H         1 <0>         0.1240
     51 H24         8.9264   -1.5257   -7.3157 H         1 <0>         0.0523
     52 H25         7.8304   -2.7499   -8.0000 H         1 <0>         0.0521
     53 H26         8.9813   -1.8962   -9.0558 H         1 <0>         0.0976
@<TRIPOS>BOND
     1    1    2 1
     2    1   28 1
     3    1   29 1
     4    1   30 1
     5    2    6 1
     6    2    3 2
     7    3    4 1
     8    3   13 1
     9    4    5 2
    10    4   31 1
    11    5    6 1
    12    6    7 1
    13    7   12 ar
    14    7    8 ar
    15    8    9 ar
    16    8   32 1
    17    9   10 ar
    18    9   33 1
    19   10   11 ar
    20   10   34 1
    21   11   12 ar
    22   11   35 1
    23   12   36 1
    24   13   14 1
    25   13   37 1
    26   13   38 1
    27   14   19 1
    28   14   15 1
    29   15   16 1
    30   15   39 1
    31   15   40 1
    32   16   17 1
    33   16   41 1
    34   16   42 1
    35   17   18 1
    36   17   20 1
    37   18   19 1
    38   18   43 1
    39   18   44 1
    40   19   45 1
    41   19   46 1
    42   20   25 ar
    43   20   21 ar
    44   21   22 ar
    45   21   47 1
    46   22   23 ar
    47   22   48 1
    48   23   24 ar
    49   23   26 1
    50   24   25 ar
    51   24   49 1
    52   25   50 1
    53   26   27 1
    54   27   51 1
    55   27   52 1
    56   27   53 1
@<TRIPOS>MOLECULE
ZINC58523811
   54    57     0     0     0
SMALL
USER_CHARGES

@<TRIPOS>ATOM
      1 C1         -0.0186    1.5003    0.0109 C.3       1 <0>        -0.1215
      2 C2         -0.0110   -0.0065   -0.0088 C.2       1 <0>         0.1337
      3 C3         -0.0089   -0.7903   -1.1119 C.2       1 <0>        -0.3154
      4 C4         -0.0007   -2.1250   -0.6921 C.2       1 <0>         0.0783
      5 N1          0.0020   -2.1428    0.6165 N.2       1 <0>        -0.2647
      6 N2          0.0007   -0.8183    1.0726 N.pl3     1 <0>        -0.2977
      7 C5          0.0080   -0.4071    2.4128 C.ar      1 <0>         0.1219
      8 C6          0.6891    0.7446    2.7833 C.ar      1 <0>        -0.1263
      9 C7          0.6941    1.1474    4.1045 C.ar      1 <0>        -0.0978
     10 C8          0.0216    0.4049    5.0577 C.ar      1 <0>        -0.1035
     11 C9         -0.6577   -0.7426    4.6917 C.ar      1 <0>        -0.0966
     12 C10        -0.6707   -1.1476    3.3712 C.ar      1 <0>        -0.0989
     13 C11        -0.0148   -0.3103   -2.5405 C.3       1 <0>         0.0870
     14 N3          1.3460    0.0816   -2.9310 N.4       1 <0>        -0.3825
     15 C12         2.2183   -1.0994   -2.9110 C.3       1 <0>        -0.0212
     16 C13         3.6602   -0.6732   -3.2062 C.3       1 <0>         0.1037
     17 N4          3.6758    0.0717   -4.4746 N.pl3     1 <0>        -0.6447
     18 C14         2.7158    1.1736   -4.6433 C.3       1 <0>         0.1014
     19 C15         1.3185    0.6602   -4.2803 C.3       1 <0>        -0.0236
     20 C16         4.5781   -0.2587   -5.4920 C.ar      1 <0>         0.1600
     21 C17         4.5028    0.3812   -6.7221 C.ar      1 <0>        -0.1441
     22 C18         5.3939    0.0548   -7.7255 C.ar      1 <0>        -0.1047
     23 C19         6.3639   -0.9117   -7.5047 C.ar      1 <0>         0.0956
     24 C20         6.4395   -1.5516   -6.2765 C.ar      1 <0>        -0.1617
     25 C21         5.5528   -1.2224   -5.2701 C.ar      1 <0>        -0.1438
     26 O1          7.2410   -1.2325   -8.4934 O.3       1 <0>        -0.3164
     27 C22         8.2137   -2.2366   -8.1971 C.3       1 <0>         0.0260
     28 H1          1.0072    1.8689    0.0088 H         1 <0>         0.0923
     29 H2         -0.5402    1.8726   -0.8708 H         1 <0>         0.0937
     30 H3         -0.5283    1.8494    0.9089 H         1 <0>         0.0955
     31 H4          0.0029   -2.9913   -1.3369 H         1 <0>         0.1971
     32 H5          1.2149    1.3247    2.0394 H         1 <0>         0.1308
     33 H6          1.2241    2.0430    4.3934 H         1 <0>         0.1397
     34 H7          0.0272    0.7217    6.0901 H         1 <0>         0.1378
     35 H8         -1.1817   -1.3206    5.4384 H         1 <0>         0.1402
     36 H9         -1.2048   -2.0417    3.0853 H         1 <0>         0.1364
     37 H10        -0.3631   -1.1120   -3.1917 H         1 <0>         0.1376
     38 H11        -0.6806    0.5478   -2.6327 H         1 <0>         0.1338
     39 H12         2.1720   -1.5688   -1.9283 H         1 <0>         0.1368
     40 H13         1.8867   -1.8091   -3.6689 H         1 <0>         0.1333
     41 H14         4.0253   -0.0347   -2.4018 H         1 <0>         0.0828
     42 H15         4.2929   -1.5566   -3.2924 H         1 <0>         0.1233
     43 H16         2.9856    1.9986   -3.9841 H         1 <0>         0.0852
     44 H17         2.7242    1.5111   -5.6797 H         1 <0>         0.1262
     45 H18         1.0141   -0.1027   -4.9968 H         1 <0>         0.1343
     46 H19         0.6092    1.4874   -4.3067 H         1 <0>         0.1403
     47 H20         3.7473    1.1336   -6.8942 H         1 <0>         0.1303
     48 H21         5.3352    0.5521   -8.6824 H         1 <0>         0.1371
     49 H22         7.1949   -2.3044   -6.1056 H         1 <0>         0.1335
     50 H23         5.6149   -1.7174   -4.3122 H         1 <0>         0.1255
     51 H24         8.8263   -1.9120   -7.3559 H         1 <0>         0.0564
     52 H25         7.7082   -3.1676   -7.9406 H         1 <0>         0.0560
     53 H26         8.8485   -2.3960   -9.0687 H         1 <0>         0.1045
     54 H27         1.6973    0.7672   -2.2795 H         1 <0>         0.4170
@<TRIPOS>BOND
     1    1    2 1
     2    1   28 1
     3    1   29 1
     4    1   30 1
     5    2    6 1
     6    2    3 2
     7    3    4 1
     8    3   13 1
     9    4    5 2
    10    4   31 1
    11    5    6 1
    12    6    7 1
    13    7   12 ar
    14    7    8 ar
    15    8    9 ar
    16    8   32 1
    17    9   10 ar
    18    9   33 1
    19   10   11 ar
    20   10   34 1
    21   11   12 ar
    22   11   35 1
    23   12   36 1
    24   13   14 1
    25   13   37 1
    26   13   38 1
    27   14   19 1
    28   14   15 1
    29   14   54 1
    30   15   16 1
    31   15   39 1
    32   15   40 1
    33   16   17 1
    34   16   41 1
    35   16   42 1
    36   17   18 1
    37   17   20 1
    38   18   19 1
    39   18   43 1
    40   18   44 1
    41   19   45 1
    42   19   46 1
    43   20   25 ar
    44   20   21 ar
    45   21   22 ar
    46   21   47 1
    47   22   23 ar
    48   22   48 1
    49   23   24 ar
    50   23   26 1
    51   24   25 ar
    52   24   49 1
    53   25   50 1
    54   26   27 1
    55   27   51 1
    56   27   52 1
    57   27   53 1
@<TRIPOS>MOLECULE
ZINC58534146
   49    52     0     0     0
SMALL
USER_CHARGES

@<TRIPOS>ATOM
      1 C1         -0.0184    1.5028    0.0103 C.3       1 <0>        -0.0996
      2 C2          0.0021   -0.0041    0.0020 C.2       1 <0>         0.0984
      3 C3          0.0079   -0.7962   -1.0951 C.2       1 <0>        -0.2191
      4 C4          0.0288   -2.1275   -0.6651 C.2       1 <0>         0.0733
      5 N1          0.0352   -2.1353    0.6436 N.2       1 <0>        -0.2899
      6 N2          0.0238   -0.8074    1.0896 N.pl3     1 <0>        -0.3246
      7 C5          0.0312   -0.3860    2.4265 C.ar      1 <0>         0.1539
      8 C6          0.7035    0.7742    2.7864 C.ar      1 <0>        -0.1333
      9 C7          0.7086    1.1871    4.1044 C.ar      1 <0>        -0.0985
     10 C8          0.0452    0.4462    5.0651 C.ar      1 <0>        -0.1219
     11 C9         -0.6253   -0.7098    4.7098 C.ar      1 <0>        -0.0997
     12 C10        -0.6384   -1.1250    3.3925 C.ar      1 <0>        -0.1117
     13 C11        -0.0061   -0.3272   -2.5272 C.3       1 <0>         0.1018
     14 N3          1.3502    0.0734   -2.9246 N.3       1 <0>        -0.4590
     15 C12         1.5508    1.5219   -2.7335 C.3       1 <0>         0.0036
     16 C13         2.2966    1.5392   -4.0752 C.3       1 <0>         0.0615
     17 C14         1.4266    0.3112   -4.3781 C.3       1 <0>        -0.0176
     18 O1          2.0075    2.6765   -4.8907 O.3       1 <0>        -0.2985
     19 C15         2.9948    3.1077   -5.7217 C.ar      1 <0>         0.0246
     20 C16         3.9164    4.0507   -5.2788 C.ar      1 <0>         0.1418
     21 C17         4.9203    4.4871   -6.1287 C.ar      1 <0>        -0.2106
     22 C18         5.0052    3.9857   -7.4144 C.ar      1 <0>        -0.0513
     23 C19         4.0899    3.0489   -7.8563 C.ar      1 <0>        -0.1810
     24 C20         3.0880    2.6038   -7.0107 C.ar      1 <0>         0.1253
     25 F1          2.1984    1.6833   -7.4425 F         1 <0>        -0.1233
     26 O2          3.8322    4.5439   -4.0142 O.3       1 <0>        -0.3005
     27 C21         4.8124    5.5093   -3.6278 C.3       1 <0>         0.0230
     28 H1          1.0042    1.8801    0.0026 H         1 <0>         0.0844
     29 H2         -0.5455    1.8639   -0.8728 H         1 <0>         0.0852
     30 H3         -0.5286    1.8543    0.9071 H         1 <0>         0.0758
     31 H4          0.0380   -2.9987   -1.3034 H         1 <0>         0.1878
     32 H5          1.2221    1.3531    2.0366 H         1 <0>         0.1316
     33 H6          1.2317    2.0894    4.3850 H         1 <0>         0.1334
     34 H7          0.0509    0.7709    6.0951 H         1 <0>         0.1301
     35 H8         -1.1423   -1.2866    5.4624 H         1 <0>         0.1328
     36 H9         -1.1656   -2.0257    3.1149 H         1 <0>         0.1331
     37 H10        -0.3492   -1.1368   -3.1713 H         1 <0>         0.0863
     38 H11        -0.6795    0.5244   -2.6241 H         1 <0>         0.0554
     39 H12         0.6231    2.0940   -2.7450 H         1 <0>         0.0820
     40 H13         2.1854    1.7637   -1.8809 H         1 <0>         0.0909
     41 H14         3.3620    1.3229   -3.9965 H         1 <0>         0.1015
     42 H15         1.9559   -0.4731   -4.9192 H         1 <0>         0.0917
     43 H16         0.4657    0.5602   -4.8284 H         1 <0>         0.0821
     44 H17         5.6365    5.2195   -5.7867 H         1 <0>         0.1407
     45 H18         5.7883    4.3271   -8.0751 H         1 <0>         0.1410
     46 H19         4.1591    2.6602   -8.8615 H         1 <0>         0.1435
     47 H20         5.8064    5.0687   -3.7048 H         1 <0>         0.0588
     48 H21         4.7474    6.3763   -4.2853 H         1 <0>         0.0597
     49 H22         4.6311    5.8193   -2.5987 H         1 <0>         0.1049
@<TRIPOS>BOND
     1    1    2 1
     2    1   28 1
     3    1   29 1
     4    1   30 1
     5    2    6 1
     6    2    3 2
     7    3    4 1
     8    3   13 1
     9    4    5 2
    10    4   31 1
    11    5    6 1
    12    6    7 1
    13    7   12 ar
    14    7    8 ar
    15    8    9 ar
    16    8   32 1
    17    9   10 ar
    18    9   33 1
    19   10   11 ar
    20   10   34 1
    21   11   12 ar
    22   11   35 1
    23   12   36 1
    24   13   14 1
    25   13   37 1
    26   13   38 1
    27   14   17 1
    28   14   15 1
    29   15   16 1
    30   15   39 1
    31   15   40 1
    32   16   17 1
    33   16   18 1
    34   16   41 1
    35   17   42 1
    36   17   43 1
    37   18   19 1
    38   19   24 ar
    39   19   20 ar
    40   20   21 ar
    41   20   26 1
    42   21   22 ar
    43   21   44 1
    44   22   23 ar
    45   22   45 1
    46   23   24 ar
    47   23   46 1
    48   24   25 1
    49   26   27 1
    50   27   47 1
    51   27   48 1
    52   27   49 1
@<TRIPOS>MOLECULE
ZINC58534146
   50    53     0     0     0
SMALL
USER_CHARGES

@<TRIPOS>ATOM
      1 C1         -0.0184    1.5028    0.0103 C.3       1 <0>        -0.1214
      2 C2          0.0021   -0.0041    0.0020 C.2       1 <0>         0.1353
      3 C3          0.0079   -0.7962   -1.0951 C.2       1 <0>        -0.3146
      4 C4          0.0288   -2.1275   -0.6651 C.2       1 <0>         0.0811
      5 N1          0.0352   -2.1353    0.6436 N.2       1 <0>        -0.2673
      6 N2          0.0238   -0.8074    1.0896 N.pl3     1 <0>        -0.2995
      7 C5          0.0312   -0.3860    2.4265 C.ar      1 <0>         0.1231
      8 C6          0.7035    0.7742    2.7864 C.ar      1 <0>        -0.1268
      9 C7          0.7086    1.1871    4.1044 C.ar      1 <0>        -0.0979
     10 C8          0.0452    0.4462    5.0651 C.ar      1 <0>        -0.1043
     11 C9         -0.6253   -0.7098    4.7098 C.ar      1 <0>        -0.0965
     12 C10        -0.6384   -1.1250    3.3925 C.ar      1 <0>        -0.0993
     13 C11        -0.0061   -0.3272   -2.5272 C.3       1 <0>         0.0946
     14 N3          1.3502    0.0734   -2.9246 N.4       1 <0>        -0.4029
     15 C12         1.6666    1.4765   -2.5985 C.3       1 <0>        -0.0068
     16 C13         2.4246    1.5570   -3.9310 C.3       1 <0>         0.0517
     17 C14         1.4603    0.4382   -4.3493 C.3       1 <0>        -0.0237
     18 O1          2.2375    2.7851   -4.6372 O.3       1 <0>        -0.2693
     19 C15         3.2649    3.2090   -5.4220 C.ar      1 <0>        -0.0046
     20 C16         4.2560    4.0278   -4.8908 C.ar      1 <0>         0.1533
     21 C17         5.3006    4.4572   -5.6939 C.ar      1 <0>        -0.2079
     22 C18         5.3571    4.0723   -7.0206 C.ar      1 <0>        -0.0328
     23 C19         4.3728    3.2591   -7.5502 C.ar      1 <0>        -0.1779
     24 C20         3.3295    2.8212   -6.7522 C.ar      1 <0>         0.1348
     25 F1          2.3721    2.0211   -7.2703 F         1 <0>        -0.1232
     26 O2          4.1998    4.4065   -3.5858 O.3       1 <0>        -0.3061
     27 C21         5.2517    5.2479   -3.1086 C.3       1 <0>         0.0201
     28 H1          1.0042    1.8801    0.0026 H         1 <0>         0.0925
     29 H2         -0.5455    1.8639   -0.8728 H         1 <0>         0.0932
     30 H3         -0.5286    1.8543    0.9071 H         1 <0>         0.0948
     31 H4          0.0380   -2.9987   -1.3034 H         1 <0>         0.1978
     32 H5          1.2221    1.3531    2.0366 H         1 <0>         0.1304
     33 H6          1.2317    2.0894    4.3850 H         1 <0>         0.1394
     34 H7          0.0509    0.7709    6.0951 H         1 <0>         0.1376
     35 H8         -1.1423   -1.2866    5.4624 H         1 <0>         0.1401
     36 H9         -1.1656   -2.0257    3.1149 H         1 <0>         0.1364
     37 H10        -0.3492   -1.1368   -3.1713 H         1 <0>         0.1398
     38 H11        -0.6795    0.5244   -2.6241 H         1 <0>         0.1328
     39 H12         0.7888    2.1215   -2.5586 H         1 <0>         0.1593
     40 H13         2.3102    1.5849   -1.7255 H         1 <0>         0.1401
     41 H14         3.4679    1.2474   -3.8704 H         1 <0>         0.1289
     42 H15         1.9290   -0.3333   -4.9601 H         1 <0>         0.1423
     43 H16         0.5274    0.8062   -4.7766 H         1 <0>         0.1606
     44 H17         6.0709    5.0932   -5.2832 H         1 <0>         0.1474
     45 H18         6.1720    4.4080   -7.6447 H         1 <0>         0.1487
     46 H19         4.4201    2.9611   -8.5872 H         1 <0>         0.1506
     47 H20         6.2071    4.7361   -3.2241 H         1 <0>         0.0631
     48 H21         5.2643    6.1746   -3.6823 H         1 <0>         0.0657
     49 H22         5.0860    5.4747   -2.0554 H         1 <0>         0.1094
     50 H23         2.0577   -0.5792   -2.6217 H         1 <0>         0.4380
@<TRIPOS>BOND
     1    1    2 1
     2    1   28 1
     3    1   29 1
     4    1   30 1
     5    2    6 1
     6    2    3 2
     7    3    4 1
     8    3   13 1
     9    4    5 2
    10    4   31 1
    11    5    6 1
    12    6    7 1
    13    7   12 ar
    14    7    8 ar
    15    8    9 ar
    16    8   32 1
    17    9   10 ar
    18    9   33 1
    19   10   11 ar
    20   10   34 1
    21   11   12 ar
    22   11   35 1
    23   12   36 1
    24   13   14 1
    25   13   37 1
    26   13   38 1
    27   14   17 1
    28   14   15 1
    29   14   50 1
    30   15   16 1
    31   15   39 1
    32   15   40 1
    33   16   17 1
    34   16   18 1
    35   16   41 1
    36   17   42 1
    37   17   43 1
    38   18   19 1
    39   19   24 ar
    40   19   20 ar
    41   20   21 ar
    42   20   26 1
    43   21   22 ar
    44   21   44 1
    45   22   23 ar
    46   22   45 1
    47   23   24 ar
    48   23   46 1
    49   24   25 1
    50   26   27 1
    51   27   47 1
    52   27   48 1
    53   27   49 1
@<TRIPOS>MOLECULE
ZINC14806830
   71    77     0     0     0
SMALL
USER_CHARGES
9-cyclohexyl-N-(4-morpholinophenyl)-2-(1-naphthyloxy)purin-6-amine
@<TRIPOS>ATOM
      1 C1          5.1481    2.5080    3.6943 C.ar      1 <0>        -0.1118
      2 C2          4.5304    3.1315    4.7768 C.ar      1 <0>        -0.1116
      3 C3          3.1886    3.3620    4.7802 C.ar      1 <0>        -0.1004
      4 C4          2.4134    2.9706    3.6769 C.ar      1 <0>        -0.0431
      5 C5          3.0399    2.3326    2.5778 C.ar      1 <0>        -0.0422
      6 C6          4.4278    2.1117    2.6098 C.ar      1 <0>        -0.1048
      7 C7          2.2649    1.9359    1.4750 C.ar      1 <0>        -0.0972
      8 C8          0.9223    2.1618    1.4720 C.ar      1 <0>        -0.1051
      9 C9          0.2961    2.7833    2.5487 C.ar      1 <0>        -0.1041
     10 C10         1.0204    3.1865    3.6479 C.ar      1 <0>         0.1065
     11 O1          0.3993    3.7920    4.6928 O.3       1 <0>        -0.2186
     12 C11        -0.0714    5.0496    4.5111 C.ar      1 <0>         0.5430
     13 N1         -0.7911    5.6084    5.4738 N.ar      1 <0>        -0.5549
     14 C12        -1.2750    6.8388    5.3437 C.ar      1 <0>         0.4758
     15 C13        -1.0079    7.5438    4.1570 C.ar      1 <0>        -0.0953
     16 C14        -0.2458    6.9082    3.1629 C.ar      1 <0>         0.3296
     17 N2          0.2036    5.6761    3.3805 N.ar      1 <0>        -0.5720
     18 N3         -0.1372    7.8099    2.1346 N.pl3     1 <0>        -0.4655
     19 C15        -0.8176    8.9334    2.5027 C.2       1 <0>         0.2578
     20 N4         -1.3275    8.7751    3.6893 N.2       1 <0>        -0.4492
     21 C16         0.5736    7.6020    0.8707 C.3       1 <0>         0.1408
     22 C17        -0.4100    7.7280   -0.2944 C.3       1 <0>        -0.1276
     23 C18         0.3324    7.5108   -1.6145 C.3       1 <0>        -0.1158
     24 C19         1.4328    8.5638   -1.7599 C.3       1 <0>        -0.1240
     25 C20         2.4165    8.4378   -0.5948 C.3       1 <0>        -0.1160
     26 C21         1.6741    8.6550    0.7252 C.3       1 <0>        -0.1272
     27 N5         -2.0259    7.4140    6.3542 N.pl3     1 <0>        -0.5404
     28 C22        -2.1800    6.7493    7.5773 C.ar      1 <0>         0.0463
     29 C23        -1.1293    6.0080    8.1018 C.ar      1 <0>        -0.0773
     30 C24        -1.2793    5.3573    9.3104 C.ar      1 <0>        -0.1614
     31 C25        -2.4845    5.4351    9.9960 C.ar      1 <0>         0.1142
     32 C26        -3.5371    6.1717    9.4686 C.ar      1 <0>        -0.1347
     33 C27        -3.3853    6.8267    8.2626 C.ar      1 <0>        -0.0656
     34 N6         -2.6384    4.7709   11.2181 N.pl3     1 <0>        -0.4880
     35 C28        -3.0367    5.7066   12.2798 C.3       1 <0>         0.0201
     36 C29        -3.2515    4.9308   13.5821 C.3       1 <0>         0.0611
     37 O2         -2.0557    4.2179   13.9092 O.3       1 <0>        -0.3830
     38 C30        -1.6392    3.2972   12.8973 C.3       1 <0>         0.0619
     39 C31        -1.4080    4.0564   11.5880 C.3       1 <0>         0.0121
     40 H1          6.2142    2.3370    3.7163 H         1 <0>         0.1262
     41 H2          5.1248    3.4367    5.6253 H         1 <0>         0.1254
     42 H3          2.7234    3.8466    5.6259 H         1 <0>         0.1267
     43 H4          4.9200    1.6296    1.7780 H         1 <0>         0.1315
     44 H5          2.7338    1.4526    0.6306 H         1 <0>         0.1332
     45 H6          0.3337    1.8541    0.6203 H         1 <0>         0.1310
     46 H7         -0.7704    2.9509    2.5216 H         1 <0>         0.1256
     47 H8         -0.9182    9.8230    1.8986 H         1 <0>         0.2222
     48 H9          1.0194    6.6073    0.8639 H         1 <0>         0.1073
     49 H10        -0.8558    8.7227   -0.2876 H         1 <0>         0.0739
     50 H11        -1.1940    6.9778   -0.1908 H         1 <0>         0.0706
     51 H12        -0.3684    7.6006   -2.4445 H         1 <0>         0.0728
     52 H13         0.7781    6.5162   -1.6213 H         1 <0>         0.0669
     53 H14         1.9617    8.4091   -2.7003 H         1 <0>         0.0689
     54 H15         0.9871    9.5585   -1.7531 H         1 <0>         0.0663
     55 H16         2.8622    7.4431   -0.6016 H         1 <0>         0.0668
     56 H17         3.2005    9.1880   -0.6984 H         1 <0>         0.0727
     57 H18         2.3749    8.5652    1.5552 H         1 <0>         0.0701
     58 H19         1.2283    9.6496    0.7320 H         1 <0>         0.0739
     59 H20        -1.6256    8.2949    6.6067 H         1 <0>         0.3801
     60 H21        -0.1935    5.9439    7.5665 H         1 <0>         0.1300
     61 H22        -0.4607    4.7845    9.7205 H         1 <0>         0.1282
     62 H23        -4.4742    6.2325   10.0019 H         1 <0>         0.1305
     63 H24        -4.2039    7.3995    7.8525 H         1 <0>         0.1340
     64 H25        -2.2518    6.4492   12.4237 H         1 <0>         0.0542
     65 H26        -3.9633    6.2057   11.9964 H         1 <0>         0.0944
     66 H27        -4.0725    4.2253   13.4543 H         1 <0>         0.0627
     67 H28        -3.4917    5.6269   14.3858 H         1 <0>         0.1037
     68 H29        -2.4133    2.5441   12.7495 H         1 <0>         0.0625
     69 H30        -0.7131    2.8116   13.2049 H         1 <0>         0.1035
     70 H31        -1.1458    3.3509   10.7996 H         1 <0>         0.0949
     71 H32        -0.5970    4.7725   11.7201 H         1 <0>         0.0566
@<TRIPOS>BOND
     1    1    6 ar
     2    1    2 ar
     3    1   40 1
     4    2    3 ar
     5    2   41 1
     6    3    4 ar
     7    3   42 1
     8    4   10 ar
     9    4    5 ar
    10    5    6 ar
    11    5    7 ar
    12    6   43 1
    13    7    8 ar
    14    7   44 1
    15    8    9 ar
    16    8   45 1
    17    9   10 ar
    18    9   46 1
    19   10   11 1
    20   11   12 1
    21   12   17 ar
    22   12   13 ar
    23   13   14 ar
    24   14   15 ar
    25   14   27 1
    26   15   20 1
    27   15   16 ar
    28   16   17 ar
    29   16   18 1
    30   18   19 1
    31   18   21 1
    32   19   20 2
    33   19   47 1
    34   21   26 1
    35   21   22 1
    36   21   48 1
    37   22   23 1
    38   22   49 1
    39   22   50 1
    40   23   24 1
    41   23   51 1
    42   23   52 1
    43   24   25 1
    44   24   53 1
    45   24   54 1
    46   25   26 1
    47   25   55 1
    48   25   56 1
    49   26   57 1
    50   26   58 1
    51   27   28 1
    52   27   59 1
    53   28   33 ar
    54   28   29 ar
    55   29   30 ar
    56   29   60 1
    57   30   31 ar
    58   30   61 1
    59   31   32 ar
    60   31   34 1
    61   32   33 ar
    62   32   62 1
    63   33   63 1
    64   34   39 1
    65   34   35 1
    66   35   36 1
    67   35   64 1
    68   35   65 1
    69   36   37 1
    70   36   66 1
    71   36   67 1
    72   37   38 1
    73   38   39 1
    74   38   68 1
    75   38   69 1
    76   39   70 1
    77   39   71 1
@<TRIPOS>MOLECULE
ZINC04098868
   72    77     0     0     0
SMALL
USER_CHARGES

@<TRIPOS>ATOM
      1 C1          0.0103    1.5347    0.0637 C.3       1 <0>        -0.1513
      2 C2          0.0229    0.0049    0.0434 C.3       1 <0>        -0.1057
      3 H1         -1.0037   -0.3610    0.0548 H         1 <0>         0.0973
      4 C3          0.7162   -0.4770   -1.2436 C.3       1 <0>        -0.1258
      5 C4          0.8096   -1.9888   -1.1535 C.3       1 <0>         0.0694
      6 H2         -0.1858   -2.4138   -1.0245 H         1 <0>         0.0836
      7 C5          1.6873   -2.3134    0.0882 C.3       1 <0>        -0.0281
      8 H3          2.6179   -1.7466    0.0586 H         1 <0>         0.1557
      9 C6          1.9609   -3.8055   -0.1329 C.3       1 <0>        -0.1147
     10 H4          2.9639   -4.0679    0.2035 H         1 <0>         0.1205
     11 C7          1.8419   -3.9541   -1.6670 C.3       1 <0>         0.1619
     12 O1          1.4896   -2.6613   -2.2106 O.3       1 <0>        -0.3197
     13 C8          0.7717   -4.9756   -2.0125 C.3       1 <0>        -0.1326
     14 C9          1.1684   -6.4033   -1.6570 C.3       1 <0>        -0.1121
     15 C10         2.5643   -6.4720   -1.0449 C.3       1 <0>        -0.0712
     16 H5          2.5553   -6.1137   -0.0156 H         1 <0>         0.0943
     17 C11         3.1312   -7.8883   -1.1250 C.3       1 <0>        -0.0890
     18 H6          2.7416   -8.4069   -2.0010 H         1 <0>         0.0858
     19 C12         2.9423   -8.7363    0.1236 C.3       1 <0>        -0.0750
     20 C13         3.7543   -9.9944   -0.0783 C.2       1 <0>        -0.1625
     21 C14         4.7829  -10.0743   -0.8758 C.2       1 <0>        -0.0981
     22 C15         5.4727  -11.4191   -1.0151 C.3       1 <0>        -0.1201
     23 C16         6.9774  -11.2249   -0.8122 C.3       1 <0>         0.1086
     24 H7          7.1673  -10.8940    0.2089 H         1 <0>         0.0547
     25 C17         7.4868  -10.1683   -1.7948 C.3       1 <0>        -0.1168
     26 C18         6.8368   -8.8215   -1.4770 C.3       1 <0>        -0.1024
     27 C19         5.3223   -8.9171   -1.6830 C.3       1 <0>        -0.0092
     28 C20         4.6570   -7.6309   -1.2742 C.3       1 <0>        -0.0771
     29 H8          5.0755   -7.3037   -0.3224 H         1 <0>         0.0754
     30 C21         4.6857   -6.4905   -2.3026 C.3       1 <0>        -0.0812
     31 C22         3.4958   -5.6236   -1.9125 C.2       1 <0>        -0.1028
     32 C23         3.1820   -4.3893   -2.2286 C.2       1 <0>        -0.1305
     33 C24         4.0622   -3.4961   -3.0644 C.3       1 <0>        -0.1002
     34 C25         5.0263   -9.1518   -3.1656 C.3       1 <0>        -0.1487
     35 O2          7.6541  -12.4615   -1.0467 O.3       1 <0>        -0.5666
     36 C26         0.9115   -4.6601    0.5809 C.3       1 <0>        -0.1995
     37 N1          0.9111   -1.9543    1.2649 N.4       1 <0>        -0.4848
     38 C27         0.7499   -0.5059    1.2841 C.3       1 <0>        -0.0126
     39 H9          1.0348    1.9067    0.0524 H         1 <0>         0.0696
     40 H10        -0.5205    1.9053   -0.8132 H         1 <0>         0.0808
     41 H11        -0.4925    1.8820    0.9664 H         1 <0>         0.0720
     42 H12         0.1254   -0.1917   -2.1140 H         1 <0>         0.1051
     43 H13         1.7149   -0.0457   -1.3125 H         1 <0>         0.0939
     44 H14        -0.1417   -4.7216   -1.4745 H         1 <0>         0.0714
     45 H15         0.5707   -4.9241   -3.0826 H         1 <0>         0.0818
     46 H16         0.4483   -6.8043   -0.9437 H         1 <0>         0.0726
     47 H17         1.1470   -7.0127   -2.5606 H         1 <0>         0.0752
     48 H18         3.3030   -8.1963    0.9991 H         1 <0>         0.0730
     49 H19         1.8891   -8.9882    0.2474 H         1 <0>         0.0723
     50 H20         3.4658  -10.8792    0.4696 H         1 <0>         0.1060
     51 H21         5.0882  -12.1066   -0.2618 H         1 <0>         0.0708
     52 H22         5.2874  -11.8234   -2.0103 H         1 <0>         0.0824
     53 H23         8.5694  -10.0796   -1.7041 H         1 <0>         0.0731
     54 H24         7.2304  -10.4644   -2.8120 H         1 <0>         0.0746
     55 H25         7.0456   -8.5536   -0.4413 H         1 <0>         0.0647
     56 H26         7.2450   -8.0569   -2.1379 H         1 <0>         0.0732
     57 H27         5.6110   -5.9207   -2.2173 H         1 <0>         0.0759
     58 H28         4.5676   -6.8824   -3.3129 H         1 <0>         0.0940
     59 H29         4.7408   -2.9436   -2.4145 H         1 <0>         0.0651
     60 H30         4.6403   -4.1041   -3.7604 H         1 <0>         0.0679
     61 H31         3.4423   -2.7948   -3.6229 H         1 <0>         0.0727
     62 H32         3.9491   -9.2285   -3.3134 H         1 <0>         0.0571
     63 H33         5.4147   -8.3178   -3.7501 H         1 <0>         0.0639
     64 H34         5.5042  -10.0763   -3.4897 H         1 <0>         0.0614
     65 H35         7.3776  -13.1786   -0.4599 H         1 <0>         0.3800
     66 H36        -0.0838   -4.3678    0.2463 H         1 <0>         0.0703
     67 H37         1.0792   -5.7115    0.3473 H         1 <0>         0.1158
     68 H38         0.9917   -4.5098    1.6575 H         1 <0>         0.0641
     69 H39        -0.0007   -2.3838    1.2184 H         1 <0>         0.4257
     70 H40         1.7367   -0.0454    1.3321 H         1 <0>         0.1321
     71 H41         0.1831   -0.2205    2.1703 H         1 <0>         0.1397
     72 H42         1.3918   -2.2579    2.0985 H         1 <0>         0.4327
@<TRIPOS>BOND
     1    1    2 1
     2    1   39 1
     3    1   40 1
     4    1   41 1
     5    2    3 1
     6    2   38 1
     7    2    4 1
     8    4    5 1
     9    4   42 1
    10    4   43 1
    11    5    6 1
    12    5   12 1
    13    5    7 1
    14    7    8 1
    15    7    9 1
    16    7   37 1
    17    9   10 1
    18    9   11 1
    19    9   36 1
    20   11   32 1
    21   11   12 1
    22   11   13 1
    23   13   14 1
    24   13   44 1
    25   13   45 1
    26   14   15 1
    27   14   46 1
    28   14   47 1
    29   15   16 1
    30   15   31 1
    31   15   17 1
    32   17   18 1
    33   17   28 1
    34   17   19 1
    35   19   20 1
    36   19   48 1
    37   19   49 1
    38   20   21 2
    39   20   50 1
    40   21   27 1
    41   21   22 1
    42   22   23 1
    43   22   51 1
    44   22   52 1
    45   23   24 1
    46   23   25 1
    47   23   35 1
    48   25   26 1
    49   25   53 1
    50   25   54 1
    51   26   27 1
    52   26   55 1
    53   26   56 1
    54   27   28 1
    55   27   34 1
    56   28   29 1
    57   28   30 1
    58   30   31 1
    59   30   57 1
    60   30   58 1
    61   31   32 2
    62   32   33 1
    63   33   59 1
    64   33   60 1
    65   33   61 1
    66   34   62 1
    67   34   63 1
    68   34   64 1
    69   35   65 1
    70   36   66 1
    71   36   67 1
    72   36   68 1
    73   37   38 1
    74   37   69 1
    75   37   72 1
    76   38   70 1
    77   38   71 1
@<TRIPOS>MOLECULE
ZINC33359324
   63    67     0     0     0
SMALL
USER_CHARGES
3-methyl-N-[(2S)-2-[(4-methylthiazol-2-yl)methylamino]indan-5-yl]-2-[4-(trifluoromethyl)phenyl]benzamide
@<TRIPOS>ATOM
      1 C1          6.5696   -3.1958   -1.7509 C.3       1 <0>        -0.1220
      2 C2          5.8554   -1.8871   -1.5310 C.ar      1 <0>        -0.0719
      3 C3          5.5692   -1.4640   -0.2482 C.ar      1 <0>        -0.0905
      4 C4          4.9082   -0.2658   -0.0358 C.ar      1 <0>        -0.1150
      5 C5          4.5328    0.5234   -1.1034 C.ar      1 <0>        -0.0911
      6 C6          4.8186    0.1150   -2.4062 C.ar      1 <0>        -0.1189
      7 C7          5.4897   -1.1025   -2.6207 C.ar      1 <0>        -0.0008
      8 C8          5.7999   -1.5500   -3.9989 C.ar      1 <0>        -0.0026
      9 C9          7.1255   -1.6614   -4.4170 C.ar      1 <0>        -0.1064
     10 C10         7.4080   -2.0731   -5.7034 C.ar      1 <0>        -0.0729
     11 C11         6.3795   -2.3851   -6.5743 C.ar      1 <0>        -0.1777
     12 C12         5.0624   -2.2765   -6.1653 C.ar      1 <0>        -0.0698
     13 C13         4.7674   -1.8608   -4.8830 C.ar      1 <0>        -0.0596
     14 C14         6.6949   -2.8397   -7.9761 C.3       1 <0>         0.5072
     15 F1          6.7680   -1.7276   -8.8216 F         1 <0>        -0.1762
     16 F2          7.9216   -3.5124   -7.9833 F         1 <0>        -0.1783
     17 F3          5.6881   -3.7012   -8.4247 F         1 <0>        -0.1777
     18 C15         4.4199    0.9553   -3.5522 C.2       1 <0>         0.5550
     19 O1          4.6714    0.5958   -4.6862 O.2       1 <0>        -0.5000
     20 N1          3.7771    2.1211   -3.3417 N.am      1 <0>        -0.6808
     21 C16         3.4975    2.9695   -4.4176 C.ar      1 <0>         0.1524
     22 C17         2.3426    3.7415   -4.4145 C.ar      1 <0>        -0.1442
     23 C18         2.0721    4.5772   -5.4783 C.ar      1 <0>        -0.0869
     24 C19         2.9470    4.6503   -6.5504 C.ar      1 <0>        -0.1089
     25 C20         4.0974    3.8830   -6.5566 C.ar      1 <0>        -0.0753
     26 C21         4.3755    3.0473   -5.4892 C.ar      1 <0>        -0.1066
     27 C22         4.8780    4.1414   -7.8276 C.3       1 <0>        -0.0795
     28 C23         4.3105    5.4626   -8.3885 C.3       1 <0>         0.0885
     29 H1          4.9086    6.3576   -8.1623 H         1 <0>         0.0645
     30 C24         2.8769    5.4764   -7.8172 C.3       1 <0>        -0.0673
     31 N2          4.2871    5.4389   -9.8571 N.3       1 <0>        -0.6675
     32 C25         4.3316    6.8007  -10.4063 C.3       1 <0>         0.1393
     33 C26         4.3060    6.7363  -11.9117 C.2       1 <0>         0.1017
     34 N3          3.2713    6.7407  -12.7200 N.2       1 <0>        -0.4917
     35 C27         3.4202    6.6783  -14.0267 C.2       1 <0>         0.0578
     36 C28         4.6789    6.6084  -14.5301 C.2       1 <0>        -0.2113
     37 S1          5.6378    6.6450  -13.0225 S.3       1 <0>         0.0315
     38 C29         2.2224    6.6848  -14.9412 C.3       1 <0>        -0.0840
     39 H2          6.7744   -3.6695   -0.7795 H         1 <0>         0.0717
     40 H3          7.5183   -3.0120   -2.2764 H         1 <0>         0.0766
     41 H4          5.9374   -3.8611   -2.3573 H         1 <0>         0.0750
     42 H5          5.8591   -2.0736    0.5950 H         1 <0>         0.1332
     43 H6          4.6855    0.0530    0.9718 H         1 <0>         0.1337
     44 H7          4.0182    1.4570   -0.9304 H         1 <0>         0.1288
     45 H8          7.9293   -1.4217   -3.7367 H         1 <0>         0.1310
     46 H9          8.4342   -2.1556   -6.0297 H         1 <0>         0.1348
     47 H10         4.2636   -2.5179   -6.8508 H         1 <0>         0.1333
     48 H11         3.7388   -1.7760   -4.5649 H         1 <0>         0.1251
     49 H12         3.4724    2.4052   -2.3236 H         1 <0>         0.4305
     50 H13         1.6582    3.6878   -3.5808 H         1 <0>         0.1264
     51 H14         1.1740    5.1770   -5.4757 H         1 <0>         0.1243
     52 H15         5.2761    2.4512   -5.4922 H         1 <0>         0.1311
     53 H16         5.9482    4.2297   -7.5891 H         1 <0>         0.0774
     54 H17         4.7261    3.3064   -8.5274 H         1 <0>         0.0956
     55 H18         2.1594    5.0187   -8.5141 H         1 <0>         0.0954
     56 H19         2.5492    6.4973   -7.5715 H         1 <0>         0.0731
     57 H20         5.1586    4.8800  -10.2287 H         1 <0>         0.3465
     58 H21         3.4602    7.3689  -10.0487 H         1 <0>         0.1088
     59 H22         5.2549    7.2992  -10.0763 H         1 <0>         0.0636
     60 H23         5.0093    6.5512  -15.5567 H         1 <0>         0.1967
     61 H24         2.5591    6.6265  -15.9868 H         1 <0>         0.0743
     62 H25         1.6515    7.6130  -14.7910 H         1 <0>         0.0750
     63 H26         1.5824    5.8197  -14.7133 H         1 <0>         0.0759
@<TRIPOS>BOND
     1    1    2 1
     2    1   39 1
     3    1   40 1
     4    1   41 1
     5    2    7 ar
     6    2    3 ar
     7    3    4 ar
     8    3   42 1
     9    4    5 ar
    10    4   43 1
    11    5    6 ar
    12    5   44 1
    13    6    7 ar
    14    6   18 1
    15    7    8 1
    16    8   13 ar
    17    8    9 ar
    18    9   10 ar
    19    9   45 1
    20   10   11 ar
    21   10   46 1
    22   11   12 ar
    23   11   14 1
    24   12   13 ar
    25   12   47 1
    26   13   48 1
    27   14   15 1
    28   14   16 1
    29   14   17 1
    30   18   19 2
    31   18   20 am
    32   20   21 1
    33   20   49 1
    34   21   26 ar
    35   21   22 ar
    36   22   23 ar
    37   22   50 1
    38   23   24 ar
    39   23   51 1
    40   24   30 1
    41   24   25 ar
    42   25   26 ar
    43   25   27 1
    44   26   52 1
    45   27   28 1
    46   27   53 1
    47   27   54 1
    48   28   29 1
    49   28   30 1
    50   28   31 1
    51   30   55 1
    52   30   56 1
    53   31   32 1
    54   31   57 1
    55   32   33 1
    56   32   58 1
    57   32   59 1
    58   33   37 1
    59   33   34 2
    60   34   35 1
    61   35   36 2
    62   35   38 1
    63   36   37 1
    64   36   60 1
    65   38   61 1
    66   38   62 1
    67   38   63 1
@<TRIPOS>MOLECULE
ZINC43197966
   64    68     0     0     0
SMALL
USER_CHARGES

@<TRIPOS>ATOM
      1 C1         -0.0184    1.5263   -0.0203 C.3       1 <0>        -0.1521
      2 C2          0.0017   -0.0034    0.0054 C.3       1 <0>         0.1746
      3 C3          0.7302   -0.4828    1.2625 C.3       1 <0>        -0.1839
      4 C4         -1.4123   -0.5243    0.0147 C.ar      1 <0>        -0.1456
      5 C5         -2.4301    0.2198    0.5971 C.ar      1 <0>         0.0480
      6 C6         -3.7139   -0.2944    0.5845 C.ar      1 <0>        -0.1898
      7 C7         -3.9410   -1.5327   -0.0079 C.ar      1 <0>         0.4405
      8 N1         -2.9437   -2.2119   -0.5529 N.ar      1 <0>        -0.4956
      9 C8         -1.7100   -1.7432   -0.5604 C.ar      1 <0>         0.1470
     10 N2         -5.2263   -2.0616   -0.0274 N.pl3     1 <0>        -0.5986
     11 C9         -6.3225   -1.3896    0.6844 C.3       1 <0>         0.0933
     12 C10        -7.4594   -1.1200   -0.3092 C.3       1 <0>         0.1129
     13 N3         -7.7465   -2.3610   -1.0423 N.pl3     1 <0>        -0.6728
     14 C11        -6.6503   -3.0330   -1.7540 C.3       1 <0>         0.1181
     15 C12        -5.5146   -3.2995   -0.7651 C.3       1 <0>         0.0817
     16 C13        -9.0272   -2.8880   -1.0617 C.ar      1 <0>         0.4604
     17 C14        -9.9087   -2.5996   -2.1287 C.ar      1 <0>        -0.0825
     18 C15        -9.5507   -1.7834   -3.2066 C.ar      1 <0>        -0.0599
     19 C16       -10.4558   -1.5508   -4.1999 C.ar      1 <0>        -0.0678
     20 C17       -11.7295   -2.1129   -4.1574 C.ar      1 <0>        -0.0382
     21 C18       -12.1111   -2.9126   -3.1214 C.ar      1 <0>        -0.0837
     22 C19       -11.2060   -3.1727   -2.0844 C.ar      1 <0>        -0.0433
     23 C20       -11.5248   -3.9881   -0.9823 C.ar      1 <0>         0.2273
     24 N4        -10.6211   -4.1838   -0.0504 N.ar      1 <0>        -0.2652
     25 N5         -9.4464   -3.6744   -0.0860 N.ar      1 <0>        -0.2957
     26 C21       -12.8851   -4.6273   -0.8733 C.3       1 <0>        -0.0375
     27 C22       -12.8602   -5.9783   -1.5405 C.ar      1 <0>        -0.1108
     28 C23       -13.1641   -6.0913   -2.8843 C.ar      1 <0>        -0.1117
     29 C24       -13.1413   -7.3306   -3.4963 C.ar      1 <0>        -0.1135
     30 C25       -12.8141   -8.4568   -2.7645 C.ar      1 <0>        -0.1012
     31 C26       -12.5094   -8.3437   -1.4209 C.ar      1 <0>        -0.1142
     32 C27       -12.5281   -7.1039   -0.8100 C.ar      1 <0>        -0.1020
     33 O1          0.6811   -0.4903   -1.1537 O.3       1 <0>        -0.5376
     34 H1          1.0044    1.9030   -0.0270 H         1 <0>         0.0892
     35 H2         -0.5374    1.8678   -0.9159 H         1 <0>         0.0730
     36 H3         -0.5366    1.8977    0.8638 H         1 <0>         0.0802
     37 H4          0.2120   -0.1114    2.1466 H         1 <0>         0.0761
     38 H5          0.7446   -1.5726    1.2808 H         1 <0>         0.0647
     39 H6          1.7530   -0.1061    1.2557 H         1 <0>         0.0901
     40 H7         -2.2236    1.1783    1.0500 H         1 <0>         0.1820
     41 H8         -4.5290    0.2576    1.0287 H         1 <0>         0.1834
     42 H9         -0.9224   -2.3229   -1.0187 H         1 <0>         0.2058
     43 H10        -6.6838   -2.0307    1.4885 H         1 <0>         0.0999
     44 H11        -5.9663   -0.4460    1.0975 H         1 <0>         0.1235
     45 H12        -8.3500   -0.8004    0.2319 H         1 <0>         0.1097
     46 H13        -7.1557   -0.3428   -1.0105 H         1 <0>         0.1011
     47 H14        -7.0065   -3.9766   -2.1672 H         1 <0>         0.1098
     48 H15        -6.2890   -2.3919   -2.5582 H         1 <0>         0.0978
     49 H16        -4.6249   -3.6169   -1.3090 H         1 <0>         0.0987
     50 H17        -5.8170   -4.0797   -0.0666 H         1 <0>         0.1041
     51 H18        -8.5665   -1.3410   -3.2517 H         1 <0>         0.1545
     52 H19       -10.1806   -0.9205   -5.0326 H         1 <0>         0.1606
     53 H20       -12.4261   -1.9117   -4.9579 H         1 <0>         0.1638
     54 H21       -13.1020   -3.3416   -3.1003 H         1 <0>         0.1659
     55 H22       -13.1476   -4.7459    0.1779 H         1 <0>         0.1231
     56 H23       -13.6246   -3.9937   -1.3632 H         1 <0>         0.1224
     57 H24       -13.4197   -5.2113   -3.4560 H         1 <0>         0.1234
     58 H25       -13.3794   -7.4189   -4.5460 H         1 <0>         0.1315
     59 H26       -12.7970   -9.4252   -3.2425 H         1 <0>         0.1314
     60 H27       -12.2542   -9.2237   -0.8492 H         1 <0>         0.1307
     61 H28       -12.2864   -7.0150    0.2389 H         1 <0>         0.1274
     62 H29         0.7319   -1.4547   -1.2037 H         1 <0>         0.3765
     63 H30        -3.1249   -3.0734   -0.9601 H         1 <0>         0.4391
     64 H31        -8.8359   -3.8720    0.6414 H         1 <0>         0.4601
@<TRIPOS>BOND
     1    1    2 1
     2    1   34 1
     3    1   35 1
     4    1   36 1
     5    2    3 1
     6    2    4 1
     7    2   33 1
     8    3   37 1
     9    3   38 1
    10    3   39 1
    11    4    9 ar
    12    4    5 ar
    13    5    6 ar
    14    5   40 1
    15    6    7 ar
    16    6   41 1
    17    7    8 ar
    18    7   10 1
    19    8    9 ar
    20    8   63 1
    21    9   42 1
    22   10   15 1
    23   10   11 1
    24   11   12 1
    25   11   43 1
    26   11   44 1
    27   12   13 1
    28   12   45 1
    29   12   46 1
    30   13   14 1
    31   13   16 1
    32   14   15 1
    33   14   47 1
    34   14   48 1
    35   15   49 1
    36   15   50 1
    37   16   25 ar
    38   16   17 ar
    39   17   22 ar
    40   17   18 ar
    41   18   19 ar
    42   18   51 1
    43   19   20 ar
    44   19   52 1
    45   20   21 ar
    46   20   53 1
    47   21   22 ar
    48   21   54 1
    49   22   23 ar
    50   23   24 ar
    51   23   26 1
    52   24   25 ar
    53   25   64 1
    54   26   27 1
    55   26   55 1
    56   26   56 1
    57   27   32 ar
    58   27   28 ar
    59   28   29 ar
    60   28   57 1
    61   29   30 ar
    62   29   58 1
    63   30   31 ar
    64   30   59 1
    65   31   32 ar
    66   31   60 1
    67   32   61 1
    68   33   62 1
@<TRIPOS>MOLECULE
ZINC43197966
   63    67     0     0     0
SMALL
USER_CHARGES

@<TRIPOS>ATOM
      1 C1         -0.0184    1.5261   -0.0201 C.3       1 <0>        -0.1503
      2 C2          0.0018   -0.0035    0.0052 C.3       1 <0>         0.1779
      3 C3          0.7304   -0.4832    1.2622 C.3       1 <0>        -0.1825
      4 C4         -1.4123   -0.5245    0.0146 C.ar      1 <0>        -0.1601
      5 C5         -2.4300    0.2195    0.5972 C.ar      1 <0>         0.0419
      6 C6         -3.7138   -0.2946    0.5845 C.ar      1 <0>        -0.1933
      7 C7         -3.9410   -1.5328   -0.0081 C.ar      1 <0>         0.4459
      8 N1         -2.9437   -2.2119   -0.5532 N.ar      1 <0>        -0.5032
      9 C8         -1.7100   -1.7432   -0.5607 C.ar      1 <0>         0.1452
     10 N2         -5.2262   -2.0618   -0.0275 N.pl3     1 <0>        -0.5782
     11 C9         -6.3224   -1.3899    0.6844 C.3       1 <0>         0.0916
     12 C10        -7.4593   -1.1201   -0.3090 C.3       1 <0>         0.1309
     13 N3         -7.7465   -2.3610   -1.0423 N.pl3     1 <0>        -0.6495
     14 C11        -6.6503   -3.0328   -1.7542 C.3       1 <0>         0.1340
     15 C12        -5.5146   -3.2996   -0.7654 C.3       1 <0>         0.0804
     16 C13        -9.0272   -2.8880   -1.0617 C.ar      1 <0>         0.3367
     17 C14        -9.9106   -2.5949   -2.1257 C.ar      1 <0>        -0.0768
     18 C15        -9.5547   -1.7738   -3.2007 C.ar      1 <0>        -0.0893
     19 C16       -10.4616   -1.5369   -4.1913 C.ar      1 <0>        -0.0926
     20 C17       -11.7352   -2.0993   -4.1490 C.ar      1 <0>        -0.0937
     21 C18       -12.1148   -2.9037   -3.1158 C.ar      1 <0>        -0.0900
     22 C19       -11.2078   -3.1683   -2.0817 C.ar      1 <0>        -0.0689
     23 C20       -11.5245   -3.9886   -0.9826 C.ar      1 <0>         0.1336
     24 N4        -10.6191   -4.1884   -0.0532 N.ar      1 <0>        -0.2513
     25 N5         -9.4446   -3.6787   -0.0887 N.ar      1 <0>        -0.2654
     26 C21       -12.8847   -4.6284   -0.8740 C.3       1 <0>        -0.0323
     27 C22       -12.8609   -5.9764   -1.5472 C.ar      1 <0>        -0.0876
     28 C23       -13.1672   -6.0834   -2.8910 C.ar      1 <0>        -0.1149
     29 C24       -13.1455   -7.3199   -3.5085 C.ar      1 <0>        -0.1186
     30 C25       -12.8169   -8.4494   -2.7824 C.ar      1 <0>        -0.1155
     31 C26       -12.5097   -8.3423   -1.4389 C.ar      1 <0>        -0.1180
     32 C27       -12.5273   -7.1052   -0.8224 C.ar      1 <0>        -0.1026
     33 O1          0.6811   -0.4903   -1.1540 O.3       1 <0>        -0.5409
     34 H1          1.0044    1.9029   -0.0269 H         1 <0>         0.0848
     35 H2         -0.5374    1.8678   -0.9157 H         1 <0>         0.0723
     36 H3         -0.5365    1.8974    0.8641 H         1 <0>         0.0795
     37 H4          0.2122   -0.1119    2.1464 H         1 <0>         0.0753
     38 H5          0.7447   -1.5730    1.2803 H         1 <0>         0.0639
     39 H6          1.7531   -0.1064    1.2555 H         1 <0>         0.0856
     40 H7         -2.2235    1.1779    1.0503 H         1 <0>         0.1765
     41 H8         -4.5289    0.2573    1.0289 H         1 <0>         0.1822
     42 H9         -0.9224   -2.3229   -1.0191 H         1 <0>         0.2001
     43 H10        -6.6836   -2.0311    1.4885 H         1 <0>         0.1046
     44 H11        -5.9661   -0.4463    1.0977 H         1 <0>         0.1087
     45 H12        -8.3499   -0.8006    0.2322 H         1 <0>         0.0997
     46 H13        -7.1557   -0.3428   -1.0102 H         1 <0>         0.0740
     47 H14        -7.0066   -3.9764   -2.1675 H         1 <0>         0.0986
     48 H15        -6.2891   -2.3917   -2.5583 H         1 <0>         0.0721
     49 H16        -4.6249   -3.6169   -1.3094 H         1 <0>         0.0840
     50 H17        -5.8170   -4.0799   -0.0670 H         1 <0>         0.1077
     51 H18        -8.5706   -1.3312   -3.2457 H         1 <0>         0.1332
     52 H19       -10.1880   -0.9028   -5.0217 H         1 <0>         0.1349
     53 H20       -12.4333   -1.8946   -4.9472 H         1 <0>         0.1381
     54 H21       -13.1057   -3.3328   -3.0948 H         1 <0>         0.1429
     55 H22       -13.1452   -4.7517    0.1772 H         1 <0>         0.1048
     56 H23       -13.6250   -3.9927   -1.3597 H         1 <0>         0.0982
     57 H24       -13.4239   -5.2009   -3.4582 H         1 <0>         0.1207
     58 H25       -13.3855   -7.4036   -4.5582 H         1 <0>         0.1245
     59 H26       -12.8006   -9.4156   -3.2647 H         1 <0>         0.1242
     60 H27       -12.2534   -9.2248   -0.8715 H         1 <0>         0.1249
     61 H28       -12.2837   -7.0210    0.2264 H         1 <0>         0.1265
     62 H29         0.7319   -1.4546   -1.2041 H         1 <0>         0.3760
     63 H30        -3.1249   -3.0734   -0.9606 H         1 <0>         0.4388
@<TRIPOS>BOND
     1    1    2 1
     2    1   34 1
     3    1   35 1
     4    1   36 1
     5    2    3 1
     6    2    4 1
     7    2   33 1
     8    3   37 1
     9    3   38 1
    10    3   39 1
    11    4    9 ar
    12    4    5 ar
    13    5    6 ar
    14    5   40 1
    15    6    7 ar
    16    6   41 1
    17    7    8 ar
    18    7   10 1
    19    8    9 ar
    20    8   63 1
    21    9   42 1
    22   10   15 1
    23   10   11 1
    24   11   12 1
    25   11   43 1
    26   11   44 1
    27   12   13 1
    28   12   45 1
    29   12   46 1
    30   13   14 1
    31   13   16 1
    32   14   15 1
    33   14   47 1
    34   14   48 1
    35   15   49 1
    36   15   50 1
    37   16   25 ar
    38   16   17 ar
    39   17   22 ar
    40   17   18 ar
    41   18   19 ar
    42   18   51 1
    43   19   20 ar
    44   19   52 1
    45   20   21 ar
    46   20   53 1
    47   21   22 ar
    48   21   54 1
    49   22   23 ar
    50   23   24 ar
    51   23   26 1
    52   24   25 ar
    53   26   27 1
    54   26   55 1
    55   26   56 1
    56   27   32 ar
    57   27   28 ar
    58   28   29 ar
    59   28   57 1
    60   29   30 ar
    61   29   58 1
    62   30   31 ar
    63   30   59 1
    64   31   32 ar
    65   31   60 1
    66   32   61 1
    67   33   62 1
@<TRIPOS>MOLECULE
ZINC43197966
   63    67     0     0     0
SMALL
USER_CHARGES

@<TRIPOS>ATOM
      1 C1         -0.0418    1.5640   -0.3478 C.3       1 <0>        -0.1429
      2 C2         -0.0246    0.0788    0.0194 C.3       1 <0>         0.1778
      3 C3          0.6115   -0.0979    1.3997 C.3       1 <0>        -0.1761
      4 C4         -1.4360   -0.4486    0.0455 C.ar      1 <0>        -0.2064
      5 C5         -1.6934   -1.7789   -0.2593 C.ar      1 <0>        -0.0250
      6 C6         -3.0028   -2.2228   -0.2238 C.ar      1 <0>        -0.2292
      7 C7         -4.0120   -1.3266    0.1142 C.ar      1 <0>         0.3954
      8 N1         -3.7259   -0.0656    0.3985 N.ar      1 <0>        -0.5351
      9 C8         -2.4853    0.3840    0.3781 C.ar      1 <0>         0.1580
     10 N2         -5.3325   -1.7591    0.1534 N.pl3     1 <0>        -0.6139
     11 C9         -6.3832   -0.9035    0.7226 C.3       1 <0>         0.1097
     12 C10        -7.4875   -0.7203   -0.3259 C.3       1 <0>         0.1173
     13 N3         -7.8579   -2.0411   -0.8534 N.pl3     1 <0>        -0.6743
     14 C11        -6.8073   -2.8966   -1.4225 C.3       1 <0>         0.1171
     15 C12        -5.7039   -3.0775   -0.3792 C.3       1 <0>         0.1072
     16 C13        -9.1737   -2.4719   -0.8144 C.ar      1 <0>         0.4796
     17 C14       -10.0453   -2.2237   -1.8994 C.ar      1 <0>        -0.0850
     18 C15        -9.6427   -1.5437   -3.0534 C.ar      1 <0>        -0.0511
     19 C16       -10.5410   -1.3421   -4.0596 C.ar      1 <0>        -0.0756
     20 C17       -11.8516   -1.8023   -3.9556 C.ar      1 <0>        -0.0421
     21 C18       -12.2770   -2.4682   -2.8448 C.ar      1 <0>        -0.0896
     22 C19       -11.3801   -2.6930   -1.7925 C.ar      1 <0>        -0.0436
     23 C20       -11.7433   -3.3726   -0.6147 C.ar      1 <0>         0.2150
     24 N4        -10.8445   -3.5435    0.3268 N.ar      1 <0>        -0.2657
     25 N5         -9.6365   -3.1276    0.2354 N.ar      1 <0>        -0.3029
     26 C21       -13.1450   -3.8966   -0.4366 C.3       1 <0>        -0.0342
     27 C22       -13.2268   -5.3038   -0.9696 C.ar      1 <0>        -0.1068
     28 C23       -13.5550   -5.5232   -2.2943 C.ar      1 <0>        -0.1116
     29 C24       -13.6300   -6.8140   -2.7833 C.ar      1 <0>        -0.1148
     30 C25       -13.3763   -7.8855   -1.9475 C.ar      1 <0>        -0.1042
     31 C26       -13.0472   -7.6661   -0.6229 C.ar      1 <0>        -0.1149
     32 C27       -12.9680   -6.3751   -0.1351 C.ar      1 <0>        -0.1017
     33 O1          0.7359   -0.6431   -0.9514 O.3       1 <0>        -0.5515
     34 H1          0.9791    1.9455   -0.3666 H         1 <0>         0.0719
     35 H2         -0.4950    1.6899   -1.3311 H         1 <0>         0.0658
     36 H3         -0.6219    2.1147    0.3928 H         1 <0>         0.0739
     37 H4          0.0315    0.4528    2.1403 H         1 <0>         0.0682
     38 H5          0.6238   -1.1560    1.6613 H         1 <0>         0.0587
     39 H6          1.6324    0.2836    1.3809 H         1 <0>         0.0722
     40 H7         -0.8892   -2.4516   -0.5187 H         1 <0>         0.1343
     41 H8         -3.2387   -3.2509   -0.4556 H         1 <0>         0.1329
     42 H9         -2.2890    1.4180    0.6205 H         1 <0>         0.1614
     43 H10        -6.7984   -1.3769    1.6123 H         1 <0>         0.0644
     44 H11        -5.9625    0.0674    0.9842 H         1 <0>         0.1193
     45 H12        -8.3573   -0.2540    0.1366 H         1 <0>         0.0902
     46 H13        -7.1207   -0.0920   -1.1375 H         1 <0>         0.0923
     47 H14        -7.2279   -3.8675   -1.6842 H         1 <0>         0.0925
     48 H15        -6.3921   -2.4232   -2.3123 H         1 <0>         0.0918
     49 H16        -4.8347   -3.5420   -0.8449 H         1 <0>         0.1078
     50 H17        -6.0696   -3.7092    0.4303 H         1 <0>         0.0716
     51 H18        -8.6296   -1.1813   -3.1468 H         1 <0>         0.1574
     52 H19       -10.2314   -0.8169   -4.9511 H         1 <0>         0.1582
     53 H20       -12.5418   -1.6286   -4.7679 H         1 <0>         0.1594
     54 H21       -13.2961   -2.8192   -2.7766 H         1 <0>         0.1620
     55 H22       -13.4021   -3.8938    0.6227 H         1 <0>         0.1202
     56 H23       -13.8426   -3.2606   -0.9815 H         1 <0>         0.1194
     57 H24       -13.7532   -4.6860   -2.9473 H         1 <0>         0.1234
     58 H25       -13.8872   -6.9854   -3.8181 H         1 <0>         0.1298
     59 H26       -13.4356   -8.8940   -2.3293 H         1 <0>         0.1294
     60 H27       -12.8493   -8.5032    0.0301 H         1 <0>         0.1295
     61 H28       -12.7072   -6.2035    0.8988 H         1 <0>         0.1276
     62 H29         0.7896   -1.5936   -0.7816 H         1 <0>         0.3741
     63 H30        -9.0328   -3.2986    0.9751 H         1 <0>         0.4613
@<TRIPOS>BOND
     1    1    2 1
     2    1   34 1
     3    1   35 1
     4    1   36 1
     5    2    3 1
     6    2    4 1
     7    2   33 1
     8    3   37 1
     9    3   38 1
    10    3   39 1
    11    4    9 ar
    12    4    5 ar
    13    5    6 ar
    14    5   40 1
    15    6    7 ar
    16    6   41 1
    17    7    8 ar
    18    7   10 1
    19    8    9 ar
    20    9   42 1
    21   10   15 1
    22   10   11 1
    23   11   12 1
    24   11   43 1
    25   11   44 1
    26   12   13 1
    27   12   45 1
    28   12   46 1
    29   13   14 1
    30   13   16 1
    31   14   15 1
    32   14   47 1
    33   14   48 1
    34   15   49 1
    35   15   50 1
    36   16   25 ar
    37   16   17 ar
    38   17   22 ar
    39   17   18 ar
    40   18   19 ar
    41   18   51 1
    42   19   20 ar
    43   19   52 1
    44   20   21 ar
    45   20   53 1
    46   21   22 ar
    47   21   54 1
    48   22   23 ar
    49   23   24 ar
    50   23   26 1
    51   24   25 ar
    52   25   63 1
    53   26   27 1
    54   26   55 1
    55   26   56 1
    56   27   32 ar
    57   27   28 ar
    58   28   29 ar
    59   28   57 1
    60   29   30 ar
    61   29   58 1
    62   30   31 ar
    63   30   59 1
    64   31   32 ar
    65   31   60 1
    66   32   61 1
    67   33   62 1
@<TRIPOS>MOLECULE
ZINC43197966
   62    66     0     0     0
SMALL
USER_CHARGES

@<TRIPOS>ATOM
      1 C1         -0.0409    1.5616   -0.3444 C.3       1 <0>        -0.1412
      2 C2         -0.0234    0.0753    0.0180 C.3       1 <0>         0.1812
      3 C3          0.6141   -0.1060    1.3970 C.3       1 <0>        -0.1744
      4 C4         -1.4349   -0.4521    0.0439 C.ar      1 <0>        -0.2252
      5 C5         -1.6928   -1.7814   -0.2650 C.ar      1 <0>        -0.0246
      6 C6         -3.0021   -2.2252   -0.2296 C.ar      1 <0>        -0.2364
      7 C7         -4.0109   -1.3301    0.1125 C.ar      1 <0>         0.4073
      8 N1         -3.7244   -0.0700    0.4005 N.ar      1 <0>        -0.5395
      9 C8         -2.4838    0.3795    0.3803 C.ar      1 <0>         0.1596
     10 N2         -5.3314   -1.7625    0.1516 N.pl3     1 <0>        -0.6039
     11 C9         -6.3814   -0.9087    0.7247 C.3       1 <0>         0.1104
     12 C10        -7.4868   -0.7221   -0.3220 C.3       1 <0>         0.1351
     13 N3         -7.8579   -2.0411   -0.8534 N.pl3     1 <0>        -0.6547
     14 C11        -6.8080   -2.8949   -1.4264 C.3       1 <0>         0.1346
     15 C12        -5.7035   -3.0792   -0.3848 C.3       1 <0>         0.1080
     16 C13        -9.1737   -2.4719   -0.8144 C.ar      1 <0>         0.3591
     17 C14       -10.0469   -2.2186   -1.8969 C.ar      1 <0>        -0.0808
     18 C15        -9.6459   -1.5334   -3.0485 C.ar      1 <0>        -0.0784
     19 C16       -10.5457   -1.3271   -4.0523 C.ar      1 <0>        -0.1022
     20 C17       -11.8562   -1.7876   -3.9485 C.ar      1 <0>        -0.0951
     21 C18       -12.2801   -2.4585   -2.8401 C.ar      1 <0>        -0.0970
     22 C19       -11.3816   -2.6882   -1.7902 C.ar      1 <0>        -0.0665
     23 C20       -11.7431   -3.3732   -0.6150 C.ar      1 <0>         0.1154
     24 N4        -10.8429   -3.5485    0.3244 N.ar      1 <0>        -0.2488
     25 N5         -9.6350   -3.1324    0.2331 N.ar      1 <0>        -0.2705
     26 C21       -13.1447   -3.8978   -0.4371 C.3       1 <0>        -0.0284
     27 C22       -13.2274   -5.3025   -0.9765 C.ar      1 <0>        -0.0835
     28 C23       -13.5577   -5.5158   -2.3017 C.ar      1 <0>        -0.1148
     29 C24       -13.6336   -6.8043   -2.7964 C.ar      1 <0>        -0.1199
     30 C25       -13.3788   -7.8796   -1.9660 C.ar      1 <0>        -0.1185
     31 C26       -13.0476   -7.6664   -0.6409 C.ar      1 <0>        -0.1187
     32 C27       -12.9675   -6.3777   -0.1473 C.ar      1 <0>        -0.1024
     33 O1          0.7359   -0.6436   -0.9560 O.3       1 <0>        -0.5545
     34 H1          0.9800    1.9431   -0.3631 H         1 <0>         0.0676
     35 H2         -0.4951    1.6908   -1.3268 H         1 <0>         0.0653
     36 H3         -0.6201    2.1099    0.3986 H         1 <0>         0.0733
     37 H4          0.0349    0.4423    2.1400 H         1 <0>         0.0675
     38 H5          0.6266   -1.1649    1.6552 H         1 <0>         0.0579
     39 H6          1.6350    0.2754    1.3783 H         1 <0>         0.0677
     40 H7         -0.8889   -2.4533   -0.5274 H         1 <0>         0.1292
     41 H8         -3.2384   -3.2526   -0.4645 H         1 <0>         0.1326
     42 H9         -2.2871    1.4127    0.6259 H         1 <0>         0.1560
     43 H10        -6.7957   -1.3849    1.6133 H         1 <0>         0.0670
     44 H11        -5.9604    0.0613    0.9890 H         1 <0>         0.1036
     45 H12        -8.3561   -0.2571    0.1429 H         1 <0>         0.0785
     46 H13        -7.1208   -0.0912   -1.1320 H         1 <0>         0.0646
     47 H14        -7.2290   -3.8649   -1.6908 H         1 <0>         0.0807
     48 H15        -6.3937   -2.4187   -2.3150 H         1 <0>         0.0642
     49 H16        -4.8348   -3.5423   -0.8529 H         1 <0>         0.0913
     50 H17        -6.0684   -3.7135    0.4230 H         1 <0>         0.0742
     51 H18        -8.6329   -1.1707   -3.1417 H         1 <0>         0.1365
     52 H19       -10.2374   -0.7978   -4.9418 H         1 <0>         0.1326
     53 H20       -12.5476   -1.6100   -4.7590 H         1 <0>         0.1338
     54 H21       -13.2991   -2.8097   -2.7720 H         1 <0>         0.1390
     55 H22       -13.4002   -3.8998    0.6225 H         1 <0>         0.1018
     56 H23       -13.8430   -3.2592   -0.9781 H         1 <0>         0.0951
     57 H24       -13.7568   -4.6756   -2.9505 H         1 <0>         0.1208
     58 H25       -13.8923   -6.9709   -3.8317 H         1 <0>         0.1228
     59 H26       -13.4388   -8.8864   -2.3523 H         1 <0>         0.1222
     60 H27       -12.8488   -8.5065    0.0079 H         1 <0>         0.1236
     61 H28       -12.7051   -6.2109    0.8870 H         1 <0>         0.1268
     62 H29         0.7897   -1.5946   -0.7893 H         1 <0>         0.3733
@<TRIPOS>BOND
     1    1    2 1
     2    1   34 1
     3    1   35 1
     4    1   36 1
     5    2    3 1
     6    2    4 1
     7    2   33 1
     8    3   37 1
     9    3   38 1
    10    3   39 1
    11    4    9 ar
    12    4    5 ar
    13    5    6 ar
    14    5   40 1
    15    6    7 ar
    16    6   41 1
    17    7    8 ar
    18    7   10 1
    19    8    9 ar
    20    9   42 1
    21   10   15 1
    22   10   11 1
    23   11   12 1
    24   11   43 1
    25   11   44 1
    26   12   13 1
    27   12   45 1
    28   12   46 1
    29   13   14 1
    30   13   16 1
    31   14   15 1
    32   14   47 1
    33   14   48 1
    34   15   49 1
    35   15   50 1
    36   16   25 ar
    37   16   17 ar
    38   17   22 ar
    39   17   18 ar
    40   18   19 ar
    41   18   51 1
    42   19   20 ar
    43   19   52 1
    44   20   21 ar
    45   20   53 1
    46   21   22 ar
    47   21   54 1
    48   22   23 ar
    49   23   24 ar
    50   23   26 1
    51   24   25 ar
    52   26   27 1
    53   26   55 1
    54   26   56 1
    55   27   32 ar
    56   27   28 ar
    57   28   29 ar
    58   28   57 1
    59   29   30 ar
    60   29   58 1
    61   30   31 ar
    62   30   59 1
    63   31   32 ar
    64   31   60 1
    65   32   61 1
    66   33   62 1
@<TRIPOS>MOLECULE
ZINC01393434
   53    57     0     0     0
SMALL
USER_CHARGES
1-benzyl-4-(4-phenylpiperazin-1-yl)-phthalazine
@<TRIPOS>ATOM
      1 C1          1.2750    2.9837    0.0326 C.ar      1 <0>        -0.1182
      2 C2          1.2236    1.6027    0.0003 C.ar      1 <0>        -0.1198
      3 C3          0.0017    0.9563    0.0015 C.ar      1 <0>        -0.1144
      4 C4         -1.1689    1.6911    0.0293 C.ar      1 <0>        -0.0840
      5 C5         -1.1175    3.0720    0.0656 C.ar      1 <0>        -0.1025
      6 C6          0.1045    3.7184    0.0652 C.ar      1 <0>        -0.1187
      7 C7         -2.5011    0.9866    0.0245 C.3       1 <0>        -0.0285
      8 C8         -2.9326    0.7181    1.4432 C.ar      1 <0>         0.1188
      9 C9         -2.5745   -0.4837    2.0824 C.ar      1 <0>        -0.0679
     10 C10        -1.8147   -1.4787    1.4540 C.ar      1 <0>        -0.0992
     11 C11        -1.5073   -2.6174    2.1376 C.ar      1 <0>        -0.0926
     12 C12        -1.9365   -2.8060    3.4493 C.ar      1 <0>        -0.1055
     13 C13        -2.6682   -1.8525    4.0941 C.ar      1 <0>        -0.0698
     14 C14        -3.0066   -0.6744    3.4204 C.ar      1 <0>        -0.0574
     15 C15        -3.7765    0.3522    4.0138 C.ar      1 <0>         0.2771
     16 N1         -4.0502    1.4325    3.3038 N.ar      1 <0>        -0.2860
     17 N2         -3.6520    1.5997    2.0979 N.ar      1 <0>        -0.2494
     18 N3         -4.2355    0.2278    5.3146 N.pl3     1 <0>        -0.4822
     19 C16        -5.7045    0.2361    5.3578 C.3       1 <0>         0.0594
     20 C17        -6.1710    0.0172    6.7990 C.3       1 <0>         0.0634
     21 N4         -5.6158    1.0735    7.6566 N.pl3     1 <0>        -0.4902
     22 C18        -4.1469    1.0652    7.6135 C.3       1 <0>         0.0558
     23 C19        -3.6803    1.2840    6.1723 C.3       1 <0>         0.0600
     24 C20        -6.0787    0.9481    8.9685 C.ar      1 <0>         0.1113
     25 C21        -5.1754    0.8310   10.0172 C.ar      1 <0>        -0.1708
     26 C22        -5.6365    0.7119   11.3136 C.ar      1 <0>        -0.0934
     27 C23        -6.9958    0.6986   11.5671 C.ar      1 <0>        -0.1459
     28 C24        -7.8979    0.8096   10.5249 C.ar      1 <0>        -0.0948
     29 C25        -7.4436    0.9343    9.2267 C.ar      1 <0>        -0.1397
     30 H1          2.2296    3.4887    0.0319 H         1 <0>         0.1224
     31 H2          2.1381    1.0287   -0.0256 H         1 <0>         0.1230
     32 H3         -0.0385   -0.1226   -0.0236 H         1 <0>         0.1211
     33 H4         -2.0320    3.6460    0.0907 H         1 <0>         0.1265
     34 H5          0.1446    4.7973    0.0901 H         1 <0>         0.1237
     35 H6         -3.2428    1.6153   -0.4681 H         1 <0>         0.1018
     36 H7         -2.4108    0.0424   -0.5127 H         1 <0>         0.0959
     37 H8         -1.4760   -1.3451    0.4372 H         1 <0>         0.1392
     38 H9         -0.9213   -3.3853    1.6547 H         1 <0>         0.1341
     39 H10        -1.6780   -3.7178    3.9671 H         1 <0>         0.1338
     40 H11        -2.9944   -2.0114    5.1113 H         1 <0>         0.1453
     41 H12        -6.0734    1.1966    4.9981 H         1 <0>         0.0660
     42 H13        -6.0914   -0.5626    4.7250 H         1 <0>         0.0852
     43 H14        -5.8251   -0.9552    7.1495 H         1 <0>         0.0557
     44 H15        -7.2598    0.0520    6.8379 H         1 <0>         0.0926
     45 H16        -3.7780    0.1047    7.9732 H         1 <0>         0.0582
     46 H17        -3.7599    1.8639    8.2463 H         1 <0>         0.0930
     47 H18        -2.5916    1.2493    6.1334 H         1 <0>         0.0846
     48 H19        -4.0263    2.2564    5.8218 H         1 <0>         0.0655
     49 H20        -4.1137    0.8369    9.8194 H         1 <0>         0.1261
     50 H21        -4.9346    0.6250   12.1298 H         1 <0>         0.1221
     51 H22        -7.3538    0.6016   12.5815 H         1 <0>         0.1211
     52 H23        -8.9589    0.7992   10.7264 H         1 <0>         0.1240
     53 H24        -8.1486    1.0206    8.4131 H         1 <0>         0.1242
@<TRIPOS>BOND
     1    1    6 ar
     2    1    2 ar
     3    1   30 1
     4    2    3 ar
     5    2   31 1
     6    3    4 ar
     7    3   32 1
     8    4    5 ar
     9    4    7 1
    10    5    6 ar
    11    5   33 1
    12    6   34 1
    13    7    8 1
    14    7   35 1
    15    7   36 1
    16    8   17 ar
    17    8    9 ar
    18    9   14 ar
    19    9   10 ar
    20   10   11 ar
    21   10   37 1
    22   11   12 ar
    23   11   38 1
    24   12   13 ar
    25   12   39 1
    26   13   14 ar
    27   13   40 1
    28   14   15 ar
    29   15   16 ar
    30   15   18 1
    31   16   17 ar
    32   18   23 1
    33   18   19 1
    34   19   20 1
    35   19   41 1
    36   19   42 1
    37   20   21 1
    38   20   43 1
    39   20   44 1
    40   21   22 1
    41   21   24 1
    42   22   23 1
    43   22   45 1
    44   22   46 1
    45   23   47 1
    46   23   48 1
    47   24   29 ar
    48   24   25 ar
    49   25   26 ar
    50   25   49 1
    51   26   27 ar
    52   26   50 1
    53   27   28 ar
    54   27   51 1
    55   28   29 ar
    56   28   52 1
    57   29   53 1
@<TRIPOS>MOLECULE
ZINC16480912
   52    56     0     0     0
SMALL
USER_CHARGES
1-benzyl-4-[4-(2-pyridyl)piperazin-1-yl]phthalazine
@<TRIPOS>ATOM
      1 C1          1.2750    2.9837    0.0326 C.ar      1 <0>        -0.1182
      2 C2          1.2236    1.6027    0.0003 C.ar      1 <0>        -0.1198
      3 C3          0.0017    0.9563    0.0015 C.ar      1 <0>        -0.1144
      4 C4         -1.1689    1.6911    0.0293 C.ar      1 <0>        -0.0840
      5 C5         -1.1175    3.0720    0.0656 C.ar      1 <0>        -0.1025
      6 C6          0.1045    3.7184    0.0652 C.ar      1 <0>        -0.1187
      7 C7         -2.5011    0.9866    0.0245 C.3       1 <0>        -0.0284
      8 C8         -2.9326    0.7181    1.4432 C.ar      1 <0>         0.1184
      9 C9         -2.5745   -0.4837    2.0824 C.ar      1 <0>        -0.0677
     10 C10        -1.8147   -1.4787    1.4540 C.ar      1 <0>        -0.0995
     11 C11        -1.5073   -2.6174    2.1376 C.ar      1 <0>        -0.0925
     12 C12        -1.9365   -2.8060    3.4493 C.ar      1 <0>        -0.1057
     13 C13        -2.6682   -1.8525    4.0941 C.ar      1 <0>        -0.0693
     14 C14        -3.0066   -0.6744    3.4204 C.ar      1 <0>        -0.0574
     15 C15        -3.7765    0.3522    4.0138 C.ar      1 <0>         0.2778
     16 N1         -4.0502    1.4325    3.3038 N.ar      1 <0>        -0.2863
     17 N2         -3.6520    1.5997    2.0979 N.ar      1 <0>        -0.2494
     18 N3         -4.2355    0.2278    5.3146 N.pl3     1 <0>        -0.4827
     19 C16        -5.7045    0.2361    5.3578 C.3       1 <0>         0.0607
     20 C17        -6.1710    0.0172    6.7990 C.3       1 <0>         0.0648
     21 N4         -5.6158    1.0735    7.6566 N.pl3     1 <0>        -0.4784
     22 C18        -4.1469    1.0652    7.6135 C.3       1 <0>         0.0738
     23 C19        -3.6803    1.2840    6.1723 C.3       1 <0>         0.0574
     24 C20        -6.0765    0.9487    8.9621 C.ar      1 <0>         0.3121
     25 C21        -7.4452    0.9358    9.2120 C.ar      1 <0>        -0.1861
     26 C22        -7.8897    0.8109   10.5157 C.ar      1 <0>        -0.0529
     27 C23        -6.9470    0.7028   11.5299 C.ar      1 <0>        -0.2009
     28 C24        -5.6045    0.7228   11.2100 C.ar      1 <0>         0.1262
     29 N5         -5.2091    0.8377    9.9562 N.ar      1 <0>        -0.5203
     30 H1          2.2296    3.4887    0.0319 H         1 <0>         0.1223
     31 H2          2.1381    1.0287   -0.0256 H         1 <0>         0.1230
     32 H3         -0.0385   -0.1226   -0.0236 H         1 <0>         0.1211
     33 H4         -2.0320    3.6460    0.0907 H         1 <0>         0.1265
     34 H5          0.1446    4.7973    0.0901 H         1 <0>         0.1237
     35 H6         -3.2428    1.6153   -0.4681 H         1 <0>         0.1017
     36 H7         -2.4108    0.0424   -0.5127 H         1 <0>         0.0958
     37 H8         -1.4760   -1.3451    0.4372 H         1 <0>         0.1390
     38 H9         -0.9213   -3.3853    1.6547 H         1 <0>         0.1339
     39 H10        -1.6780   -3.7178    3.9671 H         1 <0>         0.1337
     40 H11        -2.9944   -2.0114    5.1113 H         1 <0>         0.1456
     41 H12        -6.0734    1.1966    4.9981 H         1 <0>         0.0671
     42 H13        -6.0914   -0.5626    4.7250 H         1 <0>         0.0872
     43 H14        -5.8251   -0.9552    7.1495 H         1 <0>         0.0580
     44 H15        -7.2598    0.0520    6.8379 H         1 <0>         0.0942
     45 H16        -3.7780    0.1047    7.9732 H         1 <0>         0.0621
     46 H17        -3.7599    1.8639    8.2463 H         1 <0>         0.0959
     47 H18        -2.5916    1.2493    6.1334 H         1 <0>         0.0854
     48 H19        -4.0263    2.2564    5.8218 H         1 <0>         0.0641
     49 H20        -8.1509    1.0217    8.3990 H         1 <0>         0.1358
     50 H21        -8.9460    0.7982   10.7401 H         1 <0>         0.1363
     51 H22        -7.2613    0.6037   12.5584 H         1 <0>         0.1348
     52 H23        -4.8681    0.6390   11.9956 H         1 <0>         0.1566
@<TRIPOS>BOND
     1    1    6 ar
     2    1    2 ar
     3    1   30 1
     4    2    3 ar
     5    2   31 1
     6    3    4 ar
     7    3   32 1
     8    4    5 ar
     9    4    7 1
    10    5    6 ar
    11    5   33 1
    12    6   34 1
    13    7    8 1
    14    7   35 1
    15    7   36 1
    16    8   17 ar
    17    8    9 ar
    18    9   14 ar
    19    9   10 ar
    20   10   11 ar
    21   10   37 1
    22   11   12 ar
    23   11   38 1
    24   12   13 ar
    25   12   39 1
    26   13   14 ar
    27   13   40 1
    28   14   15 ar
    29   15   16 ar
    30   15   18 1
    31   16   17 ar
    32   18   23 1
    33   18   19 1
    34   19   20 1
    35   19   41 1
    36   19   42 1
    37   20   21 1
    38   20   43 1
    39   20   44 1
    40   21   22 1
    41   21   24 1
    42   22   23 1
    43   22   45 1
    44   22   46 1
    45   23   47 1
    46   23   48 1
    47   24   29 ar
    48   24   25 ar
    49   25   26 ar
    50   25   49 1
    51   26   27 ar
    52   26   50 1
    53   27   28 ar
    54   27   51 1
    55   28   29 ar
    56   28   52 1
@<TRIPOS>MOLECULE
ZINC19893370
   55    58     0     0     0
SMALL
USER_CHARGES

@<TRIPOS>ATOM
      1 C1          0.1772   -1.3457   -0.5945 C.3       1 <0>        -0.0731
      2 C2          0.0910   -0.0477    0.1662 C.2       1 <0>         0.1152
      3 C3         -0.0273    1.2389   -0.4024 C.2       1 <0>        -0.1811
      4 C4         -0.0748    2.1430    0.6358 C.2       1 <0>         0.1108
      5 N1          0.0106    1.4400    1.7869 N.pl3     1 <0>        -0.3191
      6 N2          0.1070    0.0810    1.4660 N.2       1 <0>        -0.2938
      7 C5         -0.0011    1.9789    3.0804 C.ar      1 <0>         0.1489
      8 C6         -0.8892    2.9967    3.4020 C.ar      1 <0>        -0.1253
      9 C7         -0.8986    3.5255    4.6779 C.ar      1 <0>        -0.1007
     10 C8         -0.0248    3.0423    5.6346 C.ar      1 <0>        -0.1171
     11 C9          0.8609    2.0288    5.3174 C.ar      1 <0>        -0.1018
     12 C10         0.8715    1.4923    4.0447 C.ar      1 <0>        -0.1058
     13 C11        -0.1983    3.6397    0.5111 C.3       1 <0>        -0.0982
     14 C12        -0.0882    1.5568   -1.8432 C.2       1 <0>         0.0929
     15 N3         -0.0327    0.6035   -2.7203 N.2       1 <0>        -0.2223
     16 N4          0.0333    0.9108   -4.0856 N.pl3     1 <0>        -0.5460
     17 C13         0.1881   -0.1508   -5.0917 C.3       1 <0>         0.1679
     18 C14         1.3579    0.2164   -6.0109 C.3       1 <0>         0.0380
     19 N5          1.1432    1.5632   -6.5570 N.3       1 <0>        -0.5304
     20 C15         1.1289    2.5742   -5.4913 C.3       1 <0>         0.0410
     21 C16        -0.0564    2.3030   -4.5513 C.3       1 <0>         0.1053
     22 C17         2.1521    1.8855   -7.5749 C.3       1 <0>         0.0937
     23 C18         1.7629    3.1576   -8.2828 C.ar      1 <0>        -0.0796
     24 C19         0.9678    3.1046   -9.4124 C.ar      1 <0>        -0.0974
     25 C20         0.6108    4.2715  -10.0617 C.ar      1 <0>        -0.1201
     26 C21         1.0485    5.4916   -9.5812 C.ar      1 <0>        -0.1192
     27 C22         1.8428    5.5447   -8.4511 C.ar      1 <0>        -0.1207
     28 C23         2.1963    4.3780   -7.7993 C.ar      1 <0>        -0.1163
     29 H1         -0.8263   -1.7390   -0.7570 H         1 <0>         0.0779
     30 H2          0.6595   -1.1717   -1.5565 H         1 <0>         0.0948
     31 H3          0.7609   -2.0653   -0.0204 H         1 <0>         0.0684
     32 H4         -1.5716    3.3747    2.6552 H         1 <0>         0.1309
     33 H5         -1.5889    4.3173    4.9286 H         1 <0>         0.1341
     34 H6         -0.0338    3.4577    6.6315 H         1 <0>         0.1307
     35 H7          1.5421    1.6536    6.0667 H         1 <0>         0.1333
     36 H8          1.5606    0.6979    3.7987 H         1 <0>         0.1325
     37 H9         -1.2502    3.9115    0.4233 H         1 <0>         0.0871
     38 H10         0.2270    4.1143    1.3953 H         1 <0>         0.0777
     39 H11         0.3390    3.9760   -0.3757 H         1 <0>         0.0881
     40 H12        -0.1789    2.5833   -2.1663 H         1 <0>         0.1123
     41 H13         0.3963   -1.0985   -4.5950 H         1 <0>         0.0875
     42 H14        -0.7264   -0.2351   -5.6788 H         1 <0>         0.0655
     43 H15         2.2872    0.1986   -5.4416 H         1 <0>         0.0394
     44 H16         1.4177   -0.5022   -6.8283 H         1 <0>         0.0886
     45 H17         2.0614    2.5236   -4.9293 H         1 <0>         0.0363
     46 H18         1.0226    3.5655   -5.9319 H         1 <0>         0.0886
     47 H19        -0.9940    2.4501   -5.0874 H         1 <0>         0.0684
     48 H20        -0.0100    2.9785   -3.6971 H         1 <0>         0.0788
     49 H21         3.1221    2.0184   -7.0957 H         1 <0>         0.0431
     50 H22         2.2123    1.0715   -8.2973 H         1 <0>         0.0858
     51 H23         0.6259    2.1514   -9.7877 H         1 <0>         0.1226
     52 H24        -0.0098    4.2300  -10.9446 H         1 <0>         0.1222
     53 H25         0.7702    6.4032  -10.0890 H         1 <0>         0.1212
     54 H26         2.1851    6.4978   -8.0760 H         1 <0>         0.1213
     55 H27         2.8138    4.4198   -6.9143 H         1 <0>         0.1170
@<TRIPOS>BOND
     1    1    2 1
     2    1   29 1
     3    1   30 1
     4    1   31 1
     5    2    6 2
     6    2    3 1
     7    3    4 2
     8    3   14 1
     9    4    5 1
    10    4   13 1
    11    5    6 1
    12    5    7 1
    13    7   12 ar
    14    7    8 ar
    15    8    9 ar
    16    8   32 1
    17    9   10 ar
    18    9   33 1
    19   10   11 ar
    20   10   34 1
    21   11   12 ar
    22   11   35 1
    23   12   36 1
    24   13   37 1
    25   13   38 1
    26   13   39 1
    27   14   15 2
    28   14   40 1
    29   15   16 1
    30   16   21 1
    31   16   17 1
    32   17   18 1
    33   17   41 1
    34   17   42 1
    35   18   19 1
    36   18   43 1
    37   18   44 1
    38   19   20 1
    39   19   22 1
    40   20   21 1
    41   20   45 1
    42   20   46 1
    43   21   47 1
    44   21   48 1
    45   22   23 1
    46   22   49 1
    47   22   50 1
    48   23   28 ar
    49   23   24 ar
    50   24   25 ar
    51   24   51 1
    52   25   26 ar
    53   25   52 1
    54   26   27 ar
    55   26   53 1
    56   27   28 ar
    57   27   54 1
    58   28   55 1
