@<TRIPOS>MOLECULE
ZINC01540245
   78    79     0     0     0
SMALL
USER_CHARGES
N-(2,6-diisopropylphenoxy)sulfonyl-2-(2,4,6-triisopropylphenyl)-acetamide
@<TRIPOS>ATOM
      1 C1          4.5265    6.6415    0.7170 C.3       1 <0>        -0.1600
      2 C2          3.8501    7.4195   -0.4136 C.3       1 <0>        -0.0700
      3 C3          2.9184    8.4772    0.1815 C.3       1 <0>        -0.1477
      4 C4          4.9006    8.0934   -1.2582 C.ar      1 <0>        -0.0662
      5 C5          5.8523    8.8998   -0.6646 C.ar      1 <0>        -0.1072
      6 C6          6.8131    9.5227   -1.4396 C.ar      1 <0>        -0.0888
      7 C7          6.8271    9.3364   -2.8095 C.ar      1 <0>        -0.1050
      8 C8          5.8807    8.5267   -3.4074 C.ar      1 <0>        -0.0384
      9 C9          4.9159    7.9003   -2.6319 C.ar      1 <0>         0.0532
     10 O1          3.9839    7.1033   -3.2176 O.3       1 <0>        -0.6583
     11 S1          4.4592    5.6803   -3.4740 S.o2      1 <0>         2.7417
     12 O2          5.8459    5.7630   -3.7730 O.2       1 <0>        -0.9519
     13 O3          3.5213    5.0933   -4.3656 O.2       1 <0>        -0.9144
     14 N1          4.3319    4.8563   -2.0432 N.am      1 <0>        -1.0715
     15 C10         3.1207    4.4781   -1.5889 C.2       1 <0>         0.5300
     16 O4          2.1329    4.6655   -2.2672 O.2       1 <0>        -0.4564
     17 C11         2.9937    3.8223   -0.2380 C.3       1 <0>        -0.1162
     18 C12         1.5859    3.3166   -0.0554 C.ar      1 <0>        -0.0811
     19 C13         1.2696    2.0146   -0.3954 C.ar      1 <0>        -0.0533
     20 C14        -0.0215    1.5504   -0.2270 C.ar      1 <0>        -0.1152
     21 C15        -0.9978    2.3900    0.2758 C.ar      1 <0>        -0.0627
     22 C16        -0.6805    3.6908    0.6199 C.ar      1 <0>        -0.1120
     23 C17         0.6108    4.1547    0.4524 C.ar      1 <0>        -0.0483
     24 C18         0.9558    5.5738    0.8239 C.3       1 <0>        -0.0663
     25 C19         0.0106    6.5347    0.0999 C.3       1 <0>        -0.1484
     26 C20         0.8080    5.7555    2.3359 C.3       1 <0>        -0.1455
     27 C21        -2.4068    1.8859    0.4536 C.3       1 <0>        -0.0576
     28 C22        -2.8036    1.9899    1.9275 C.3       1 <0>        -0.1434
     29 C23        -3.3613    2.7309   -0.3924 C.3       1 <0>        -0.1448
     30 C24         2.3326    1.1010   -0.9490 C.3       1 <0>        -0.0645
     31 C25         2.5953   -0.0350    0.0417 C.3       1 <0>        -0.1434
     32 C26         1.8593    0.5165   -2.2814 C.3       1 <0>        -0.1473
     33 C27         5.8962    8.3245   -4.9006 C.3       1 <0>        -0.0597
     34 C28         5.7227    9.6743   -5.5999 C.3       1 <0>        -0.1462
     35 C29         7.2303    7.7021   -5.3172 C.3       1 <0>        -0.1516
     36 H1          5.0172    7.3395    1.3954 H         1 <0>         0.0729
     37 H2          3.7768    6.0697    1.2638 H         1 <0>         0.0692
     38 H3          5.2675    5.9612    0.2972 H         1 <0>         0.0588
     39 H4          3.2722    6.7328   -1.0320 H         1 <0>         0.0713
     40 H5          2.5015    9.0866   -0.6203 H         1 <0>         0.0611
     41 H6          2.1097    7.9859    0.7226 H         1 <0>         0.0705
     42 H7          3.4803    9.1125    0.8662 H         1 <0>         0.0634
     43 H8          5.8435    9.0469    0.4053 H         1 <0>         0.1389
     44 H9          7.5538   10.1560   -0.9741 H         1 <0>         0.1369
     45 H10         7.5782    9.8245   -3.4128 H         1 <0>         0.1392
     46 H11         5.1290    4.6459   -1.5321 H         1 <0>         0.4340
     47 H12         3.2227    4.5489    0.5416 H         1 <0>         0.1196
     48 H13         3.6911    2.9872   -0.1726 H         1 <0>         0.1146
     49 H14        -0.2686    0.5331   -0.4926 H         1 <0>         0.1209
     50 H15        -1.4422    4.3454    1.0169 H         1 <0>         0.1212
     51 H16         1.9841    5.7863    0.5312 H         1 <0>         0.0765
     52 H17         0.1760    6.4658   -0.9753 H         1 <0>         0.0611
     53 H18        -1.0218    6.2683    0.3264 H         1 <0>         0.0584
     54 H19         0.2041    7.5544    0.4327 H         1 <0>         0.0592
     55 H20         1.4814    5.0710    2.8516 H         1 <0>         0.0562
     56 H21         1.0575    6.7820    2.6046 H         1 <0>         0.0593
     57 H22        -0.2203    5.5431    2.6285 H         1 <0>         0.0593
     58 H23        -2.4632    0.8451    0.1347 H         1 <0>         0.0767
     59 H24        -3.8227    1.6253    2.0561 H         1 <0>         0.0580
     60 H25        -2.1235    1.3879    2.5302 H         1 <0>         0.0556
     61 H26        -2.7472    3.0307    2.2464 H         1 <0>         0.0562
     62 H27        -3.0786    2.6568   -1.4425 H         1 <0>         0.0566
     63 H28        -4.3804    2.3662   -0.2639 H         1 <0>         0.0581
     64 H29        -3.3049    3.7717   -0.0736 H         1 <0>         0.0563
     65 H30         3.2515    1.6659   -1.1059 H         1 <0>         0.0742
     66 H31         1.6764   -0.5999    0.1987 H         1 <0>         0.0587
     67 H32         3.3641   -0.6958   -0.3587 H         1 <0>         0.0593
     68 H33         2.9324    0.3814    0.9909 H         1 <0>         0.0562
     69 H34         1.6722    1.3258   -2.9871 H         1 <0>         0.0593
     70 H35         2.6282   -0.1443   -2.6818 H         1 <0>         0.0588
     71 H36         0.9405   -0.0484   -2.1244 H         1 <0>         0.0590
     72 H37         5.0805    7.6601   -5.1858 H         1 <0>         0.0596
     73 H38         6.5384   10.3387   -5.3147 H         1 <0>         0.0630
     74 H39         5.7339    9.5281   -6.6800 H         1 <0>         0.0658
     75 H40         4.7723   10.1178   -5.3031 H         1 <0>         0.0582
     76 H41         7.3539    6.7405   -4.8191 H         1 <0>         0.0888
     77 H42         7.2415    7.5558   -6.3973 H         1 <0>         0.0595
     78 H43         8.0460    8.3665   -5.0321 H         1 <0>         0.0576
@<TRIPOS>BOND
     1    1    2 1
     2    1   36 1
     3    1   37 1
     4    1   38 1
     5    2    3 1
     6    2    4 1
     7    2   39 1
     8    3   40 1
     9    3   41 1
    10    3   42 1
    11    4    9 ar
    12    4    5 ar
    13    5    6 ar
    14    5   43 1
    15    6    7 ar
    16    6   44 1
    17    7    8 ar
    18    7   45 1
    19    8    9 ar
    20    8   33 1
    21    9   10 1
    22   10   11 1
    23   11   12 2
    24   11   13 2
    25   11   14 1
    26   14   15 am
    27   14   46 1
    28   15   16 2
    29   15   17 1
    30   17   18 1
    31   17   47 1
    32   17   48 1
    33   18   23 ar
    34   18   19 ar
    35   19   20 ar
    36   19   30 1
    37   20   21 ar
    38   20   49 1
    39   21   22 ar
    40   21   27 1
    41   22   23 ar
    42   22   50 1
    43   23   24 1
    44   24   25 1
    45   24   26 1
    46   24   51 1
    47   25   52 1
    48   25   53 1
    49   25   54 1
    50   26   55 1
    51   26   56 1
    52   26   57 1
    53   27   28 1
    54   27   29 1
    55   27   58 1
    56   28   59 1
    57   28   60 1
    58   28   61 1
    59   29   62 1
    60   29   63 1
    61   29   64 1
    62   30   31 1
    63   30   32 1
    64   30   65 1
    65   31   66 1
    66   31   67 1
    67   31   68 1
    68   32   69 1
    69   32   70 1
    70   32   71 1
    71   33   34 1
    72   33   35 1
    73   33   72 1
    74   34   73 1
    75   34   74 1
    76   34   75 1
    77   35   76 1
    78   35   77 1
    79   35   78 1
@<TRIPOS>MOLECULE
ZINC36349347
   65    65     0     0     0
SMALL
USER_CHARGES

@<TRIPOS>ATOM
      1 C1         -1.2645    1.2168   -0.4045 C.3       1 <0>        -0.1544
      2 C2         -0.9819   -0.2835   -0.3038 C.3       1 <0>        -0.1260
      3 C3         -0.2458   -0.7494   -1.5616 C.3       1 <0>        -0.1214
      4 C4          0.0367   -2.2497   -1.4609 C.3       1 <0>        -0.1210
      5 C5          0.7728   -2.7156   -2.7187 C.3       1 <0>        -0.1206
      6 C6          1.0554   -4.2159   -2.6180 C.3       1 <0>        -0.1205
      7 C7          1.7915   -4.6818   -3.8758 C.3       1 <0>        -0.1139
      8 C8          2.0741   -6.1821   -3.7751 C.3       1 <0>        -0.1018
      9 C9          2.7991   -6.6409   -5.0139 C.2       1 <0>        -0.1598
     10 C10         3.9217   -7.3076   -4.9068 C.2       1 <0>        -0.1601
     11 C11         4.4000   -7.7652   -3.5530 C.3       1 <0>        -0.1019
     12 C12         4.6611   -9.2723   -3.5869 C.3       1 <0>        -0.1142
     13 C13         5.1468   -9.7369   -2.2124 C.3       1 <0>        -0.1199
     14 C14         5.4079  -11.2441   -2.2464 C.3       1 <0>        -0.1205
     15 C15         5.8935  -11.7086   -0.8719 C.3       1 <0>        -0.1199
     16 C16         6.1546  -13.2158   -0.9058 C.3       1 <0>        -0.1059
     17 C17         6.6403  -13.6803    0.4687 C.3       1 <0>        -0.1393
     18 C18         6.8975  -15.1648    0.4353 C.2       1 <0>         0.5113
     19 O1          6.7107  -15.7898   -0.5873 O.2       1 <0>        -0.5181
     20 N1          7.3350  -15.7980    1.5417 N.am      1 <0>        -0.6778
     21 C19         7.4680  -17.1910    1.5442 C.ar      1 <0>         0.1400
     22 C20         7.1845  -17.9149    2.6948 C.ar      1 <0>        -0.1459
     23 C21         7.3168  -19.2897    2.6941 C.ar      1 <0>        -0.1024
     24 C22         7.7309  -19.9453    1.5492 C.ar      1 <0>        -0.1342
     25 C23         8.0144  -19.2273    0.4019 C.ar      1 <0>        -0.1027
     26 C24         7.8781  -17.8529    0.3943 C.ar      1 <0>        -0.1212
     27 H1         -0.3231    1.7585   -0.4962 H         1 <0>         0.0533
     28 H2         -1.8828    1.4121   -1.2807 H         1 <0>         0.0533
     29 H3         -1.7889    1.5487    0.4915 H         1 <0>         0.0534
     30 H4         -0.3636   -0.4788    0.5723 H         1 <0>         0.0602
     31 H5         -1.9233   -0.8252   -0.2122 H         1 <0>         0.0602
     32 H6         -0.8642   -0.5541   -2.4378 H         1 <0>         0.0606
     33 H7          0.6956   -0.2077   -1.6533 H         1 <0>         0.0606
     34 H8          0.6551   -2.4449   -0.5847 H         1 <0>         0.0605
     35 H9         -0.9047   -2.7914   -1.3692 H         1 <0>         0.0606
     36 H10         0.1545   -2.5203   -3.5948 H         1 <0>         0.0607
     37 H11         1.7142   -2.1739   -2.8104 H         1 <0>         0.0607
     38 H12         1.6737   -4.4111   -1.7418 H         1 <0>         0.0607
     39 H13         0.1140   -4.7576   -2.5263 H         1 <0>         0.0611
     40 H14         1.1732   -4.4865   -4.7519 H         1 <0>         0.0612
     41 H15         2.7329   -4.1401   -3.9674 H         1 <0>         0.0615
     42 H16         2.6924   -6.3773   -2.8989 H         1 <0>         0.0758
     43 H17         1.1326   -6.7237   -3.6834 H         1 <0>         0.0678
     44 H18         2.3932   -6.4202   -5.9901 H         1 <0>         0.1072
     45 H19         4.5043   -7.5293   -5.7887 H         1 <0>         0.1073
     46 H20         5.3218   -7.2424   -3.2975 H         1 <0>         0.0675
     47 H21         3.6383   -7.5451   -2.8050 H         1 <0>         0.0758
     48 H22         3.7394   -9.7951   -3.8423 H         1 <0>         0.0619
     49 H23         5.4228   -9.4924   -4.3349 H         1 <0>         0.0616
     50 H24         6.0685   -9.2141   -1.9570 H         1 <0>         0.0613
     51 H25         4.3851   -9.5168   -1.4645 H         1 <0>         0.0610
     52 H26         4.4861  -11.7668   -2.5018 H         1 <0>         0.0625
     53 H27         6.1696  -11.4641   -2.9943 H         1 <0>         0.0626
     54 H28         6.8153  -11.1858   -0.6164 H         1 <0>         0.0627
     55 H29         5.1318  -11.4886   -0.1239 H         1 <0>         0.0626
     56 H30         5.2329  -13.7385   -1.1612 H         1 <0>         0.0707
     57 H31         6.9164  -13.4358   -1.6538 H         1 <0>         0.0708
     58 H32         7.5620  -13.1575    0.7241 H         1 <0>         0.0970
     59 H33         5.8786  -13.4603    1.2167 H         1 <0>         0.0973
     60 H34         7.5578  -15.2881    2.3362 H         1 <0>         0.4113
     61 H35         6.8614  -17.4034    3.5895 H         1 <0>         0.1247
     62 H36         7.0968  -19.8533    3.5887 H         1 <0>         0.1264
     63 H37         7.8335  -21.0204    1.5511 H         1 <0>         0.1237
     64 H38         8.3379  -19.7422   -0.4906 H         1 <0>         0.1258
     65 H39         8.0947  -17.2931   -0.5035 H         1 <0>         0.1382
@<TRIPOS>BOND
     1    1    2 1
     2    1   27 1
     3    1   28 1
     4    1   29 1
     5    2    3 1
     6    2   30 1
     7    2   31 1
     8    3    4 1
     9    3   32 1
    10    3   33 1
    11    4    5 1
    12    4   34 1
    13    4   35 1
    14    5    6 1
    15    5   36 1
    16    5   37 1
    17    6    7 1
    18    6   38 1
    19    6   39 1
    20    7    8 1
    21    7   40 1
    22    7   41 1
    23    8    9 1
    24    8   42 1
    25    8   43 1
    26    9   10 2
    27    9   44 1
    28   10   11 1
    29   10   45 1
    30   11   12 1
    31   11   46 1
    32   11   47 1
    33   12   13 1
    34   12   48 1
    35   12   49 1
    36   13   14 1
    37   13   50 1
    38   13   51 1
    39   14   15 1
    40   14   52 1
    41   14   53 1
    42   15   16 1
    43   15   54 1
    44   15   55 1
    45   16   17 1
    46   16   56 1
    47   16   57 1
    48   17   18 1
    49   17   58 1
    50   17   59 1
    51   18   19 2
    52   18   20 am
    53   20   21 1
    54   20   60 1
    55   21   26 ar
    56   21   22 ar
    57   22   23 ar
    58   22   61 1
    59   23   24 ar
    60   23   62 1
    61   24   25 ar
    62   24   63 1
    63   25   26 ar
    64   25   64 1
    65   26   65 1
@<TRIPOS>MOLECULE
ZINC01533679
   67    68     0     0     0
SMALL
USER_CHARGES
(2,6-diisopropylphenyl) (2,6-diisopropylphenoxy)sulfonylaminoformate
@<TRIPOS>ATOM
      1 C1         -3.2251   -0.3014    8.1219 C.3       1 <0>        -0.1501
      2 C2         -2.7553   -1.7115    7.7591 C.3       1 <0>        -0.0702
      3 C3         -2.0278   -2.3301    8.9545 C.3       1 <0>        -0.1437
      4 C4         -3.9472   -2.5616    7.4016 C.ar      1 <0>        -0.0601
      5 C5         -4.9979   -2.6875    8.2897 C.ar      1 <0>        -0.1101
      6 C6         -6.0893   -3.4715    7.9645 C.ar      1 <0>        -0.0985
      7 C7         -6.1342   -4.1278    6.7484 C.ar      1 <0>        -0.1098
      8 C8         -5.0880   -4.0017    5.8551 C.ar      1 <0>        -0.0619
      9 C9         -3.9920   -3.2153    6.1789 C.ar      1 <0>         0.0836
     10 O1         -2.9611   -3.0900    5.3017 O.3       1 <0>        -0.2810
     11 C10        -2.9871   -2.0267    4.4755 C.2       1 <0>         0.6578
     12 O2         -3.8440   -1.1754    4.6077 O.2       1 <0>        -0.4911
     13 N1         -2.0627   -1.9070    3.5021 N.am      1 <0>        -1.0433
     14 S1         -2.0207   -0.5435    2.5633 S.o2      1 <0>         2.7544
     15 O3         -3.3701   -0.1430    2.3682 O.2       1 <0>        -0.9023
     16 O4         -1.1448   -0.8231    1.4799 O.2       1 <0>        -0.9390
     17 O5         -1.3573    0.5504    3.3878 O.3       1 <0>        -0.6542
     18 C11        -0.0018    0.4636    3.4326 C.ar      1 <0>         0.0482
     19 C12         0.6184   -0.1868    4.4895 C.ar      1 <0>        -0.0662
     20 C13         1.9967   -0.2682    4.5357 C.ar      1 <0>        -0.1058
     21 C14         2.7577    0.2925    3.5267 C.ar      1 <0>        -0.0863
     22 C15         2.1419    0.9363    2.4694 C.ar      1 <0>        -0.1049
     23 C16         0.7639    1.0208    2.4187 C.ar      1 <0>        -0.0369
     24 C17         0.0933    1.7231    1.2662 C.3       1 <0>        -0.0611
     25 C18         0.4690    1.0270   -0.0434 C.3       1 <0>        -0.1520
     26 C19         0.5547    3.1811    1.2194 C.3       1 <0>        -0.1459
     27 C20        -0.2105   -0.7985    5.5893 C.3       1 <0>        -0.0701
     28 C21         0.1885   -2.2640    5.7737 C.3       1 <0>        -0.1547
     29 C22         0.0306   -0.0363    6.8938 C.3       1 <0>        -0.1492
     30 C23        -5.1371   -4.7181    4.5302 C.3       1 <0>        -0.0626
     31 C24        -5.2393   -6.2259    4.7693 C.3       1 <0>        -0.1412
     32 C25        -6.3573   -4.2434    3.7386 C.3       1 <0>        -0.1485
     33 H1         -3.8310   -0.3419    9.0270 H         1 <0>         0.0604
     34 H2         -2.3586    0.3375    8.2930 H         1 <0>         0.0619
     35 H3         -3.8202    0.1050    7.3041 H         1 <0>         0.0620
     36 H4         -2.0768   -1.6606    6.9075 H         1 <0>         0.0826
     37 H5         -2.7063   -2.3810    9.8061 H         1 <0>         0.0608
     38 H6         -1.6931   -3.3347    8.6960 H         1 <0>         0.0583
     39 H7         -1.1657   -1.7152    9.2130 H         1 <0>         0.0626
     40 H8         -4.9651   -2.1757    9.2402 H         1 <0>         0.1319
     41 H9         -6.9081   -3.5716    8.6617 H         1 <0>         0.1310
     42 H10        -6.9877   -4.7399    6.4968 H         1 <0>         0.1325
     43 H11        -1.4220   -2.6195    3.3514 H         1 <0>         0.4390
     44 H12         2.4801   -0.7705    5.3606 H         1 <0>         0.1400
     45 H13         3.8351    0.2278    3.5647 H         1 <0>         0.1380
     46 H14         2.7385    1.3737    1.6826 H         1 <0>         0.1404
     47 H15        -0.9880    1.6882    1.3991 H         1 <0>         0.0612
     48 H16         0.1403   -0.0118   -0.0101 H         1 <0>         0.0863
     49 H17         1.5503    1.0618   -0.1763 H         1 <0>         0.0587
     50 H18        -0.0161    1.5349   -0.8770 H         1 <0>         0.0609
     51 H19         0.0696    3.6891    0.3858 H         1 <0>         0.0662
     52 H20         0.2871    3.6770    2.1524 H         1 <0>         0.0586
     53 H21         1.6360    3.2160    1.0865 H         1 <0>         0.0632
     54 H22        -1.2662   -0.7400    5.3241 H         1 <0>         0.0660
     55 H23         0.1348   -2.7787    4.8144 H         1 <0>         0.0559
     56 H24         1.2071   -2.3176    6.1582 H         1 <0>         0.0701
     57 H25        -0.4919   -2.7398    6.4799 H         1 <0>         0.0728
     58 H26        -0.3342    0.9857    6.7902 H         1 <0>         0.0613
     59 H27        -0.5005   -0.5309    7.7071 H         1 <0>         0.0718
     60 H28         1.0981   -0.0205    7.1135 H         1 <0>         0.0646
     61 H29        -4.2305   -4.5004    3.9656 H         1 <0>         0.0757
     62 H30        -6.1459   -6.4436    5.3339 H         1 <0>         0.0596
     63 H31        -5.2748   -6.7441    3.8110 H         1 <0>         0.0619
     64 H32        -4.3700   -6.5641    5.3332 H         1 <0>         0.0579
     65 H33        -6.2844   -3.1693    3.5683 H         1 <0>         0.0590
     66 H34        -6.3928   -4.7616    2.7803 H         1 <0>         0.0625
     67 H35        -7.2639   -4.4611    4.3032 H         1 <0>         0.0611
@<TRIPOS>BOND
     1    1    2 1
     2    1   33 1
     3    1   34 1
     4    1   35 1
     5    2    3 1
     6    2    4 1
     7    2   36 1
     8    3   37 1
     9    3   38 1
    10    3   39 1
    11    4    9 ar
    12    4    5 ar
    13    5    6 ar
    14    5   40 1
    15    6    7 ar
    16    6   41 1
    17    7    8 ar
    18    7   42 1
    19    8    9 ar
    20    8   30 1
    21    9   10 1
    22   10   11 1
    23   11   12 2
    24   11   13 am
    25   13   14 1
    26   13   43 1
    27   14   15 2
    28   14   16 2
    29   14   17 1
    30   17   18 1
    31   18   23 ar
    32   18   19 ar
    33   19   20 ar
    34   19   27 1
    35   20   21 ar
    36   20   44 1
    37   21   22 ar
    38   21   45 1
    39   22   23 ar
    40   22   46 1
    41   23   24 1
    42   24   25 1
    43   24   26 1
    44   24   47 1
    45   25   48 1
    46   25   49 1
    47   25   50 1
    48   26   51 1
    49   26   52 1
    50   26   53 1
    51   27   28 1
    52   27   29 1
    53   27   54 1
    54   28   55 1
    55   28   56 1
    56   28   57 1
    57   29   58 1
    58   29   59 1
    59   29   60 1
    60   30   31 1
    61   30   32 1
    62   30   61 1
    63   31   62 1
    64   31   63 1
    65   31   64 1
    66   32   65 1
    67   32   66 1
    68   32   67 1
@<TRIPOS>MOLECULE
ZINC08022586
   67    67     0     0     0
SMALL
USER_CHARGES
2,2-dimethyl-N-(2,4,6-trimethoxyphenyl)-dodecanamide
@<TRIPOS>ATOM
      1 C1          8.9988   16.8566   -3.3957 C.3       1 <0>        -0.1542
      2 C2          7.6711   16.1053   -3.2782 C.3       1 <0>        -0.1263
      3 C3          7.9361   14.6704   -2.8180 C.3       1 <0>        -0.1211
      4 C4          6.6084   13.9192   -2.7005 C.3       1 <0>        -0.1214
      5 C5          6.8734   12.4843   -2.2403 C.3       1 <0>        -0.1202
      6 C6          5.5457   11.7330   -2.1228 C.3       1 <0>        -0.1210
      7 C7          5.8107   10.2981   -1.6627 C.3       1 <0>        -0.1192
      8 C8          4.4830    9.5468   -1.5451 C.3       1 <0>        -0.1203
      9 C9          4.7480    8.1119   -1.0850 C.3       1 <0>        -0.1222
     10 C10         3.4203    7.3607   -0.9675 C.3       1 <0>        -0.0945
     11 C11         3.6852    5.9258   -0.5073 C.3       1 <0>        -0.0776
     12 C12         4.3813    5.9474    0.8550 C.3       1 <0>        -0.1427
     13 C13         4.5818    5.2205   -1.5270 C.3       1 <0>        -0.1411
     14 C14         2.3775    5.1858   -0.3915 C.2       1 <0>         0.5322
     15 O1          1.3359    5.7506   -0.6516 O.2       1 <0>        -0.5283
     16 N1          2.3652    3.8965    0.0009 N.am      1 <0>        -0.6601
     17 C15         1.1591    3.1756    0.0077 C.ar      1 <0>         0.0310
     18 C16         0.7612    2.4725   -1.1250 C.ar      1 <0>         0.2111
     19 C17        -0.4288    1.7618   -1.1157 C.ar      1 <0>        -0.2738
     20 C18        -1.2253    1.7559    0.0195 C.ar      1 <0>         0.2113
     21 C19        -0.8280    2.4513    1.1518 C.ar      1 <0>        -0.3286
     22 C20         0.3611    3.1634    1.1473 C.ar      1 <0>         0.2134
     23 O2          0.7476    3.8492    2.2560 O.3       1 <0>        -0.2999
     24 C21        -0.1207    3.7924    3.3895 C.3       1 <0>         0.0252
     25 O3         -2.3949    1.0626    0.0244 O.3       1 <0>        -0.3098
     26 C22        -3.1659    1.0995    1.2269 C.3       1 <0>         0.0249
     27 O4          1.5388    2.4829   -2.2404 O.3       1 <0>        -0.2996
     28 C23         1.0681    1.7395   -3.3664 C.3       1 <0>         0.0237
     29 H1          9.4947   16.8720   -2.4252 H         1 <0>         0.0532
     30 H2          9.6375   16.3541   -4.1221 H         1 <0>         0.0532
     31 H3          8.8101   17.8788   -3.7236 H         1 <0>         0.0533
     32 H4          7.1752   16.0899   -4.2487 H         1 <0>         0.0602
     33 H5          7.0324   16.6078   -2.5518 H         1 <0>         0.0602
     34 H6          8.4320   14.6858   -1.8475 H         1 <0>         0.0604
     35 H7          8.5748   14.1680   -3.5445 H         1 <0>         0.0604
     36 H8          6.1125   13.9038   -3.6711 H         1 <0>         0.0605
     37 H9          5.9697   14.4216   -1.9741 H         1 <0>         0.0604
     38 H10         7.3693   12.4997   -1.2698 H         1 <0>         0.0602
     39 H11         7.5121   11.9818   -2.9668 H         1 <0>         0.0602
     40 H12         5.0498   11.7176   -3.0934 H         1 <0>         0.0605
     41 H13         4.9070   12.2354   -1.3964 H         1 <0>         0.0604
     42 H14         6.3066   10.3135   -0.6921 H         1 <0>         0.0601
     43 H15         6.4494    9.7957   -2.3891 H         1 <0>         0.0602
     44 H16         3.9871    9.5314   -2.5157 H         1 <0>         0.0611
     45 H17         3.8443   10.0493   -0.8187 H         1 <0>         0.0610
     46 H18         5.2438    8.1273   -0.1144 H         1 <0>         0.0650
     47 H19         5.3867    7.6095   -1.8114 H         1 <0>         0.0652
     48 H20         2.9244    7.3453   -1.9380 H         1 <0>         0.0686
     49 H21         2.7816    7.8631   -0.2410 H         1 <0>         0.0684
     50 H22         4.5701    4.9251    1.1829 H         1 <0>         0.0585
     51 H23         5.3272    6.4826    0.7713 H         1 <0>         0.0721
     52 H24         3.7426    6.4498    1.5815 H         1 <0>         0.0613
     53 H25         4.0859    5.2051   -2.4975 H         1 <0>         0.0614
     54 H26         5.5276    5.7557   -1.6107 H         1 <0>         0.0713
     55 H27         4.7705    4.1983   -1.1991 H         1 <0>         0.0594
     56 H28         3.1890    3.4662    0.2786 H         1 <0>         0.4034
     57 H29        -0.7381    1.2159   -1.9948 H         1 <0>         0.1432
     58 H30        -1.4478    2.4415    2.0362 H         1 <0>         0.1404
     59 H31        -1.0965    4.1968    3.1203 H         1 <0>         0.0577
     60 H32        -0.2325    2.7566    3.7100 H         1 <0>         0.0578
     61 H33         0.3045    4.3805    4.2027 H         1 <0>         0.1043
     62 H34        -2.5785    0.6886    2.0480 H         1 <0>         0.0580
     63 H35        -3.4359    2.1309    1.4539 H         1 <0>         0.0582
     64 H36        -4.0716    0.5072    1.0962 H         1 <0>         0.1046
     65 H37         0.9647    0.6898   -3.0912 H         1 <0>         0.0605
     66 H38         0.1001    2.1298   -3.6806 H         1 <0>         0.0601
     67 H39         1.7805    1.8317   -4.1862 H         1 <0>         0.1040
@<TRIPOS>BOND
     1    1    2 1
     2    1   29 1
     3    1   30 1
     4    1   31 1
     5    2    3 1
     6    2   32 1
     7    2   33 1
     8    3    4 1
     9    3   34 1
    10    3   35 1
    11    4    5 1
    12    4   36 1
    13    4   37 1
    14    5    6 1
    15    5   38 1
    16    5   39 1
    17    6    7 1
    18    6   40 1
    19    6   41 1
    20    7    8 1
    21    7   42 1
    22    7   43 1
    23    8    9 1
    24    8   44 1
    25    8   45 1
    26    9   10 1
    27    9   46 1
    28    9   47 1
    29   10   11 1
    30   10   48 1
    31   10   49 1
    32   11   12 1
    33   11   13 1
    34   11   14 1
    35   12   50 1
    36   12   51 1
    37   12   52 1
    38   13   53 1
    39   13   54 1
    40   13   55 1
    41   14   15 2
    42   14   16 am
    43   16   17 1
    44   16   56 1
    45   17   22 ar
    46   17   18 ar
    47   18   19 ar
    48   18   27 1
    49   19   20 ar
    50   19   57 1
    51   20   21 ar
    52   20   25 1
    53   21   22 ar
    54   21   58 1
    55   22   23 1
    56   23   24 1
    57   24   59 1
    58   24   60 1
    59   24   61 1
    60   25   26 1
    61   26   62 1
    62   26   63 1
    63   26   64 1
    64   27   28 1
    65   28   65 1
    66   28   66 1
    67   28   67 1
@<TRIPOS>MOLECULE
ZINC36330844
   67    68     0     0     0
SMALL
USER_CHARGES

@<TRIPOS>ATOM
      1 C1         -0.0297    1.5392   -0.0459 C.3       1 <0>        -0.1544
      2 C2         -0.0109    0.0093   -0.0496 C.3       1 <0>        -0.1263
      3 C3          0.7145   -0.4888   -1.3012 C.3       1 <0>        -0.1207
      4 C4          0.7333   -2.0187   -1.3049 C.3       1 <0>        -0.1199
      5 C5          1.4587   -2.5168   -2.5565 C.3       1 <0>        -0.1177
      6 C6          1.4775   -4.0467   -2.5601 C.3       1 <0>        -0.1410
      7 C7          2.2030   -4.5448   -3.8118 C.3       1 <0>         0.1061
      8 N1          2.2210   -6.0097   -3.8153 N.am      1 <0>        -0.6143
      9 C8          1.1303   -6.7541   -4.4496 C.3       1 <0>         0.1725
     10 C9          1.4647   -6.9977   -5.8988 C.ar      1 <0>        -0.1165
     11 C10         1.0914   -6.0756   -6.8587 C.ar      1 <0>        -0.1043
     12 C11         1.3981   -6.2991   -8.1879 C.ar      1 <0>        -0.1200
     13 C12         2.0785   -7.4443   -8.5572 C.ar      1 <0>        -0.0668
     14 C13         2.4525   -8.3660   -7.5972 C.ar      1 <0>        -0.1188
     15 C14         2.1496   -8.1404   -6.2674 C.ar      1 <0>        -0.0907
     16 C15         2.4120   -7.6884  -10.0064 C.3       1 <0>        -0.0745
     17 C16         3.7798   -7.0811  -10.3242 C.3       1 <0>        -0.0625
     18 C17         4.8448   -7.7319   -9.4392 C.3       1 <0>        -0.1449
     19 C18         4.1184   -7.3289  -11.7956 C.3       1 <0>        -0.1428
     20 C19         3.7441   -5.5753  -10.0557 C.3       1 <0>        -0.1443
     21 C20         3.2410   -6.6725   -3.2349 C.2       1 <0>         0.7117
     22 O1          3.2559   -7.8883   -3.2378 O.2       1 <0>        -0.5667
     23 N2          4.2444   -5.9876   -2.6513 N.am      1 <0>        -0.6825
     24 C21         5.2569   -6.6747   -1.9671 C.ar      1 <0>         0.1261
     25 C22         5.6844   -7.9145   -2.4208 C.ar      1 <0>        -0.0647
     26 C23         6.6826   -8.5901   -1.7457 C.ar      1 <0>        -0.1413
     27 C24         7.2571   -8.0318   -0.6162 C.ar      1 <0>         0.1136
     28 C25         6.8329   -6.7953   -0.1602 C.ar      1 <0>        -0.1717
     29 C26         5.8382   -6.1124   -0.8363 C.ar      1 <0>         0.0997
     30 F1          5.4282   -4.9030   -0.3953 F         1 <0>        -0.1291
     31 F2          8.2328   -8.6951    0.0422 F         1 <0>        -0.1303
     32 H1          0.9934    1.9152   -0.0467 H         1 <0>         0.0535
     33 H2         -0.5494    1.8983   -0.9342 H         1 <0>         0.0534
     34 H3         -0.5465    1.8941    0.8458 H         1 <0>         0.0537
     35 H4          0.5088   -0.3498    0.8387 H         1 <0>         0.0605
     36 H5         -1.0340   -0.3666   -0.0488 H         1 <0>         0.0603
     37 H6          0.1948   -0.1297   -2.1895 H         1 <0>         0.0612
     38 H7          1.7376   -0.1128   -1.3019 H         1 <0>         0.0613
     39 H8          1.2530   -2.3778   -0.4166 H         1 <0>         0.0619
     40 H9         -0.2898   -2.3946   -1.3041 H         1 <0>         0.0618
     41 H10         0.9390   -2.1577   -3.4448 H         1 <0>         0.0653
     42 H11         2.4819   -2.1408   -2.5572 H         1 <0>         0.0638
     43 H12         1.9972   -4.4058   -1.6719 H         1 <0>         0.0661
     44 H13         0.4544   -4.4226   -2.5594 H         1 <0>         0.0711
     45 H14         1.6833   -4.1857   -4.7000 H         1 <0>         0.0878
     46 H15         3.2261   -4.1688   -3.8125 H         1 <0>         0.0717
     47 H16         0.9988   -7.7094   -3.9416 H         1 <0>         0.0955
     48 H17         0.2084   -6.1765   -4.3816 H         1 <0>         0.0880
     49 H18         0.5599   -5.1809   -6.5701 H         1 <0>         0.1179
     50 H19         1.1059   -5.5791   -8.9379 H         1 <0>         0.1198
     51 H20         2.9838   -9.2609   -7.8857 H         1 <0>         0.1199
     52 H21         2.4451   -8.8587   -5.5169 H         1 <0>         0.1276
     53 H22         2.4374   -8.7612  -10.1977 H         1 <0>         0.0723
     54 H23         1.6533   -7.2248  -10.6369 H         1 <0>         0.0720
     55 H24         4.8703   -8.8046   -9.6305 H         1 <0>         0.0538
     56 H25         5.8193   -7.2992   -9.6657 H         1 <0>         0.0529
     57 H26         4.6036   -7.5553   -8.3910 H         1 <0>         0.0593
     58 H27         3.3597   -6.8653  -12.4261 H         1 <0>         0.0551
     59 H28         5.0929   -6.8963  -12.0220 H         1 <0>         0.0562
     60 H29         4.1439   -8.4017  -11.9869 H         1 <0>         0.0553
     61 H30         3.5029   -5.3988   -9.0075 H         1 <0>         0.0591
     62 H31         4.7186   -5.1426  -10.2822 H         1 <0>         0.0528
     63 H32         2.9854   -5.1117  -10.6862 H         1 <0>         0.0534
     64 H33         4.2660   -5.0193   -2.7047 H         1 <0>         0.4102
     65 H34         5.2366   -8.3513   -3.3012 H         1 <0>         0.1623
     66 H35         7.0150   -9.5550   -2.0991 H         1 <0>         0.1474
     67 H36         7.2821   -6.3618    0.7211 H         1 <0>         0.1529
@<TRIPOS>BOND
     1    1    2 1
     2    1   32 1
     3    1   33 1
     4    1   34 1
     5    2    3 1
     6    2   35 1
     7    2   36 1
     8    3    4 1
     9    3   37 1
    10    3   38 1
    11    4    5 1
    12    4   39 1
    13    4   40 1
    14    5    6 1
    15    5   41 1
    16    5   42 1
    17    6    7 1
    18    6   43 1
    19    6   44 1
    20    7    8 1
    21    7   45 1
    22    7   46 1
    23    8    9 1
    24    8   21 am
    25    9   10 1
    26    9   47 1
    27    9   48 1
    28   10   15 ar
    29   10   11 ar
    30   11   12 ar
    31   11   49 1
    32   12   13 ar
    33   12   50 1
    34   13   14 ar
    35   13   16 1
    36   14   15 ar
    37   14   51 1
    38   15   52 1
    39   16   17 1
    40   16   53 1
    41   16   54 1
    42   17   18 1
    43   17   19 1
    44   17   20 1
    45   18   55 1
    46   18   56 1
    47   18   57 1
    48   19   58 1
    49   19   59 1
    50   19   60 1
    51   20   61 1
    52   20   62 1
    53   20   63 1
    54   21   22 2
    55   21   23 am
    56   23   24 1
    57   23   64 1
    58   24   29 ar
    59   24   25 ar
    60   25   26 ar
    61   25   65 1
    62   26   27 ar
    63   26   66 1
    64   27   28 ar
    65   27   31 1
    66   28   29 ar
    67   28   67 1
    68   29   30 1
@<TRIPOS>MOLECULE
ZINC00325294
   36    39     0     0     0
SMALL
USER_CHARGES
2-(2-furyl)-4,5-diphenyl-1H-imidazole
@<TRIPOS>ATOM
      1 C1         -3.3633   -2.5917    0.0214 C.ar      1 <0>        -0.1091
      2 C2         -2.3085   -2.8403   -0.8392 C.ar      1 <0>        -0.1169
      3 C3         -1.2119   -2.0040   -0.8510 C.ar      1 <0>        -0.1086
      4 C4         -1.1676   -0.9035    0.0088 C.ar      1 <0>        -0.0263
      5 C5         -2.2337   -0.6620    0.8790 C.ar      1 <0>        -0.0841
      6 C6         -3.3263   -1.5037    0.8758 C.ar      1 <0>        -0.1149
      7 C7          0.0021   -0.0041    0.0020 C.2       1 <0>         0.0474
      8 C8         -0.0167    1.3806    0.0096 C.2       1 <0>         0.0705
      9 N1          1.2554    1.8088   -0.0002 N.2       1 <0>        -0.4428
     10 C9          2.0687    0.7738   -0.0135 C.2       1 <0>         0.2913
     11 N2          1.3281   -0.3759   -0.0126 N.pl3     1 <0>        -0.5542
     12 H1          1.6827   -1.3109   -0.0210 H         1 <0>         0.4334
     13 C10         3.5372    0.8428   -0.0276 C.2       1 <0>         0.0359
     14 C11         4.2852    1.9826   -0.0341 C.2       1 <0>        -0.1388
     15 C12         5.6340    1.5816   -0.0439 C.2       1 <0>        -0.2118
     16 C13         5.6463    0.2330   -0.0521 C.2       1 <0>        -0.0200
     17 O1          4.3791   -0.2098   -0.0423 O.3       1 <0>        -0.1774
     18 C14        -1.2257    2.2370    0.0202 C.ar      1 <0>        -0.0078
     19 C15        -2.3696    1.8419   -0.6728 C.ar      1 <0>        -0.0990
     20 C16        -3.4944    2.6409   -0.6545 C.ar      1 <0>        -0.1197
     21 C17        -3.4852    3.8373    0.0401 C.ar      1 <0>        -0.1151
     22 C18        -2.3516    4.2373    0.7248 C.ar      1 <0>        -0.1213
     23 C19        -1.2225    3.4441    0.7186 C.ar      1 <0>        -0.0909
     24 H2         -4.2196   -3.2498    0.0261 H         1 <0>         0.1262
     25 H3         -2.3442   -3.6911   -1.5035 H         1 <0>         0.1269
     26 H4         -0.3895   -2.1990   -1.5234 H         1 <0>         0.1204
     27 H5         -2.2042    0.1842    1.5494 H         1 <0>         0.1279
     28 H6         -4.1531   -1.3157    1.5447 H         1 <0>         0.1289
     29 H7          3.9143    2.9969   -0.0299 H         1 <0>         0.1612
     30 H8          6.4967    2.2313   -0.0485 H         1 <0>         0.1579
     31 H9          6.5298   -0.3881   -0.0649 H         1 <0>         0.2113
     32 H10        -2.3765    0.9102   -1.2191 H         1 <0>         0.1222
     33 H11        -4.3823    2.3338   -1.1871 H         1 <0>         0.1238
     34 H12        -4.3666    4.4613    0.0482 H         1 <0>         0.1225
     35 H13        -2.3502    5.1725    1.2650 H         1 <0>         0.1246
     36 H14        -0.3383    3.7573    1.2538 H         1 <0>         0.1267
@<TRIPOS>BOND
     1    1    6 ar
     2    1    2 ar
     3    1   24 1
     4    2    3 ar
     5    2   25 1
     6    3    4 ar
     7    3   26 1
     8    4    5 ar
     9    4    7 1
    10    5    6 ar
    11    5   27 1
    12    6   28 1
    13    7   11 1
    14    7    8 2
    15    8    9 1
    16    8   18 1
    17    9   10 2
    18   10   11 1
    19   10   13 1
    20   11   12 1
    21   13   17 1
    22   13   14 2
    23   14   15 1
    24   14   29 1
    25   15   16 2
    26   15   30 1
    27   16   17 1
    28   16   31 1
    29   18   23 ar
    30   18   19 ar
    31   19   20 ar
    32   19   32 1
    33   20   21 ar
    34   20   33 1
    35   21   22 ar
    36   21   34 1
    37   22   23 ar
    38   22   35 1
    39   23   36 1
@<TRIPOS>MOLECULE
ZINC01889413
   62    64     0     0     0
SMALL
USER_CHARGES
1-(2,6-diisopropylphenyl)-3-[(1-phenylcyclopentyl)methyl]urea
@<TRIPOS>ATOM
      1 C1          3.1748    0.0129    3.4807 C.3       1 <0>        -0.1339
      2 C2          1.7064   -0.4142    3.4325 C.3       1 <0>        -0.0546
      3 C3          1.6220   -1.9342    3.2799 C.3       1 <0>        -0.1443
      4 C4          1.0202    0.0014    4.7083 C.ar      1 <0>        -0.0587
      5 C5          1.5677   -0.3383    5.9300 C.ar      1 <0>        -0.1094
      6 C6          0.9357    0.0377    7.1011 C.ar      1 <0>        -0.1202
      7 C7         -0.2431    0.7591    7.0532 C.ar      1 <0>        -0.1090
      8 C8         -0.7929    1.1063    5.8347 C.ar      1 <0>        -0.0859
      9 C9         -0.1606    0.7303    4.6569 C.ar      1 <0>         0.1610
     10 N1         -0.7154    1.0802    3.4207 N.am      1 <0>        -0.6907
     11 C10         0.0356    1.7188    2.5016 C.2       1 <0>         0.7031
     12 O1          1.1754    2.0467    2.7692 O.2       1 <0>        -0.5634
     13 N2         -0.4770    1.9941    1.2859 N.am      1 <0>        -0.7409
     14 C11         0.3393    2.6883    0.2868 C.3       1 <0>         0.1509
     15 C12        -0.5120    2.9873   -0.9488 C.3       1 <0>        -0.0327
     16 C13        -1.1287    1.6862   -1.4915 C.3       1 <0>        -0.1180
     17 C14        -0.5946    1.5130   -2.9295 C.3       1 <0>        -0.1234
     18 C15         0.7223    2.3281   -2.9469 C.3       1 <0>        -0.1262
     19 C16         0.3736    3.5597   -2.0748 C.3       1 <0>        -0.1086
     20 C17        -1.6013    3.9684   -0.5996 C.ar      1 <0>        -0.0734
     21 C18        -1.6618    4.5109    0.6704 C.ar      1 <0>        -0.1185
     22 C19        -2.6578    5.4149    0.9891 C.ar      1 <0>        -0.1176
     23 C20        -3.5999    5.7681    0.0411 C.ar      1 <0>        -0.1220
     24 C21        -3.5428    5.2212   -1.2272 C.ar      1 <0>        -0.1187
     25 C22        -2.5434    4.3216   -1.5476 C.ar      1 <0>        -0.1127
     26 C23        -2.0778    1.8921    5.7834 C.3       1 <0>        -0.0537
     27 C24        -3.1878    1.1003    6.4775 C.3       1 <0>        -0.1448
     28 C25        -1.8849    3.2321    6.4962 C.3       1 <0>        -0.1421
     29 H1          3.2348    1.0958    3.5895 H         1 <0>         0.0663
     30 H2          3.6645   -0.4652    4.3290 H         1 <0>         0.0478
     31 H3          3.6710   -0.2877    2.5580 H         1 <0>         0.0495
     32 H4          1.2166    0.0639    2.5842 H         1 <0>         0.0842
     33 H5          0.5759   -2.2385    3.2455 H         1 <0>         0.0502
     34 H6          2.1183   -2.2348    2.3571 H         1 <0>         0.0552
     35 H7          2.1118   -2.4123    4.1282 H         1 <0>         0.0547
     36 H8          2.4882   -0.9016    5.9707 H         1 <0>         0.1233
     37 H9          1.3634   -0.2330    8.0551 H         1 <0>         0.1226
     38 H10        -0.7345    1.0509    7.9695 H         1 <0>         0.1234
     39 H11        -1.6403    0.8630    3.2253 H         1 <0>         0.4027
     40 H12        -1.3863    1.7325    1.0723 H         1 <0>         0.3977
     41 H13         1.1816    2.0571    0.0036 H         1 <0>         0.0715
     42 H14         0.7107    3.6229    0.7070 H         1 <0>         0.0739
     43 H15        -0.8215    0.8417   -0.8746 H         1 <0>         0.0709
     44 H16        -2.2158    1.7647   -1.5031 H         1 <0>         0.0703
     45 H17        -1.3039    1.9188   -3.6509 H         1 <0>         0.0663
     46 H18        -0.3956    0.4619   -3.1387 H         1 <0>         0.0672
     47 H19         0.9746    2.6329   -3.9626 H         1 <0>         0.0699
     48 H20         1.5362    1.7567   -2.5006 H         1 <0>         0.0693
     49 H21        -0.1793    4.2960   -2.6581 H         1 <0>         0.0757
     50 H22         1.2782    4.0043   -1.6599 H         1 <0>         0.0725
     51 H23        -0.9284    4.2316    1.4124 H         1 <0>         0.1270
     52 H24        -2.7023    5.8424    1.9799 H         1 <0>         0.1192
     53 H25        -4.3803    6.4715    0.2912 H         1 <0>         0.1199
     54 H26        -4.2788    5.4971   -1.9679 H         1 <0>         0.1210
     55 H27        -2.4987    3.8943   -2.5385 H         1 <0>         0.1212
     56 H28        -2.3537    2.0699    4.7440 H         1 <0>         0.0730
     57 H29        -3.3252    0.1457    5.9697 H         1 <0>         0.0547
     58 H30        -2.9119    0.9225    7.5169 H         1 <0>         0.0587
     59 H31        -4.1172    1.6686    6.4404 H         1 <0>         0.0583
     60 H32        -1.0941    3.7962    6.0018 H         1 <0>         0.0551
     61 H33        -2.8143    3.8004    6.4592 H         1 <0>         0.0574
     62 H34        -1.6090    3.0543    7.5356 H         1 <0>         0.0578
@<TRIPOS>BOND
     1    1    2 1
     2    1   29 1
     3    1   30 1
     4    1   31 1
     5    2    3 1
     6    2    4 1
     7    2   32 1
     8    3   33 1
     9    3   34 1
    10    3   35 1
    11    4    9 ar
    12    4    5 ar
    13    5    6 ar
    14    5   36 1
    15    6    7 ar
    16    6   37 1
    17    7    8 ar
    18    7   38 1
    19    8    9 ar
    20    8   26 1
    21    9   10 1
    22   10   11 am
    23   10   39 1
    24   11   12 2
    25   11   13 am
    26   13   14 1
    27   13   40 1
    28   14   15 1
    29   14   41 1
    30   14   42 1
    31   15   19 1
    32   15   16 1
    33   15   20 1
    34   16   17 1
    35   16   43 1
    36   16   44 1
    37   17   18 1
    38   17   45 1
    39   17   46 1
    40   18   19 1
    41   18   47 1
    42   18   48 1
    43   19   49 1
    44   19   50 1
    45   20   25 ar
    46   20   21 ar
    47   21   22 ar
    48   21   51 1
    49   22   23 ar
    50   22   52 1
    51   23   24 ar
    52   23   53 1
    53   24   25 ar
    54   24   54 1
    55   25   55 1
    56   26   27 1
    57   26   28 1
    58   26   56 1
    59   27   57 1
    60   27   58 1
    61   27   59 1
    62   28   60 1
    63   28   61 1
    64   28   62 1
@<TRIPOS>MOLECULE
ZINC13755447
   53    56     0     0     0
SMALL
USER_CHARGES
2-(5,5-diethyl-1,3-dioxan-2-yl)-4,5-diphenyl-1H-imidazole
@<TRIPOS>ATOM
      1 C1         -2.3512   10.4369   -2.3207 C.3       1 <0>        -0.1643
      2 C2         -2.9143   10.0357   -0.9559 C.3       1 <0>        -0.1137
      3 C3         -2.3088    8.6974   -0.5277 C.3       1 <0>        -0.1276
      4 C4         -2.6604    7.6209   -1.5604 C.3       1 <0>         0.0629
      5 O1         -1.9800    6.4095   -1.2186 O.3       1 <0>        -0.3612
      6 C5         -0.5586    6.5467   -1.1492 C.3       1 <0>         0.3415
      7 O2         -0.2226    7.5382   -0.1755 O.3       1 <0>        -0.3941
      8 C6         -0.7838    8.8263   -0.4466 C.3       1 <0>         0.0661
      9 C7          0.0548    5.2278   -0.7554 C.2       1 <0>         0.2226
     10 N1          1.2026    5.0791   -0.0584 N.pl3     1 <0>        -0.5396
     11 H1          1.7898    5.8147    0.2794 H         1 <0>         0.4328
     12 C8          1.4145    3.7293    0.1009 C.2       1 <0>         0.0404
     13 C9          0.3606    3.0964   -0.5323 C.2       1 <0>         0.0620
     14 N2         -0.4408    4.0547   -1.0343 N.2       1 <0>        -0.4374
     15 C10         0.1491    1.6337   -0.6341 C.ar      1 <0>        -0.0049
     16 C11        -1.1426    1.1089   -0.5979 C.ar      1 <0>        -0.0908
     17 C12        -1.3333   -0.2544   -0.6936 C.ar      1 <0>        -0.1216
     18 C13        -0.2464   -1.1001   -0.8258 C.ar      1 <0>        -0.1168
     19 C14         1.0373   -0.5855   -0.8619 C.ar      1 <0>        -0.1204
     20 C15         1.2408    0.7759   -0.7666 C.ar      1 <0>        -0.1006
     21 C16         2.5425    3.0855    0.8037 C.ar      1 <0>        -0.0218
     22 C17         2.3079    2.0289    1.6862 C.ar      1 <0>        -0.0851
     23 C18         3.3669    1.4277    2.3342 C.ar      1 <0>        -0.1148
     24 C19         4.6580    1.8777    2.1212 C.ar      1 <0>        -0.1111
     25 C20         4.8970    2.9282    1.2529 C.ar      1 <0>        -0.1170
     26 C21         3.8481    3.5342    0.5932 C.ar      1 <0>        -0.1101
     27 C22        -2.8629    8.2955    0.8406 C.3       1 <0>        -0.1057
     28 C23        -2.6247    9.4290    1.8403 C.3       1 <0>        -0.1554
     29 H2         -2.6022    9.6726   -3.0562 H         1 <0>         0.0581
     30 H3         -2.7825   11.3903   -2.6257 H         1 <0>         0.0603
     31 H4         -1.2676   10.5335   -2.2526 H         1 <0>         0.0565
     32 H5         -3.9979    9.9391   -1.0240 H         1 <0>         0.0714
     33 H6         -2.6632   10.8000   -0.2204 H         1 <0>         0.0742
     34 H7         -2.3459    7.9491   -2.5511 H         1 <0>         0.0622
     35 H8         -3.7367    7.4487   -1.5559 H         1 <0>         0.1058
     36 H9         -0.1748    6.8495   -2.1234 H         1 <0>         0.0803
     37 H10        -0.3982    9.2001   -1.3951 H         1 <0>         0.0628
     38 H11        -0.5181    9.5175    0.3532 H         1 <0>         0.1070
     39 H12        -1.9921    1.7685   -0.4996 H         1 <0>         0.1269
     40 H13        -2.3330   -0.6620   -0.6657 H         1 <0>         0.1237
     41 H14        -0.4007   -2.1664   -0.9007 H         1 <0>         0.1216
     42 H15         1.8819   -1.2507   -0.9645 H         1 <0>         0.1229
     43 H16         2.2434    1.1765   -0.7945 H         1 <0>         0.1216
     44 H17         1.3003    1.6798    1.8569 H         1 <0>         0.1272
     45 H18         3.1875    0.6073    3.0132 H         1 <0>         0.1281
     46 H19         5.4830    1.4066    2.6349 H         1 <0>         0.1254
     47 H20         5.9072    3.2743    1.0911 H         1 <0>         0.1261
     48 H21         4.0361    4.3536   -0.0848 H         1 <0>         0.1199
     49 H22        -3.9325    8.1033    0.7574 H         1 <0>         0.0648
     50 H23        -2.3576    7.3938    1.1866 H         1 <0>         0.0720
     51 H24        -2.9513    9.1141    2.8313 H         1 <0>         0.0554
     52 H25        -1.5624    9.6719    1.8679 H         1 <0>         0.0544
     53 H26        -3.1906   10.3087    1.5337 H         1 <0>         0.0569
@<TRIPOS>BOND
     1    1    2 1
     2    1   29 1
     3    1   30 1
     4    1   31 1
     5    2    3 1
     6    2   32 1
     7    2   33 1
     8    3    8 1
     9    3    4 1
    10    3   27 1
    11    4    5 1
    12    4   34 1
    13    4   35 1
    14    5    6 1
    15    6    7 1
    16    6    9 1
    17    6   36 1
    18    7    8 1
    19    8   37 1
    20    8   38 1
    21    9   14 2
    22    9   10 1
    23   10   11 1
    24   10   12 1
    25   12   13 2
    26   12   21 1
    27   13   14 1
    28   13   15 1
    29   15   20 ar
    30   15   16 ar
    31   16   17 ar
    32   16   39 1
    33   17   18 ar
    34   17   40 1
    35   18   19 ar
    36   18   41 1
    37   19   20 ar
    38   19   42 1
    39   20   43 1
    40   21   26 ar
    41   21   22 ar
    42   22   23 ar
    43   22   44 1
    44   23   24 ar
    45   23   45 1
    46   24   25 ar
    47   24   46 1
    48   25   26 ar
    49   25   47 1
    50   26   48 1
    51   27   28 1
    52   27   49 1
    53   27   50 1
    54   28   51 1
    55   28   52 1
    56   28   53 1
@<TRIPOS>MOLECULE
ZINC13755447
   54    57     0     0     0
SMALL
USER_CHARGES
2-(5,5-diethyl-1,3-dioxan-2-yl)-4,5-diphenyl-1H-imidazole
@<TRIPOS>ATOM
      1 C1         -2.3512   10.4369   -2.3207 C.3       1 <0>        -0.1665
      2 C2         -2.9143   10.0357   -0.9559 C.3       1 <0>        -0.1172
      3 C3         -2.3088    8.6974   -0.5277 C.3       1 <0>        -0.1282
      4 C4         -2.6604    7.6209   -1.5604 C.3       1 <0>         0.0674
      5 O1         -1.9800    6.4095   -1.2186 O.3       1 <0>        -0.3886
      6 C5         -0.5586    6.5467   -1.1492 C.3       1 <0>         0.3089
      7 O2         -0.2226    7.5382   -0.1755 O.3       1 <0>        -0.3852
      8 C6         -0.7838    8.8263   -0.4466 C.3       1 <0>         0.0641
      9 C7          0.0548    5.2278   -0.7554 C.cat     1 <0>         0.3245
     10 N1          1.2026    5.0791   -0.0584 N.pl3     1 <0>        -0.4831
     11 H1          1.7898    5.8147    0.2794 H         1 <0>         0.4758
     12 C8          1.4145    3.7293    0.1009 C.2       1 <0>         0.1296
     13 C9          0.3606    3.0964   -0.5323 C.2       1 <0>         0.1028
     14 C10         0.1491    1.6337   -0.6341 C.ar      1 <0>        -0.0676
     15 C11        -1.1426    1.1089   -0.5979 C.ar      1 <0>        -0.0946
     16 C12        -1.3333   -0.2544   -0.6936 C.ar      1 <0>        -0.1115
     17 C13        -0.2464   -1.1001   -0.8258 C.ar      1 <0>        -0.0830
     18 C14         1.0373   -0.5855   -0.8619 C.ar      1 <0>        -0.1111
     19 C15         1.2408    0.7759   -0.7666 C.ar      1 <0>        -0.0747
     20 C16         2.5425    3.0855    0.8037 C.ar      1 <0>        -0.0735
     21 C17         2.3079    2.0289    1.6862 C.ar      1 <0>        -0.0703
     22 C18         3.3669    1.4277    2.3342 C.ar      1 <0>        -0.1124
     23 C19         4.6580    1.8777    2.1212 C.ar      1 <0>        -0.0807
     24 C20         4.8970    2.9282    1.2529 C.ar      1 <0>        -0.1134
     25 C21         3.8481    3.5342    0.5932 C.ar      1 <0>        -0.0898
     26 C22        -2.8629    8.2955    0.8406 C.3       1 <0>        -0.1064
     27 C23        -2.6247    9.4290    1.8403 C.3       1 <0>        -0.1597
     28 H2         -2.6022    9.6726   -3.0562 H         1 <0>         0.0570
     29 H3         -2.7825   11.3903   -2.6257 H         1 <0>         0.0672
     30 H4         -1.2676   10.5335   -2.2526 H         1 <0>         0.0572
     31 H5         -3.9979    9.9391   -1.0240 H         1 <0>         0.0772
     32 H6         -2.6632   10.8000   -0.2204 H         1 <0>         0.0811
     33 H7         -2.3459    7.9491   -2.5511 H         1 <0>         0.0764
     34 H8         -3.7367    7.4487   -1.5559 H         1 <0>         0.1208
     35 H9         -0.1748    6.8495   -2.1234 H         1 <0>         0.1177
     36 H10        -0.3982    9.2001   -1.3951 H         1 <0>         0.0755
     37 H11        -0.5181    9.5175    0.3532 H         1 <0>         0.1225
     38 H12        -1.9921    1.7685   -0.4996 H         1 <0>         0.1260
     39 H13        -2.3330   -0.6620   -0.6657 H         1 <0>         0.1377
     40 H14        -0.4007   -2.1664   -0.9007 H         1 <0>         0.1369
     41 H15         1.8819   -1.2507   -0.9645 H         1 <0>         0.1383
     42 H16         2.2434    1.1765   -0.7945 H         1 <0>         0.1333
     43 H17         1.3003    1.6798    1.8569 H         1 <0>         0.1326
     44 H18         3.1875    0.6073    3.0132 H         1 <0>         0.1390
     45 H19         5.4830    1.4066    2.6349 H         1 <0>         0.1372
     46 H20         5.9072    3.2743    1.0911 H         1 <0>         0.1381
     47 H21         4.0361    4.3536   -0.0848 H         1 <0>         0.1274
     48 H22        -3.9325    8.1033    0.7574 H         1 <0>         0.0698
     49 H23        -2.3576    7.3938    1.1866 H         1 <0>         0.0670
     50 H24        -2.9513    9.1141    2.8313 H         1 <0>         0.0601
     51 H25        -1.5624    9.6719    1.8679 H         1 <0>         0.0554
     52 H26        -3.1906   10.3087    1.5337 H         1 <0>         0.0622
     53 N2         -0.4412    4.0546   -1.0345 N.pl3     1 <0>        -0.4522
     54 H27        -1.3092    3.8873   -1.5567 H         1 <0>         0.4829
@<TRIPOS>BOND
     1    1    2 1
     2    1   28 1
     3    1   29 1
     4    1   30 1
     5    2    3 1
     6    2   31 1
     7    2   32 1
     8    3    8 1
     9    3    4 1
    10    3   26 1
    11    4    5 1
    12    4   33 1
    13    4   34 1
    14    5    6 1
    15    6    7 1
    16    6    9 1
    17    6   35 1
    18    7    8 1
    19    8   36 1
    20    8   37 1
    21    9   10 1
    22    9   53 2
    23   10   11 1
    24   10   12 1
    25   12   13 2
    26   12   20 1
    27   13   14 1
    28   13   53 1
    29   14   19 ar
    30   14   15 ar
    31   15   16 ar
    32   15   38 1
    33   16   17 ar
    34   16   39 1
    35   17   18 ar
    36   17   40 1
    37   18   19 ar
    38   18   41 1
    39   19   42 1
    40   20   25 ar
    41   20   21 ar
    42   21   22 ar
    43   21   43 1
    44   22   23 ar
    45   22   44 1
    46   23   24 ar
    47   23   45 1
    48   24   25 ar
    49   24   46 1
    50   25   47 1
    51   26   27 1
    52   26   48 1
    53   26   49 1
    54   27   50 1
    55   27   51 1
    56   27   52 1
    57   53   54 1
@<TRIPOS>MOLECULE
ZINC01081288
   39    42     0     0     0
SMALL
USER_CHARGES
2,4,5-triphenyl-1H-imidazole
@<TRIPOS>ATOM
      1 C1          0.0021   -0.0041    0.0020 C.ar      1 <0>        -0.1105
      2 C2         -0.0167    1.3796    0.0096 C.ar      1 <0>        -0.1149
      3 C3          1.1663    2.0886    0.0021 C.ar      1 <0>        -0.0854
      4 C4          2.3854    1.4067   -0.0137 C.ar      1 <0>        -0.0238
      5 C5          2.3967    0.0098   -0.0209 C.ar      1 <0>        -0.1102
      6 C6          1.2060   -0.6862   -0.0127 C.ar      1 <0>        -0.1169
      7 C7          3.6555    2.1585   -0.0219 C.2       1 <0>         0.0401
      8 C8          3.9627    3.2598   -0.8034 C.2       1 <0>         0.0668
      9 N1          5.2154    3.6378   -0.5032 N.2       1 <0>        -0.4565
     10 C9          5.7069    2.8397    0.4169 C.2       1 <0>         0.2578
     11 N2          4.7665    1.9077    0.7496 N.pl3     1 <0>        -0.5565
     12 H1          4.8665    1.1791    1.4272 H         1 <0>         0.4282
     13 C10         7.0603    2.9389    1.0034 C.ar      1 <0>        -0.0172
     14 C11         7.4679    2.0320    1.9830 C.ar      1 <0>        -0.1114
     15 C12         8.7343    2.1265    2.5221 C.ar      1 <0>        -0.1156
     16 C13         9.5955    3.1245    2.1019 C.ar      1 <0>        -0.1090
     17 C14         9.1957    4.0302    1.1354 C.ar      1 <0>        -0.1163
     18 C15         7.9341    3.9433    0.5840 C.ar      1 <0>        -0.0765
     19 C16         3.0689    3.9052   -1.7933 C.ar      1 <0>        -0.0068
     20 C17         2.1889    3.1324   -2.5504 C.ar      1 <0>        -0.1002
     21 C18         1.3556    3.7397   -3.4673 C.ar      1 <0>        -0.1198
     22 C19         1.3997    5.1110   -3.6442 C.ar      1 <0>        -0.1164
     23 C20         2.2740    5.8824   -2.8996 C.ar      1 <0>        -0.1214
     24 C21         3.1085    5.2872   -1.9758 C.ar      1 <0>        -0.0920
     25 H2         -0.9273   -0.5542    0.0080 H         1 <0>         0.1257
     26 H3         -0.9599    1.9055    0.0170 H         1 <0>         0.1283
     27 H4          1.1502    3.1685    0.0078 H         1 <0>         0.1271
     28 H5          3.3356   -0.5238   -0.0324 H         1 <0>         0.1198
     29 H6          1.2132   -1.7662   -0.0182 H         1 <0>         0.1264
     30 H7          6.7949    1.2552    2.3150 H         1 <0>         0.1171
     31 H8          9.0526    1.4225    3.2766 H         1 <0>         0.1282
     32 H9         10.5844    3.1967    2.5301 H         1 <0>         0.1270
     33 H10         9.8727    4.8071    0.8120 H         1 <0>         0.1304
     34 H11         7.6234    4.6506   -0.1706 H         1 <0>         0.1378
     35 H12         2.1570    2.0612   -2.4165 H         1 <0>         0.1216
     36 H13         0.6707    3.1427   -4.0513 H         1 <0>         0.1233
     37 H14         0.7487    5.5814   -4.3663 H         1 <0>         0.1221
     38 H15         2.3037    6.9526   -3.0418 H         1 <0>         0.1241
     39 H16         3.7906    5.8904   -1.3951 H         1 <0>         0.1259
@<TRIPOS>BOND
     1    1    6 ar
     2    1    2 ar
     3    1   25 1
     4    2    3 ar
     5    2   26 1
     6    3    4 ar
     7    3   27 1
     8    4    5 ar
     9    4    7 1
    10    5    6 ar
    11    5   28 1
    12    6   29 1
    13    7   11 1
    14    7    8 2
    15    8    9 1
    16    8   19 1
    17    9   10 2
    18   10   11 1
    19   10   13 1
    20   11   12 1
    21   13   18 ar
    22   13   14 ar
    23   14   15 ar
    24   14   30 1
    25   15   16 ar
    26   15   31 1
    27   16   17 ar
    28   16   32 1
    29   17   18 ar
    30   17   33 1
    31   18   34 1
    32   19   24 ar
    33   19   20 ar
    34   20   21 ar
    35   20   35 1
    36   21   22 ar
    37   21   36 1
    38   22   23 ar
    39   22   37 1
    40   23   24 ar
    41   23   38 1
    42   24   39 1
@<TRIPOS>MOLECULE
ZINC01081288
   40    43     0     0     0
SMALL
USER_CHARGES
2,4,5-triphenyl-1H-imidazole
@<TRIPOS>ATOM
      1 C1          0.0021   -0.0041    0.0020 C.ar      1 <0>        -0.0815
      2 C2         -0.0167    1.3796    0.0096 C.ar      1 <0>        -0.1126
      3 C3          1.1663    2.0886    0.0021 C.ar      1 <0>        -0.0714
      4 C4          2.3854    1.4067   -0.0137 C.ar      1 <0>        -0.0731
      5 C5          2.3967    0.0098   -0.0209 C.ar      1 <0>        -0.0907
      6 C6          1.2060   -0.6862   -0.0127 C.ar      1 <0>        -0.1135
      7 C7          3.6555    2.1585   -0.0219 C.2       1 <0>         0.1273
      8 C8          3.9627    3.2598   -0.8034 C.2       1 <0>         0.0993
      9 C9          5.7069    2.8397    0.4169 C.cat     1 <0>         0.3821
     10 N1          4.7665    1.9077    0.7496 N.pl3     1 <0>        -0.5109
     11 H1          4.8665    1.1791    1.4272 H         1 <0>         0.4694
     12 C10         7.0603    2.9389    1.0034 C.ar      1 <0>        -0.0909
     13 C11         7.4679    2.0320    1.9830 C.ar      1 <0>        -0.0742
     14 C12         8.7343    2.1265    2.5221 C.ar      1 <0>        -0.1060
     15 C13         9.5955    3.1245    2.1019 C.ar      1 <0>        -0.0664
     16 C14         9.1957    4.0302    1.1354 C.ar      1 <0>        -0.1054
     17 C15         7.9341    3.9433    0.5840 C.ar      1 <0>        -0.0770
     18 C16         3.0689    3.9052   -1.7933 C.ar      1 <0>        -0.0662
     19 C17         2.1889    3.1324   -2.5504 C.ar      1 <0>        -0.0758
     20 C18         1.3556    3.7397   -3.4673 C.ar      1 <0>        -0.1104
     21 C19         1.3997    5.1110   -3.6442 C.ar      1 <0>        -0.0845
     22 C20         2.2740    5.8824   -2.8996 C.ar      1 <0>        -0.1112
     23 C21         3.1085    5.2872   -1.9758 C.ar      1 <0>        -0.0976
     24 H2         -0.9273   -0.5542    0.0080 H         1 <0>         0.1370
     25 H3         -0.9599    1.9055    0.0170 H         1 <0>         0.1387
     26 H4          1.1502    3.1685    0.0078 H         1 <0>         0.1322
     27 H5          3.3356   -0.5238   -0.0324 H         1 <0>         0.1269
     28 H6          1.2132   -1.7662   -0.0182 H         1 <0>         0.1378
     29 H7          6.7949    1.2552    2.3150 H         1 <0>         0.1312
     30 H8          9.0526    1.4225    3.2766 H         1 <0>         0.1464
     31 H9         10.5844    3.1967    2.5301 H         1 <0>         0.1448
     32 H10         9.8727    4.8071    0.8120 H         1 <0>         0.1467
     33 H11         7.6234    4.6506   -0.1706 H         1 <0>         0.1309
     34 H12         2.1570    2.0612   -2.4165 H         1 <0>         0.1329
     35 H13         0.6707    3.1427   -4.0513 H         1 <0>         0.1381
     36 H14         0.7487    5.5814   -4.3663 H         1 <0>         0.1367
     37 H15         2.3037    6.9526   -3.0418 H         1 <0>         0.1374
     38 H16         3.7906    5.8904   -1.3951 H         1 <0>         0.1245
     39 N2          5.2157    3.6382   -0.5034 N.pl3     1 <0>        -0.4767
     40 H17         5.7132    4.4297   -0.9279 H         1 <0>         0.4756
@<TRIPOS>BOND
     1    1    6 ar
     2    1    2 ar
     3    1   24 1
     4    2    3 ar
     5    2   25 1
     6    3    4 ar
     7    3   26 1
     8    4    5 ar
     9    4    7 1
    10    5    6 ar
    11    5   27 1
    12    6   28 1
    13    7   10 1
    14    7    8 2
    15    8   18 1
    16    8   39 1
    17    9   10 1
    18    9   12 1
    19    9   39 2
    20   10   11 1
    21   12   17 ar
    22   12   13 ar
    23   13   14 ar
    24   13   29 1
    25   14   15 ar
    26   14   30 1
    27   15   16 ar
    28   15   31 1
    29   16   17 ar
    30   16   32 1
    31   17   33 1
    32   18   23 ar
    33   18   19 ar
    34   19   20 ar
    35   19   34 1
    36   20   21 ar
    37   20   35 1
    38   21   22 ar
    39   21   36 1
    40   22   23 ar
    41   22   37 1
    42   23   38 1
    43   39   40 1
@<TRIPOS>MOLECULE
ZINC01446453
   46    49     0     0     0
SMALL
USER_CHARGES
2-cyclohexyl-4,5-diphenyl-1H-imidazole
@<TRIPOS>ATOM
      1 C1          1.1404    5.5981    2.9995 C.ar      1 <0>        -0.0840
      2 C2          0.3271    6.2277    2.0739 C.ar      1 <0>        -0.1131
      3 C3         -0.5560    5.4906    1.3126 C.ar      1 <0>        -0.0945
      4 C4         -0.6283    4.1059    1.4781 C.ar      1 <0>        -0.0687
      5 C5          0.1910    3.4777    2.4185 C.ar      1 <0>        -0.0734
      6 C6          1.0742    4.2263    3.1683 C.ar      1 <0>        -0.1123
      7 C7         -1.5713    3.3102    0.6666 C.2       1 <0>         0.1077
      8 C8         -1.3080    2.1166    0.0197 C.2       1 <0>         0.0829
      9 N1         -2.4399    1.7393   -0.6041 N.pl3     1 <0>        -0.4880
     10 C9         -3.3769    2.6162   -0.3753 C.cat     1 <0>         0.3491
     11 N2         -2.8882    3.6072    0.4022 N.pl3     1 <0>        -0.5199
     12 H1         -3.3389    4.5224    0.8136 H         1 <0>         0.4988
     13 C10        -4.7870    2.5391   -0.9013 C.3       1 <0>        -0.0347
     14 C11        -5.2924    3.9489   -1.2145 C.3       1 <0>        -0.1199
     15 C12        -6.7240    3.8706   -1.7486 C.3       1 <0>        -0.1211
     16 C13        -7.6272    3.2276   -0.6942 C.3       1 <0>        -0.1295
     17 C14        -7.1219    1.8178   -0.3810 C.3       1 <0>        -0.1218
     18 C15        -5.6902    1.8961    0.1531 C.3       1 <0>        -0.1161
     19 C16        -0.0168    1.3905    0.0097 C.ar      1 <0>        -0.0627
     20 C17         1.1847    2.0986    0.0020 C.ar      1 <0>        -0.0774
     21 C18         2.3841    1.4166   -0.0126 C.ar      1 <0>        -0.1104
     22 C19         2.3964    0.0332   -0.0206 C.ar      1 <0>        -0.0866
     23 C20         1.2078   -0.6748   -0.0131 C.ar      1 <0>        -0.1110
     24 C21         0.0021   -0.0041    0.0020 C.ar      1 <0>        -0.1005
     25 H2          1.8303    6.1799    3.5927 H         1 <0>         0.1363
     26 H3          0.3842    7.2987    1.9470 H         1 <0>         0.1369
     27 H4         -1.1897    5.9833    0.5900 H         1 <0>         0.1264
     28 H5          0.1366    2.4077    2.5549 H         1 <0>         0.1306
     29 H6          1.7119    3.7412    3.8926 H         1 <0>         0.1376
     30 H7         -4.7881    1.9294   -1.8169 H         1 <0>         0.1246
     31 H8         -5.2758    4.5564   -0.2976 H         1 <0>         0.0711
     32 H9         -4.6430    4.4113   -1.9725 H         1 <0>         0.0791
     33 H10        -7.0873    4.8842   -1.9738 H         1 <0>         0.0796
     34 H11        -6.7406    3.2630   -2.6654 H         1 <0>         0.0733
     35 H12        -7.6105    3.8352    0.2226 H         1 <0>         0.0672
     36 H13        -8.6565    3.1713   -1.0781 H         1 <0>         0.0761
     37 H14        -7.7713    1.3555    0.3770 H         1 <0>         0.0794
     38 H15        -7.1385    1.2102   -1.2978 H         1 <0>         0.0725
     39 H16        -5.3269    0.8825    0.3783 H         1 <0>         0.0757
     40 H17        -5.6736    2.5037    1.0699 H         1 <0>         0.0758
     41 H18         1.1763    3.1785    0.0079 H         1 <0>         0.1315
     42 H19         3.3151    1.9638   -0.0179 H         1 <0>         0.1370
     43 H20         3.3376   -0.4962   -0.0325 H         1 <0>         0.1360
     44 H21         1.2238   -1.7546   -0.0194 H         1 <0>         0.1366
     45 H22        -0.9251   -0.5578    0.0083 H         1 <0>         0.1243
     46 H23        -2.4599    0.8104   -1.1930 H         1 <0>         0.4992
@<TRIPOS>BOND
     1    1    6 ar
     2    1    2 ar
     3    1   25 1
     4    2    3 ar
     5    2   26 1
     6    3    4 ar
     7    3   27 1
     8    4    5 ar
     9    4    7 1
    10    5    6 ar
    11    5   28 1
    12    6   29 1
    13    7   11 1
    14    7    8 2
    15    8    9 1
    16    8   19 1
    17    9   10 2
    18    9   46 1
    19   10   11 1
    20   10   13 1
    21   11   12 1
    22   13   18 1
    23   13   14 1
    24   13   30 1
    25   14   15 1
    26   14   31 1
    27   14   32 1
    28   15   16 1
    29   15   33 1
    30   15   34 1
    31   16   17 1
    32   16   35 1
    33   16   36 1
    34   17   18 1
    35   17   37 1
    36   17   38 1
    37   18   39 1
    38   18   40 1
    39   19   24 ar
    40   19   20 ar
    41   20   21 ar
    42   20   41 1
    43   21   22 ar
    44   21   42 1
    45   22   23 ar
    46   22   43 1
    47   23   24 ar
    48   23   44 1
    49   24   45 1
@<TRIPOS>MOLECULE
ZINC01446453
   45    48     0     0     0
SMALL
USER_CHARGES
2-cyclohexyl-4,5-diphenyl-1H-imidazole
@<TRIPOS>ATOM
      1 C1          1.1404    5.5981    2.9995 C.ar      1 <0>        -0.1171
      2 C2          0.3271    6.2277    2.0739 C.ar      1 <0>        -0.1213
      3 C3         -0.5560    5.4906    1.3126 C.ar      1 <0>        -0.0936
      4 C4         -0.6283    4.1059    1.4781 C.ar      1 <0>        -0.0027
      5 C5          0.1910    3.4777    2.4185 C.ar      1 <0>        -0.0980
      6 C6          1.0742    4.2263    3.1683 C.ar      1 <0>        -0.1203
      7 C7         -1.5713    3.3102    0.6666 C.2       1 <0>         0.0613
      8 C8         -1.3080    2.1166    0.0197 C.2       1 <0>        -0.0030
      9 N1         -2.4399    1.7393   -0.6041 N.pl3     1 <0>        -0.5239
     10 C9         -3.3769    2.6162   -0.3753 C.2       1 <0>         0.2124
     11 N2         -2.8882    3.6072    0.4022 N.2       1 <0>        -0.4676
     12 C10        -4.7870    2.5391   -0.9013 C.3       1 <0>         0.0005
     13 C11        -5.2924    3.9489   -1.2145 C.3       1 <0>        -0.1031
     14 C12        -6.7240    3.8706   -1.7486 C.3       1 <0>        -0.1208
     15 C13        -7.6272    3.2276   -0.6942 C.3       1 <0>        -0.1232
     16 C14        -7.1219    1.8178   -0.3810 C.3       1 <0>        -0.1187
     17 C15        -5.6902    1.8961    0.1531 C.3       1 <0>        -0.1101
     18 C16        -0.0168    1.3905    0.0097 C.ar      1 <0>        -0.0132
     19 C17         1.1847    2.0986    0.0020 C.ar      1 <0>        -0.0926
     20 C18         2.3841    1.4166   -0.0126 C.ar      1 <0>        -0.1125
     21 C19         2.3964    0.0332   -0.0206 C.ar      1 <0>        -0.1169
     22 C20         1.2078   -0.6748   -0.0131 C.ar      1 <0>        -0.1147
     23 C21         0.0021   -0.0041    0.0020 C.ar      1 <0>        -0.1201
     24 H1          1.8303    6.1799    3.5927 H         1 <0>         0.1219
     25 H2          0.3842    7.2987    1.9470 H         1 <0>         0.1236
     26 H3         -1.1897    5.9833    0.5900 H         1 <0>         0.1239
     27 H4          0.1366    2.4077    2.5549 H         1 <0>         0.1196
     28 H5          1.7119    3.7412    3.8926 H         1 <0>         0.1231
     29 H6         -4.7881    1.9294   -1.8169 H         1 <0>         0.0824
     30 H7         -5.2758    4.5564   -0.2976 H         1 <0>         0.0797
     31 H8         -4.6430    4.4113   -1.9725 H         1 <0>         0.0631
     32 H9         -7.0873    4.8842   -1.9738 H         1 <0>         0.0666
     33 H10        -6.7406    3.2630   -2.6654 H         1 <0>         0.0610
     34 H11        -7.6105    3.8352    0.2226 H         1 <0>         0.0650
     35 H12        -8.6565    3.1713   -1.0781 H         1 <0>         0.0630
     36 H13        -7.7713    1.3555    0.3770 H         1 <0>         0.0660
     37 H14        -7.1385    1.2102   -1.2978 H         1 <0>         0.0624
     38 H15        -5.3269    0.8825    0.3783 H         1 <0>         0.0596
     39 H16        -5.6736    2.5037    1.0699 H         1 <0>         0.0734
     40 H17         1.1763    3.1785    0.0079 H         1 <0>         0.1269
     41 H18         3.3151    1.9638   -0.0179 H         1 <0>         0.1264
     42 H19         3.3376   -0.4962   -0.0325 H         1 <0>         0.1242
     43 H20         1.2238   -1.7546   -0.0194 H         1 <0>         0.1248
     44 H21        -0.9251   -0.5578    0.0083 H         1 <0>         0.1174
     45 H22        -2.4599    0.8104   -1.1930 H         1 <0>         0.4457
@<TRIPOS>BOND
     1    1    6 ar
     2    1    2 ar
     3    1   24 1
     4    2    3 ar
     5    2   25 1
     6    3    4 ar
     7    3   26 1
     8    4    5 ar
     9    4    7 1
    10    5    6 ar
    11    5   27 1
    12    6   28 1
    13    7   11 1
    14    7    8 2
    15    8    9 1
    16    8   18 1
    17    9   10 1
    18    9   45 1
    19   10   11 2
    20   10   12 1
    21   12   17 1
    22   12   13 1
    23   12   29 1
    24   13   14 1
    25   13   30 1
    26   13   31 1
    27   14   15 1
    28   14   32 1
    29   14   33 1
    30   15   16 1
    31   15   34 1
    32   15   35 1
    33   16   17 1
    34   16   36 1
    35   16   37 1
    36   17   38 1
    37   17   39 1
    38   18   23 ar
    39   18   19 ar
    40   19   20 ar
    41   19   40 1
    42   20   21 ar
    43   20   41 1
    44   21   22 ar
    45   21   42 1
    46   22   23 ar
    47   22   43 1
    48   23   44 1
@<TRIPOS>MOLECULE
ZINC01887705
   49    52     0     0     0
SMALL
USER_CHARGES
1-[4-(2-chlorophenyl)-6,7-dimethyl-3-quinolyl]-3-(2,4-difluorophenyl)-urea
@<TRIPOS>ATOM
      1 C1          7.0959   -7.3122    0.0889 C.3       1 <0>        -0.1218
      2 C2          5.8261   -6.5008    0.1035 C.ar      1 <0>        -0.0702
      3 C3          5.8969   -5.1398    0.1056 C.ar      1 <0>        -0.0984
      4 C4          4.7170   -4.3844    0.1196 C.ar      1 <0>        -0.0599
      5 C5          3.4627   -5.0416    0.1306 C.ar      1 <0>         0.1166
      6 C6          3.4293   -6.4470    0.1275 C.ar      1 <0>        -0.0862
      7 C7          4.5946   -7.1509    0.1142 C.ar      1 <0>        -0.0684
      8 C8          4.5511   -8.6572    0.1115 C.3       1 <0>        -0.1218
      9 N1          2.3314   -4.3282    0.1431 N.ar      1 <0>        -0.4502
     10 C9          2.3394   -3.0179    0.1524 C.ar      1 <0>         0.1400
     11 C10         3.5314   -2.2893    0.1364 C.ar      1 <0>         0.1325
     12 C11         4.7497   -2.9674    0.1227 C.ar      1 <0>        -0.0264
     13 C12         6.0341   -2.2322    0.1122 C.ar      1 <0>        -0.0466
     14 C13         6.6511   -1.8823    1.3138 C.ar      1 <0>        -0.0937
     15 C14         7.8504   -1.2008    1.2974 C.ar      1 <0>        -0.1119
     16 C15         8.4375   -0.8553    0.0928 C.ar      1 <0>        -0.0978
     17 C16         7.8294   -1.1940   -1.1022 C.ar      1 <0>        -0.1097
     18 C17         6.6309   -1.8806   -1.1000 C.ar      1 <0>        -0.0176
     19 Cl1         5.8681   -2.3047   -2.6007 Cl        1 <0>        -0.0533
     20 N2          3.5030   -0.8919    0.1400 N.am      1 <0>        -0.6690
     21 C18         2.5202   -0.2362   -0.5086 C.2       1 <0>         0.7119
     22 O1          1.6138   -0.8587   -1.0278 O.2       1 <0>        -0.5494
     23 N3          2.5421    1.1094   -0.5817 N.am      1 <0>        -0.6752
     24 C19         1.4733    1.7966   -1.1738 C.ar      1 <0>         0.1206
     25 C20         0.8017    1.2398   -2.2531 C.ar      1 <0>        -0.0622
     26 C21        -0.2474    1.9212   -2.8394 C.ar      1 <0>        -0.1410
     27 C22        -0.6371    3.1544   -2.3445 C.ar      1 <0>         0.1187
     28 C23         0.0303    3.7129   -1.2676 C.ar      1 <0>        -0.1723
     29 C24         1.0848    3.0372   -0.6809 C.ar      1 <0>         0.1054
     30 F1          1.7368    3.5821    0.3693 F         1 <0>        -0.1280
     31 F2         -1.6664    3.8162   -2.9169 F         1 <0>        -0.1287
     32 H1          7.3918   -7.5053   -0.9422 H         1 <0>         0.0747
     33 H2          7.8863   -6.7591    0.5962 H         1 <0>         0.0674
     34 H3          6.9280   -8.2590    0.6021 H         1 <0>         0.0751
     35 H4          6.8575   -4.6461    0.0974 H         1 <0>         0.1264
     36 H5          2.4825   -6.9666    0.1360 H         1 <0>         0.1379
     37 H6          4.5302   -9.0183   -0.9168 H         1 <0>         0.0753
     38 H7          5.4354   -9.0471    0.6155 H         1 <0>         0.0742
     39 H8          3.6563   -8.9958    0.6337 H         1 <0>         0.0703
     40 H9          1.3992   -2.4868    0.1678 H         1 <0>         0.1784
     41 H10         6.1923   -2.1475    2.2548 H         1 <0>         0.1348
     42 H11         8.3302   -0.9326    2.2270 H         1 <0>         0.1349
     43 H12         9.3746   -0.3184    0.0859 H         1 <0>         0.1360
     44 H13         8.2927   -0.9214   -2.0390 H         1 <0>         0.1376
     45 H14         4.1906   -0.3940    0.6092 H         1 <0>         0.4106
     46 H15         3.2973    1.6023   -0.2246 H         1 <0>         0.4136
     47 H16         1.1019    0.2762   -2.6374 H         1 <0>         0.1633
     48 H17        -0.7669    1.4897   -3.6821 H         1 <0>         0.1491
     49 H18        -0.2726    4.6767   -0.8857 H         1 <0>         0.1545
@<TRIPOS>BOND
     1    1    2 1
     2    1   32 1
     3    1   33 1
     4    1   34 1
     5    2    7 ar
     6    2    3 ar
     7    3    4 ar
     8    3   35 1
     9    4   12 ar
    10    4    5 ar
    11    5    6 ar
    12    5    9 ar
    13    6    7 ar
    14    6   36 1
    15    7    8 1
    16    8   37 1
    17    8   38 1
    18    8   39 1
    19    9   10 ar
    20   10   11 ar
    21   10   40 1
    22   11   12 ar
    23   11   20 1
    24   12   13 1
    25   13   18 ar
    26   13   14 ar
    27   14   15 ar
    28   14   41 1
    29   15   16 ar
    30   15   42 1
    31   16   17 ar
    32   16   43 1
    33   17   18 ar
    34   17   44 1
    35   18   19 1
    36   20   21 am
    37   20   45 1
    38   21   22 2
    39   21   23 am
    40   23   24 1
    41   23   46 1
    42   24   29 ar
    43   24   25 ar
    44   25   26 ar
    45   25   47 1
    46   26   27 ar
    47   26   48 1
    48   27   28 ar
    49   27   31 1
    50   28   29 ar
    51   28   49 1
    52   29   30 1
