@<TRIPOS>MOLECULE
ZINC08022586
   67    67     0     0     0
SMALL
USER_CHARGES
2,2-dimethyl-N-(2,4,6-trimethoxyphenyl)-dodecanamide
@<TRIPOS>ATOM
      1 C1          8.9988   16.8566   -3.3957 C.3       1 <0>        -0.1542
      2 C2          7.6711   16.1053   -3.2782 C.3       1 <0>        -0.1263
      3 C3          7.9361   14.6704   -2.8180 C.3       1 <0>        -0.1211
      4 C4          6.6084   13.9192   -2.7005 C.3       1 <0>        -0.1214
      5 C5          6.8734   12.4843   -2.2403 C.3       1 <0>        -0.1202
      6 C6          5.5457   11.7330   -2.1228 C.3       1 <0>        -0.1210
      7 C7          5.8107   10.2981   -1.6627 C.3       1 <0>        -0.1192
      8 C8          4.4830    9.5468   -1.5451 C.3       1 <0>        -0.1203
      9 C9          4.7480    8.1119   -1.0850 C.3       1 <0>        -0.1222
     10 C10         3.4203    7.3607   -0.9675 C.3       1 <0>        -0.0945
     11 C11         3.6852    5.9258   -0.5073 C.3       1 <0>        -0.0776
     12 C12         4.3813    5.9474    0.8550 C.3       1 <0>        -0.1427
     13 C13         4.5818    5.2205   -1.5270 C.3       1 <0>        -0.1411
     14 C14         2.3775    5.1858   -0.3915 C.2       1 <0>         0.5322
     15 O1          1.3359    5.7506   -0.6516 O.2       1 <0>        -0.5283
     16 N1          2.3652    3.8965    0.0009 N.am      1 <0>        -0.6601
     17 C15         1.1591    3.1756    0.0077 C.ar      1 <0>         0.0310
     18 C16         0.7612    2.4725   -1.1250 C.ar      1 <0>         0.2111
     19 C17        -0.4288    1.7618   -1.1157 C.ar      1 <0>        -0.2738
     20 C18        -1.2253    1.7559    0.0195 C.ar      1 <0>         0.2113
     21 C19        -0.8280    2.4513    1.1518 C.ar      1 <0>        -0.3286
     22 C20         0.3611    3.1634    1.1473 C.ar      1 <0>         0.2134
     23 O2          0.7476    3.8492    2.2560 O.3       1 <0>        -0.2999
     24 C21        -0.1207    3.7924    3.3895 C.3       1 <0>         0.0252
     25 O3         -2.3949    1.0626    0.0244 O.3       1 <0>        -0.3098
     26 C22        -3.1659    1.0995    1.2269 C.3       1 <0>         0.0249
     27 O4          1.5388    2.4829   -2.2404 O.3       1 <0>        -0.2996
     28 C23         1.0681    1.7395   -3.3664 C.3       1 <0>         0.0237
     29 H1          9.4947   16.8720   -2.4252 H         1 <0>         0.0532
     30 H2          9.6375   16.3541   -4.1221 H         1 <0>         0.0532
     31 H3          8.8101   17.8788   -3.7236 H         1 <0>         0.0533
     32 H4          7.1752   16.0899   -4.2487 H         1 <0>         0.0602
     33 H5          7.0324   16.6078   -2.5518 H         1 <0>         0.0602
     34 H6          8.4320   14.6858   -1.8475 H         1 <0>         0.0604
     35 H7          8.5748   14.1680   -3.5445 H         1 <0>         0.0604
     36 H8          6.1125   13.9038   -3.6711 H         1 <0>         0.0605
     37 H9          5.9697   14.4216   -1.9741 H         1 <0>         0.0604
     38 H10         7.3693   12.4997   -1.2698 H         1 <0>         0.0602
     39 H11         7.5121   11.9818   -2.9668 H         1 <0>         0.0602
     40 H12         5.0498   11.7176   -3.0934 H         1 <0>         0.0605
     41 H13         4.9070   12.2354   -1.3964 H         1 <0>         0.0604
     42 H14         6.3066   10.3135   -0.6921 H         1 <0>         0.0601
     43 H15         6.4494    9.7957   -2.3891 H         1 <0>         0.0602
     44 H16         3.9871    9.5314   -2.5157 H         1 <0>         0.0611
     45 H17         3.8443   10.0493   -0.8187 H         1 <0>         0.0610
     46 H18         5.2438    8.1273   -0.1144 H         1 <0>         0.0650
     47 H19         5.3867    7.6095   -1.8114 H         1 <0>         0.0652
     48 H20         2.9244    7.3453   -1.9380 H         1 <0>         0.0686
     49 H21         2.7816    7.8631   -0.2410 H         1 <0>         0.0684
     50 H22         4.5701    4.9251    1.1829 H         1 <0>         0.0585
     51 H23         5.3272    6.4826    0.7713 H         1 <0>         0.0721
     52 H24         3.7426    6.4498    1.5815 H         1 <0>         0.0613
     53 H25         4.0859    5.2051   -2.4975 H         1 <0>         0.0614
     54 H26         5.5276    5.7557   -1.6107 H         1 <0>         0.0713
     55 H27         4.7705    4.1983   -1.1991 H         1 <0>         0.0594
     56 H28         3.1890    3.4662    0.2786 H         1 <0>         0.4034
     57 H29        -0.7381    1.2159   -1.9948 H         1 <0>         0.1432
     58 H30        -1.4478    2.4415    2.0362 H         1 <0>         0.1404
     59 H31        -1.0965    4.1968    3.1203 H         1 <0>         0.0577
     60 H32        -0.2325    2.7566    3.7100 H         1 <0>         0.0578
     61 H33         0.3045    4.3805    4.2027 H         1 <0>         0.1043
     62 H34        -2.5785    0.6886    2.0480 H         1 <0>         0.0580
     63 H35        -3.4359    2.1309    1.4539 H         1 <0>         0.0582
     64 H36        -4.0716    0.5072    1.0962 H         1 <0>         0.1046
     65 H37         0.9647    0.6898   -3.0912 H         1 <0>         0.0605
     66 H38         0.1001    2.1298   -3.6806 H         1 <0>         0.0601
     67 H39         1.7805    1.8317   -4.1862 H         1 <0>         0.1040
@<TRIPOS>BOND
     1    1    2 1
     2    1   29 1
     3    1   30 1
     4    1   31 1
     5    2    3 1
     6    2   32 1
     7    2   33 1
     8    3    4 1
     9    3   34 1
    10    3   35 1
    11    4    5 1
    12    4   36 1
    13    4   37 1
    14    5    6 1
    15    5   38 1
    16    5   39 1
    17    6    7 1
    18    6   40 1
    19    6   41 1
    20    7    8 1
    21    7   42 1
    22    7   43 1
    23    8    9 1
    24    8   44 1
    25    8   45 1
    26    9   10 1
    27    9   46 1
    28    9   47 1
    29   10   11 1
    30   10   48 1
    31   10   49 1
    32   11   12 1
    33   11   13 1
    34   11   14 1
    35   12   50 1
    36   12   51 1
    37   12   52 1
    38   13   53 1
    39   13   54 1
    40   13   55 1
    41   14   15 2
    42   14   16 am
    43   16   17 1
    44   16   56 1
    45   17   22 ar
    46   17   18 ar
    47   18   19 ar
    48   18   27 1
    49   19   20 ar
    50   19   57 1
    51   20   21 ar
    52   20   25 1
    53   21   22 ar
    54   21   58 1
    55   22   23 1
    56   23   24 1
    57   24   59 1
    58   24   60 1
    59   24   61 1
    60   25   26 1
    61   26   62 1
    62   26   63 1
    63   26   64 1
    64   27   28 1
    65   28   65 1
    66   28   66 1
    67   28   67 1
