@<TRIPOS>MOLECULE
ZINC13515668
   42    44     0     0     0
SMALL
USER_CHARGES
chloro-dihydroxy-methyl-BLAHdione
@<TRIPOS>ATOM
      1 C1         -1.3916    1.2428    4.1873 C.3       1 <0>        -0.1768
      2 C2         -0.3366    0.2031    3.8030 C.3       1 <0>         0.1063
      3 H1         -0.8017   -0.7738    3.6047 H         1 <0>         0.1162
      4 C3          0.7005    0.0808    4.9249 C.3       1 <0>        -0.1899
      5 C4          0.9246   -1.3926    5.2565 C.3       1 <0>        -0.0015
      6 H2          0.7945   -1.7033    4.2093 H         1 <0>         0.1562
      7 C5          1.8742   -1.7631    6.3906 C.3       1 <0>         0.0163
      8 H3          2.7381   -2.4364    6.4921 H         1 <0>         0.1664
      9 O1          0.4550   -1.8843    6.5142 O.3       1 <0>        -0.3117
     10 C6          2.5430   -0.6874    7.2013 C.2       1 <0>        -0.1413
     11 C7          3.3594    0.2015    6.6484 C.2       1 <0>        -0.1363
     12 C8          3.6645    0.1861    5.2238 C.2       1 <0>        -0.0284
     13 C9          3.8462    1.3720    4.5837 C.2       1 <0>        -0.2268
     14 C10         4.0794    1.3957    3.1983 C.2       1 <0>         0.3939
     15 O2          4.3970    0.3852    2.6072 O.2       1 <0>        -0.4563
     16 C11         3.8980    2.6919    2.4427 C.3       1 <0>        -0.1499
     17 C12         3.1538    2.4012    1.1652 C.ar      1 <0>         0.0845
     18 C13         1.8744    1.8349    1.2021 C.ar      1 <0>        -0.2050
     19 C14         1.2213    1.5318   -0.0014 C.ar      1 <0>         0.2658
     20 C15         1.8308    1.8249   -1.2090 C.ar      1 <0>        -0.2704
     21 C16         3.0918    2.3991   -1.2310 C.ar      1 <0>         0.2534
     22 C17         3.7525    2.6836   -0.0395 C.ar      1 <0>        -0.1825
     23 Cl1         5.3347    3.3980   -0.0790 Cl        1 <0>        -0.0470
     24 O3          3.6848    2.6856   -2.4177 O.3       1 <0>        -0.4904
     25 O4         -0.0110    0.9628    0.0073 O.3       1 <0>        -0.4757
     26 C18         1.2111    1.5345    2.4826 C.2       1 <0>         0.5285
     27 O5          1.4831    2.2084    3.4592 O.2       1 <0>        -0.5074
     28 O6          0.2919    0.5683    2.5572 O.3       1 <0>        -0.3394
     29 H4         -1.8628    0.9529    5.1380 H         1 <0>         0.0767
     30 H5         -2.1576    1.2963    3.3997 H         1 <0>         0.0682
     31 H6         -0.9127    2.2266    4.3004 H         1 <0>         0.0713
     32 H7          1.6496    0.5303    4.5975 H         1 <0>         0.1208
     33 H8          0.3358    0.6057    5.8202 H         1 <0>         0.0848
     34 H9          2.3394   -0.6499    8.2816 H         1 <0>         0.1317
     35 H10         3.8277    0.9792    7.2696 H         1 <0>         0.1330
     36 H11         3.7488   -0.7584    4.6663 H         1 <0>         0.1359
     37 H12         3.8107    2.3140    5.1505 H         1 <0>         0.1400
     38 H13         3.3231    3.3984    3.0594 H         1 <0>         0.1306
     39 H14         4.8834    3.1234    2.2130 H         1 <0>         0.1180
     40 H15         1.3224    1.6044   -2.1361 H         1 <0>         0.1523
     41 H16         4.6857    3.1414   -2.4365 H         1 <0>         0.4408
     42 H17        -0.5154    0.7287   -0.9418 H         1 <0>         0.4449
@<TRIPOS>BOND
     1    1    2 1
     2    1   29 1
     3    1   30 1
     4    1   31 1
     5    2    3 1
     6    2   28 1
     7    2    4 1
     8    4    5 1
     9    4   32 1
    10    4   33 1
    11    5    6 1
    12    5    9 1
    13    5    7 1
    14    7    8 1
    15    7    9 1
    16    7   10 1
    17   10   11 2
    18   10   34 1
    19   11   12 1
    20   11   35 1
    21   12   13 2
    22   12   36 1
    23   13   14 1
    24   13   37 1
    25   14   15 2
    26   14   16 1
    27   16   17 1
    28   16   38 1
    29   16   39 1
    30   17   22 ar
    31   17   18 ar
    32   18   19 ar
    33   18   26 1
    34   19   20 ar
    35   19   25 1
    36   20   21 ar
    37   20   40 1
    38   21   22 ar
    39   21   24 1
    40   22   23 1
    41   24   41 1
    42   25   42 1
    43   26   27 2
    44   26   28 1
@<TRIPOS>MOLECULE
ZINC13515668
   41    43     0     0     0
SMALL
USER_CHARGES
chloro-dihydroxy-methyl-BLAHdione
@<TRIPOS>ATOM
      1 C1         -1.3916    1.2428    4.1873 C.3       1 <0>        -0.1730
      2 C2         -0.3366    0.2031    3.8030 C.3       1 <0>         0.1038
      3 H1         -0.8017   -0.7738    3.6047 H         1 <0>         0.1053
      4 C3          0.7005    0.0808    4.9249 C.3       1 <0>        -0.1871
      5 C4          0.9246   -1.3926    5.2565 C.3       1 <0>        -0.0013
      6 H2          0.7945   -1.7033    4.2093 H         1 <0>         0.1589
      7 C5          1.8742   -1.7631    6.3906 C.3       1 <0>         0.0154
      8 H3          2.7381   -2.4364    6.4921 H         1 <0>         0.1629
      9 O1          0.4550   -1.8843    6.5142 O.3       1 <0>        -0.3191
     10 C6          2.5430   -0.6874    7.2013 C.2       1 <0>        -0.1563
     11 C7          3.3594    0.2015    6.6484 C.2       1 <0>        -0.1216
     12 C8          3.6645    0.1861    5.2238 C.2       1 <0>        -0.0565
     13 C9          3.8462    1.3720    4.5837 C.2       1 <0>        -0.2003
     14 C10         4.0794    1.3957    3.1983 C.2       1 <0>         0.3909
     15 O2          4.3970    0.3852    2.6072 O.2       1 <0>        -0.4541
     16 C11         3.8980    2.6919    2.4427 C.3       1 <0>        -0.1383
     17 C12         3.1538    2.4012    1.1652 C.ar      1 <0>         0.0680
     18 C13         1.8744    1.8349    1.2021 C.ar      1 <0>        -0.2919
     19 C14         1.2213    1.5318   -0.0014 C.ar      1 <0>         0.2513
     20 C15         1.8308    1.8249   -1.2090 C.ar      1 <0>        -0.3684
     21 C16         3.0918    2.3991   -1.2310 C.ar      1 <0>         0.3296
     22 C17         3.7525    2.6836   -0.0395 C.ar      1 <0>        -0.1818
     23 Cl1         5.3347    3.3980   -0.0790 Cl        1 <0>        -0.0950
     24 O3          3.6848    2.6856   -2.4177 O.3       1 <0>        -0.6768
     25 O4         -0.0110    0.9628    0.0073 O.3       1 <0>        -0.4995
     26 C18         1.2111    1.5345    2.4826 C.2       1 <0>         0.5363
     27 O5          1.4831    2.2084    3.4592 O.2       1 <0>        -0.5412
     28 O6          0.2919    0.5683    2.5572 O.3       1 <0>        -0.3443
     29 H4         -1.8628    0.9529    5.1380 H         1 <0>         0.0676
     30 H5         -2.1576    1.2963    3.3997 H         1 <0>         0.0645
     31 H6         -0.9127    2.2266    4.3004 H         1 <0>         0.0707
     32 H7          1.6496    0.5303    4.5975 H         1 <0>         0.1263
     33 H8          0.3358    0.6057    5.8202 H         1 <0>         0.0771
     34 H9          2.3394   -0.6499    8.2816 H         1 <0>         0.1256
     35 H10         3.8277    0.9792    7.2696 H         1 <0>         0.1278
     36 H11         3.7488   -0.7584    4.6663 H         1 <0>         0.1341
     37 H12         3.8107    2.3140    5.1505 H         1 <0>         0.1350
     38 H13         3.3231    3.3984    3.0594 H         1 <0>         0.1132
     39 H14         4.8834    3.1234    2.2130 H         1 <0>         0.1076
     40 H15         1.3224    1.6044   -2.1361 H         1 <0>         0.1145
     41 H16        -0.5154    0.7287   -0.9418 H         1 <0>         0.4203
@<TRIPOS>BOND
     1    1    2 1
     2    1   29 1
     3    1   30 1
     4    1   31 1
     5    2    3 1
     6    2   28 1
     7    2    4 1
     8    4    5 1
     9    4   32 1
    10    4   33 1
    11    5    6 1
    12    5    9 1
    13    5    7 1
    14    7    8 1
    15    7    9 1
    16    7   10 1
    17   10   11 2
    18   10   34 1
    19   11   12 1
    20   11   35 1
    21   12   13 2
    22   12   36 1
    23   13   14 1
    24   13   37 1
    25   14   15 2
    26   14   16 1
    27   16   17 1
    28   16   38 1
    29   16   39 1
    30   17   22 ar
    31   17   18 ar
    32   18   19 ar
    33   18   26 1
    34   19   20 ar
    35   19   25 1
    36   20   21 ar
    37   20   40 1
    38   21   22 ar
    39   21   24 1
    40   22   23 1
    41   25   41 1
    42   26   27 2
    43   26   28 1
@<TRIPOS>MOLECULE
ZINC13515668
   41    43     0     0     0
SMALL
USER_CHARGES
chloro-dihydroxy-methyl-BLAHdione
@<TRIPOS>ATOM
      1 C1         -1.3916    1.2428    4.1873 C.3       1 <0>        -0.1714
      2 C2         -0.3366    0.2031    3.8030 C.3       1 <0>         0.0991
      3 H1         -0.8017   -0.7738    3.6047 H         1 <0>         0.1045
      4 C3          0.7005    0.0808    4.9249 C.3       1 <0>        -0.1851
      5 C4          0.9246   -1.3926    5.2565 C.3       1 <0>        -0.0012
      6 H2          0.7945   -1.7033    4.2093 H         1 <0>         0.1611
      7 C5          1.8742   -1.7631    6.3906 C.3       1 <0>         0.0133
      8 H3          2.7381   -2.4364    6.4921 H         1 <0>         0.1616
      9 O1          0.4550   -1.8843    6.5142 O.3       1 <0>        -0.3191
     10 C6          2.5430   -0.6874    7.2013 C.2       1 <0>        -0.1532
     11 C7          3.3594    0.2015    6.6484 C.2       1 <0>        -0.1240
     12 C8          3.6645    0.1861    5.2238 C.2       1 <0>        -0.0526
     13 C9          3.8462    1.3720    4.5837 C.2       1 <0>        -0.2030
     14 C10         4.0794    1.3957    3.1983 C.2       1 <0>         0.3929
     15 O2          4.3970    0.3852    2.6072 O.2       1 <0>        -0.4560
     16 C11         3.8980    2.6919    2.4427 C.3       1 <0>        -0.1395
     17 C12         3.1538    2.4012    1.1652 C.ar      1 <0>         0.0851
     18 C13         1.8744    1.8349    1.2021 C.ar      1 <0>        -0.3040
     19 C14         1.2213    1.5318   -0.0014 C.ar      1 <0>         0.3383
     20 C15         1.8308    1.8249   -1.2090 C.ar      1 <0>        -0.2936
     21 C16         3.0918    2.3991   -1.2310 C.ar      1 <0>         0.2267
     22 C17         3.7525    2.6836   -0.0395 C.ar      1 <0>        -0.2425
     23 Cl1         5.3347    3.3980   -0.0790 Cl        1 <0>        -0.1021
     24 O3          3.6848    2.6856   -2.4177 O.3       1 <0>        -0.5085
     25 O4         -0.0110    0.9628    0.0073 O.3       1 <0>        -0.6665
     26 C18         1.2111    1.5345    2.4826 C.2       1 <0>         0.5440
     27 O5          1.4831    2.2084    3.4592 O.2       1 <0>        -0.5538
     28 O6          0.2919    0.5683    2.5572 O.3       1 <0>        -0.3226
     29 H4         -1.8628    0.9529    5.1380 H         1 <0>         0.0650
     30 H5         -2.1576    1.2963    3.3997 H         1 <0>         0.0664
     31 H6         -0.9127    2.2266    4.3004 H         1 <0>         0.0690
     32 H7          1.6496    0.5303    4.5975 H         1 <0>         0.1249
     33 H8          0.3358    0.6057    5.8202 H         1 <0>         0.0757
     34 H9          2.3394   -0.6499    8.2816 H         1 <0>         0.1252
     35 H10         3.8277    0.9792    7.2696 H         1 <0>         0.1274
     36 H11         3.7488   -0.7584    4.6663 H         1 <0>         0.1341
     37 H12         3.8107    2.3140    5.1505 H         1 <0>         0.1345
     38 H13         3.3231    3.3984    3.0594 H         1 <0>         0.1149
     39 H14         4.8834    3.1234    2.2130 H         1 <0>         0.1035
     40 H15         1.3224    1.6044   -2.1361 H         1 <0>         0.1180
     41 H16         4.6857    3.1414   -2.4365 H         1 <0>         0.4136
@<TRIPOS>BOND
     1    1    2 1
     2    1   29 1
     3    1   30 1
     4    1   31 1
     5    2    3 1
     6    2   28 1
     7    2    4 1
     8    4    5 1
     9    4   32 1
    10    4   33 1
    11    5    6 1
    12    5    9 1
    13    5    7 1
    14    7    8 1
    15    7    9 1
    16    7   10 1
    17   10   11 2
    18   10   34 1
    19   11   12 1
    20   11   35 1
    21   12   13 2
    22   12   36 1
    23   13   14 1
    24   13   37 1
    25   14   15 2
    26   14   16 1
    27   16   17 1
    28   16   38 1
    29   16   39 1
    30   17   22 ar
    31   17   18 ar
    32   18   19 ar
    33   18   26 1
    34   19   20 ar
    35   19   25 1
    36   20   21 ar
    37   20   40 1
    38   21   22 ar
    39   21   24 1
    40   22   23 1
    41   24   41 1
    42   26   27 2
    43   26   28 1
