@<TRIPOS>MOLECULE
ZINC03815700
   43    46     0     0     0
SMALL
USER_CHARGES

@<TRIPOS>ATOM
      1 C1         -0.4417    2.5108    0.1274 C.3       1 <0>        -0.4980
      2 S1         -0.2285    0.7138    0.0013 S.o       1 <0>         1.3317
      3 O1          0.3381    0.2184    1.2066 O.2       1 <0>        -0.8500
      4 C2         -1.8753    0.0872    0.0153 C.ar      1 <0>        -0.4539
      5 C3         -2.4807   -0.2316    1.2179 C.ar      1 <0>        -0.0505
      6 C4         -3.7698   -0.7226    1.2359 C.ar      1 <0>        -0.0905
      7 C5         -4.4635   -0.8973    0.0374 C.ar      1 <0>         0.0183
      8 C6         -3.8471   -0.5733   -1.1722 C.ar      1 <0>        -0.1282
      9 C7         -2.5593   -0.0786   -1.1759 C.ar      1 <0>        -0.0372
     10 C8         -5.8450   -1.4235    0.0492 C.2       1 <0>         0.2539
     11 N1         -6.6187   -1.6414   -1.0552 N.pl3     1 <0>        -0.5494
     12 H1         -6.3641   -1.4808   -1.9773 H         1 <0>         0.4258
     13 C9         -7.8254   -2.1307   -0.6157 C.2       1 <0>         0.0559
     14 C10        -7.7421   -2.1946    0.7659 C.2       1 <0>         0.0600
     15 N2         -6.5217   -1.7612    1.1224 N.2       1 <0>        -0.4460
     16 C11        -8.8052   -2.6624    1.6841 C.ar      1 <0>         0.0397
     17 C12        -9.5683   -3.7960    1.3824 C.ar      1 <0>        -0.1547
     18 C13       -10.5481   -4.1969    2.2660 C.ar      1 <0>         0.1020
     19 N3        -10.7699   -3.5273    3.3814 N.ar      1 <0>        -0.4829
     20 C14       -10.0734   -2.4536    3.7038 C.ar      1 <0>         0.1009
     21 C15        -9.0708   -1.9865    2.8804 C.ar      1 <0>        -0.1469
     22 C16        -8.9814   -2.5126   -1.4503 C.ar      1 <0>        -0.0400
     23 C17       -10.2631   -2.0665   -1.1192 C.ar      1 <0>        -0.0563
     24 C18       -11.3392   -2.4265   -1.9026 C.ar      1 <0>        -0.1471
     25 C19       -11.1511   -3.2299   -3.0163 C.ar      1 <0>         0.1129
     26 C20        -9.8817   -3.6756   -3.3498 C.ar      1 <0>        -0.1491
     27 C21        -8.7972   -3.3169   -2.5775 C.ar      1 <0>        -0.0765
     28 F1        -12.2093   -3.5802   -3.7797 F         1 <0>        -0.1335
     29 H2          0.5355    2.9936    0.1264 H         1 <0>         0.1086
     30 H3         -1.0243    2.8681   -0.7218 H         1 <0>         0.1118
     31 H4         -0.9645    2.7506    1.0533 H         1 <0>         0.0820
     32 H5         -1.9427   -0.0960    2.1446 H         1 <0>         0.1340
     33 H6         -4.2409   -0.9717    2.1752 H         1 <0>         0.1409
     34 H7         -4.3783   -0.7065   -2.1030 H         1 <0>         0.1252
     35 H8         -2.0825    0.1760   -2.1109 H         1 <0>         0.1447
     36 H9         -9.3927   -4.3483    0.4711 H         1 <0>         0.1333
     37 H10       -11.1422   -5.0705    2.0420 H         1 <0>         0.1579
     38 H11       -10.2890   -1.9361    4.6268 H         1 <0>         0.1588
     39 H12        -8.5017   -1.1100    3.1527 H         1 <0>         0.1379
     40 H13       -10.4110   -1.4411   -0.2513 H         1 <0>         0.1357
     41 H14       -12.3306   -2.0822   -1.6477 H         1 <0>         0.1434
     42 H15        -9.7412   -4.3013   -4.2187 H         1 <0>         0.1424
     43 H16        -7.8079   -3.6609   -2.8410 H         1 <0>         0.1331
@<TRIPOS>BOND
     1    1    2 1
     2    1   29 1
     3    1   30 1
     4    1   31 1
     5    2    3 2
     6    2    4 1
     7    4    9 ar
     8    4    5 ar
     9    5    6 ar
    10    5   32 1
    11    6    7 ar
    12    6   33 1
    13    7    8 ar
    14    7   10 1
    15    8    9 ar
    16    8   34 1
    17    9   35 1
    18   10   15 2
    19   10   11 1
    20   11   12 1
    21   11   13 1
    22   13   14 2
    23   13   22 1
    24   14   15 1
    25   14   16 1
    26   16   21 ar
    27   16   17 ar
    28   17   18 ar
    29   17   36 1
    30   18   19 ar
    31   18   37 1
    32   19   20 ar
    33   20   21 ar
    34   20   38 1
    35   21   39 1
    36   22   27 ar
    37   22   23 ar
    38   23   24 ar
    39   23   40 1
    40   24   25 ar
    41   24   41 1
    42   25   26 ar
    43   25   28 1
    44   26   27 ar
    45   26   42 1
    46   27   43 1
@<TRIPOS>MOLECULE
ZINC18274812
   43    46     0     0     0
SMALL
USER_CHARGES

@<TRIPOS>ATOM
      1 C1          0.0458    2.4645   -0.3714 C.3       1 <0>        -0.4977
      2 S1          0.1034    0.6635   -0.1624 S.o       1 <0>         1.3328
      3 O1          0.9995    0.3374    0.8912 O.2       1 <0>        -0.8522
      4 C2          0.9248    0.0922   -1.6127 C.ar      1 <0>        -0.4531
      5 C3          0.1894   -0.2245   -2.7411 C.ar      1 <0>        -0.0385
      6 C4          0.8263   -0.6720   -3.8801 C.ar      1 <0>        -0.0921
      7 C5          2.2157   -0.8050   -3.8925 C.ar      1 <0>         0.0171
      8 C6          2.9515   -0.4838   -2.7508 C.ar      1 <0>        -0.1253
      9 C7          2.3027   -0.0324   -1.6200 C.ar      1 <0>        -0.0497
     10 C8          2.9049   -1.2844   -5.1094 C.2       1 <0>         0.2582
     11 N1          4.2515   -1.4590   -5.2384 N.pl3     1 <0>        -0.5486
     12 H1          4.9216   -1.2936   -4.5568 H         1 <0>         0.4252
     13 C9          4.4814   -1.9147   -6.5171 C.2       1 <0>         0.0337
     14 C10         3.2416   -2.0017   -7.1294 C.2       1 <0>         0.0807
     15 N2          2.3171   -1.6154   -6.2370 N.2       1 <0>        -0.4488
     16 C11         2.9826   -2.4473   -8.5186 C.ar      1 <0>        -0.0206
     17 C12         3.6496   -3.5590   -9.0325 C.ar      1 <0>        -0.0694
     18 C13         3.4051   -3.9700  -10.3265 C.ar      1 <0>        -0.1511
     19 C14         2.4988   -3.2799  -11.1154 C.ar      1 <0>         0.1060
     20 C15         1.8337   -2.1747  -10.6093 C.ar      1 <0>        -0.1526
     21 C16         2.0668   -1.7598   -9.3145 C.ar      1 <0>        -0.0599
     22 F1          2.2634   -3.6856  -12.3824 F         1 <0>        -0.1371
     23 C17         5.7881   -2.2443   -7.1163 C.ar      1 <0>         0.0226
     24 C18         6.1399   -1.7662   -8.3862 C.ar      1 <0>        -0.1423
     25 C19         7.3716   -2.0992   -8.9074 C.ar      1 <0>         0.1081
     26 N3          8.2131   -2.8565   -8.2286 N.ar      1 <0>        -0.4784
     27 C20         7.9224   -3.3278   -7.0303 C.ar      1 <0>         0.1071
     28 C21         6.7158   -3.0398   -6.4296 C.ar      1 <0>        -0.1652
     29 H2          1.0609    2.8540   -0.4489 H         1 <0>         0.0810
     30 H3         -0.5069    2.7075   -1.2790 H         1 <0>         0.1130
     31 H4         -0.4514    2.9143    0.4881 H         1 <0>         0.1088
     32 H5         -0.8856   -0.1215   -2.7301 H         1 <0>         0.1470
     33 H6          0.2512   -0.9192   -4.7602 H         1 <0>         0.1462
     34 H7          4.0268   -0.5845   -2.7539 H         1 <0>         0.1202
     35 H8          2.8713    0.2203   -0.7373 H         1 <0>         0.1322
     36 H9          4.3566   -4.0971   -8.4186 H         1 <0>         0.1287
     37 H10         3.9211   -4.8308  -10.7253 H         1 <0>         0.1387
     38 H11         1.1282   -1.6400  -11.2280 H         1 <0>         0.1401
     39 H12         1.5446   -0.9009   -8.9194 H         1 <0>         0.1377
     40 H13         5.4562   -1.1467   -8.9476 H         1 <0>         0.1400
     41 H14         7.6520   -1.7358   -9.8850 H         1 <0>         0.1626
     42 H15         8.6418   -3.9441   -6.5116 H         1 <0>         0.1610
     43 H16         6.4868   -3.4248   -5.4469 H         1 <0>         0.1340
@<TRIPOS>BOND
     1    1    2 1
     2    1   29 1
     3    1   30 1
     4    1   31 1
     5    2    3 2
     6    2    4 1
     7    4    9 ar
     8    4    5 ar
     9    5    6 ar
    10    5   32 1
    11    6    7 ar
    12    6   33 1
    13    7    8 ar
    14    7   10 1
    15    8    9 ar
    16    8   34 1
    17    9   35 1
    18   10   15 2
    19   10   11 1
    20   11   12 1
    21   11   13 1
    22   13   14 2
    23   13   23 1
    24   14   15 1
    25   14   16 1
    26   16   21 ar
    27   16   17 ar
    28   17   18 ar
    29   17   36 1
    30   18   19 ar
    31   18   37 1
    32   19   20 ar
    33   19   22 1
    34   20   21 ar
    35   20   38 1
    36   21   39 1
    37   23   28 ar
    38   23   24 ar
    39   24   25 ar
    40   24   40 1
    41   25   26 ar
    42   25   41 1
    43   26   27 ar
    44   27   28 ar
    45   27   42 1
    46   28   43 1
@<TRIPOS>MOLECULE
ZINC18274812
   43    46     0     0     0
SMALL
USER_CHARGES

@<TRIPOS>ATOM
      1 C1          0.0761    2.5207   -0.3946 C.3       1 <0>        -0.4977
      2 S1          0.1067    0.7194   -0.1829 S.o       1 <0>         1.3328
      3 O1          0.9925    0.3819    0.8757 O.2       1 <0>        -0.8523
      4 C2          0.9273    0.1342   -1.6283 C.ar      1 <0>        -0.4535
      5 C3          0.1933   -0.1734   -2.7600 C.ar      1 <0>        -0.0382
      6 C4          0.8295   -0.6320   -3.8950 C.ar      1 <0>        -0.0929
      7 C5          2.2169   -0.7850   -3.8999 C.ar      1 <0>         0.0183
      8 C6          2.9514   -0.4724   -2.7550 C.ar      1 <0>        -0.1257
      9 C7          2.3033   -0.0102   -1.6282 C.ar      1 <0>        -0.0496
     10 C8          2.9053   -1.2765   -5.1125 C.2       1 <0>         0.2536
     11 N1          4.2517   -1.4710   -5.2346 N.pl3     1 <0>        -0.5504
     12 H1          4.9205   -1.3136   -4.5499 H         1 <0>         0.4255
     13 C9          4.4817   -1.9314   -6.5089 C.2       1 <0>         0.0556
     14 C10         3.2446   -2.0022   -7.1288 C.2       1 <0>         0.0602
     15 N2          2.3192   -1.6008   -6.2417 N.2       1 <0>        -0.4443
     16 C11         2.9879   -2.4463   -8.5176 C.ar      1 <0>         0.0401
     17 C12         3.6482   -3.5593   -9.0502 C.ar      1 <0>        -0.1549
     18 C13         3.3789   -3.9386  -10.3482 C.ar      1 <0>         0.1021
     19 N3          2.5133   -3.2676  -11.0845 N.ar      1 <0>        -0.4831
     20 C14         1.8693   -2.2129  -10.6212 C.ar      1 <0>         0.1008
     21 C15         2.0741   -1.7682   -9.3321 C.ar      1 <0>        -0.1466
     22 C16         5.7882   -2.2812   -7.1001 C.ar      1 <0>        -0.0406
     23 C17         6.1350   -1.8042   -8.3665 C.ar      1 <0>        -0.0561
     24 C18         7.3568   -2.1344   -8.9137 C.ar      1 <0>        -0.1471
     25 C19         8.2399   -2.9383   -8.2101 C.ar      1 <0>         0.1131
     26 C20         7.9012   -3.4146   -6.9533 C.ar      1 <0>        -0.1492
     27 C21         6.6848   -3.0860   -6.3932 C.ar      1 <0>        -0.0767
     28 F1          9.4352   -3.2593   -8.7516 F         1 <0>        -0.1334
     29 H2          1.0971    2.8954   -0.4674 H         1 <0>         0.0810
     30 H3         -0.4683    2.7703   -1.3054 H         1 <0>         0.1130
     31 H4         -0.4189    2.9788    0.4616 H         1 <0>         0.1087
     32 H5         -0.8802   -0.0546   -2.7549 H         1 <0>         0.1468
     33 H6          0.2554   -0.8725   -4.7775 H         1 <0>         0.1457
     34 H7          4.0251   -0.5889   -2.7522 H         1 <0>         0.1204
     35 H8          2.8708    0.2356   -0.7429 H         1 <0>         0.1321
     36 H9          4.3583   -4.1127   -8.4536 H         1 <0>         0.1329
     37 H10         3.8834   -4.7962  -10.7681 H         1 <0>         0.1577
     38 H11         1.1696   -1.6933  -11.2591 H         1 <0>         0.1590
     39 H12         1.5402   -0.9072   -8.9580 H         1 <0>         0.1385
     40 H13         5.4474   -1.1783   -8.9159 H         1 <0>         0.1360
     41 H14         7.6261   -1.7662   -9.8926 H         1 <0>         0.1436
     42 H15         8.5933   -4.0406   -6.4097 H         1 <0>         0.1423
     43 H16         6.4240   -3.4537   -5.4118 H         1 <0>         0.1327
@<TRIPOS>BOND
     1    1    2 1
     2    1   29 1
     3    1   30 1
     4    1   31 1
     5    2    3 2
     6    2    4 1
     7    4    9 ar
     8    4    5 ar
     9    5    6 ar
    10    5   32 1
    11    6    7 ar
    12    6   33 1
    13    7    8 ar
    14    7   10 1
    15    8    9 ar
    16    8   34 1
    17    9   35 1
    18   10   15 2
    19   10   11 1
    20   11   12 1
    21   11   13 1
    22   13   14 2
    23   13   22 1
    24   14   15 1
    25   14   16 1
    26   16   21 ar
    27   16   17 ar
    28   17   18 ar
    29   17   36 1
    30   18   19 ar
    31   18   37 1
    32   19   20 ar
    33   20   21 ar
    34   20   38 1
    35   21   39 1
    36   22   27 ar
    37   22   23 ar
    38   23   24 ar
    39   23   40 1
    40   24   25 ar
    41   24   41 1
    42   25   26 ar
    43   25   28 1
    44   26   27 ar
    45   26   42 1
    46   27   43 1
@<TRIPOS>MOLECULE
ZINC00008732
   40    42     0     0     0
SMALL
USER_CHARGES
N-(4-chlorophenyl)-2-(4-pyridylmethylamino)benzamide
@<TRIPOS>ATOM
      1 C1          3.5646    3.1023    0.0107 C.ar      1 <0>        -0.1892
      2 C2          2.3520    3.7686   -0.0720 C.ar      1 <0>        -0.0339
      3 C3          1.1659    3.0639   -0.0690 C.ar      1 <0>        -0.2116
      4 C4          1.1804    1.6771    0.0169 C.ar      1 <0>         0.2828
      5 C5          2.4065    0.9998    0.1057 C.ar      1 <0>        -0.2339
      6 C6          3.5992    1.7280    0.0970 C.ar      1 <0>        -0.0330
      7 C7          2.4361   -0.4707    0.2035 C.2       1 <0>         0.5767
      8 O1          1.4043   -1.1074    0.1076 O.2       1 <0>        -0.5323
      9 N1          3.6065   -1.1097    0.3992 N.am      1 <0>        -0.6684
     10 C8          3.6486   -2.5081    0.3987 C.ar      1 <0>         0.1494
     11 C9          2.5872   -3.2362    0.9202 C.ar      1 <0>        -0.1076
     12 C10         2.6286   -4.6166    0.9129 C.ar      1 <0>        -0.0910
     13 C11         3.7319   -5.2742    0.3978 C.ar      1 <0>        -0.0490
     14 C12         4.7935   -4.5511   -0.1173 C.ar      1 <0>        -0.0904
     15 C13         4.7545   -3.1706   -0.1180 C.ar      1 <0>        -0.1323
     16 Cl1         3.7842   -7.0095    0.3972 Cl        1 <0>        -0.0683
     17 N2         -0.0121    0.9654    0.0206 N.pl3     1 <0>        -0.7212
     18 C14        -1.2911    1.6793    0.0525 C.3       1 <0>         0.1556
     19 C15        -2.4224    0.6838    0.0431 C.ar      1 <0>        -0.0625
     20 C16        -2.9734    0.2467   -1.1518 C.ar      1 <0>        -0.1534
     21 C17        -4.0071   -0.6701   -1.1212 C.ar      1 <0>         0.0997
     22 N3         -4.4752   -1.1208    0.0263 N.ar      1 <0>        -0.4787
     23 C18        -3.9788   -0.7239    1.1816 C.ar      1 <0>         0.0996
     24 C19        -2.9409    0.1875    1.2294 C.ar      1 <0>        -0.1533
     25 H1          4.4872    3.6637    0.0079 H         1 <0>         0.1272
     26 H2          2.3355    4.8464   -0.1390 H         1 <0>         0.1283
     27 H3          0.2253    3.5906   -0.1331 H         1 <0>         0.1295
     28 H4          4.5469    1.2141    0.1616 H         1 <0>         0.1235
     29 H5          4.4196   -0.6000    0.5403 H         1 <0>         0.4134
     30 H6          1.7281   -2.7234    1.3271 H         1 <0>         0.1473
     31 H7          1.8012   -5.1834    1.3136 H         1 <0>         0.1372
     32 H8          5.6530   -5.0668   -0.5193 H         1 <0>         0.1387
     33 H9          5.5830   -2.6067   -0.5204 H         1 <0>         0.1362
     34 H10         0.0016   -0.0042   -0.0019 H         1 <0>         0.4212
     35 H11        -1.3470    2.2844    0.9574 H         1 <0>         0.0767
     36 H12        -1.3684    2.3254   -0.8220 H         1 <0>         0.0764
     37 H13        -2.5973    0.6156   -2.0946 H         1 <0>         0.1366
     38 H14        -4.4395   -1.0181   -2.0477 H         1 <0>         0.1588
     39 H15        -4.3882   -1.1152    2.1012 H         1 <0>         0.1587
     40 H16        -2.5390    0.5092    2.1788 H         1 <0>         0.1364
@<TRIPOS>BOND
     1    1    6 ar
     2    1    2 ar
     3    1   25 1
     4    2    3 ar
     5    2   26 1
     6    3    4 ar
     7    3   27 1
     8    4    5 ar
     9    4   17 1
    10    5    6 ar
    11    5    7 1
    12    6   28 1
    13    7    8 2
    14    7    9 am
    15    9   10 1
    16    9   29 1
    17   10   15 ar
    18   10   11 ar
    19   11   12 ar
    20   11   30 1
    21   12   13 ar
    22   12   31 1
    23   13   14 ar
    24   13   16 1
    25   14   15 ar
    26   14   32 1
    27   15   33 1
    28   17   18 1
    29   17   34 1
    30   18   19 1
    31   18   35 1
    32   18   36 1
    33   19   24 ar
    34   19   20 ar
    35   20   21 ar
    36   20   37 1
    37   21   22 ar
    38   21   38 1
    39   22   23 ar
    40   23   24 ar
    41   23   39 1
    42   24   40 1
@<TRIPOS>MOLECULE
ZINC13812765
   54    58     0     0     0
SMALL
USER_CHARGES
6-(2,6-dichlorophenyl)-8-methyl-2-[(4-morpholinophenyl)amino]pyrido[6,5-d]pyrimidin-7-one
@<TRIPOS>ATOM
      1 C1          0.0687    1.0901    0.1116 C.3       1 <0>         0.0701
      2 N1         -0.4256    1.5832    1.3995 N.am      1 <0>        -0.5063
      3 C2         -0.5381    2.9341    1.6116 C.ar      1 <0>         0.4672
      4 C3         -1.0181    3.4257    2.8449 C.ar      1 <0>        -0.2783
      5 C4         -1.3766    2.5289    3.8770 C.2       1 <0>         0.0316
      6 C5         -1.2558    1.1827    3.6582 C.2       1 <0>        -0.1650
      7 C6         -0.7600    0.7060    2.3653 C.2       1 <0>         0.5578
      8 O1         -0.6498   -0.4900    2.1622 O.2       1 <0>        -0.5029
      9 C7         -1.6228    0.2170    4.7202 C.ar      1 <0>        -0.0099
     10 C8         -0.6646   -0.2107    5.6401 C.ar      1 <0>        -0.0065
     11 C9         -1.0148   -1.1067    6.6311 C.ar      1 <0>        -0.1065
     12 C10        -2.3092   -1.5888    6.7060 C.ar      1 <0>        -0.0874
     13 C11        -3.2624   -1.1733    5.7937 C.ar      1 <0>        -0.1064
     14 C12        -2.9268   -0.2732    4.8013 C.ar      1 <0>        -0.0065
     15 Cl1        -4.1243    0.2466    3.6571 Cl        1 <0>        -0.0502
     16 Cl2         0.9621    0.3876    5.5434 Cl        1 <0>        -0.0503
     17 C13        -1.1231    4.8139    3.0190 C.ar      1 <0>         0.2640
     18 N2         -0.7738    5.6040    2.0212 N.ar      1 <0>        -0.5685
     19 C14        -0.3309    5.1056    0.8720 C.ar      1 <0>         0.6086
     20 N3         -0.2147    3.8034    0.6608 N.ar      1 <0>        -0.5957
     21 N4          0.0216    5.9777   -0.1395 N.pl3     1 <0>        -0.6241
     22 C15        -0.1990    7.3525    0.0126 C.ar      1 <0>         0.1313
     23 C16        -1.3055    7.8041    0.7199 C.ar      1 <0>        -0.0798
     24 C17        -1.5204    9.1593    0.8740 C.ar      1 <0>        -0.1488
     25 C18        -0.6355   10.0708    0.3129 C.ar      1 <0>         0.0971
     26 C19         0.4681    9.6192   -0.3990 C.ar      1 <0>        -0.1172
     27 C20         0.6855    8.2640   -0.5489 C.ar      1 <0>        -0.1155
     28 N5         -0.8562   11.4443    0.4644 N.pl3     1 <0>        -0.4872
     29 C21         0.3065   12.0999    1.0805 C.3       1 <0>         0.0198
     30 C22         0.0470   13.6060    1.1727 C.3       1 <0>         0.0611
     31 O2         -1.1567   13.8329    1.9108 O.3       1 <0>        -0.3827
     32 C23        -2.3093   13.2091    1.3385 C.3       1 <0>         0.0615
     33 C24        -2.0737   11.6990    1.2481 C.3       1 <0>         0.0123
     34 H1          0.0953    0.0006    0.1257 H         1 <0>         0.1006
     35 H2          1.0730    1.4758   -0.0638 H         1 <0>         0.0800
     36 H3         -0.5943    1.4272   -0.6852 H         1 <0>         0.0803
     37 H4         -1.7407    2.8999    4.8237 H         1 <0>         0.1502
     38 H5         -0.2753   -1.4351    7.3464 H         1 <0>         0.1437
     39 H6         -2.5767   -2.2930    7.4799 H         1 <0>         0.1454
     40 H7         -4.2711   -1.5537    5.8574 H         1 <0>         0.1437
     41 H8         -1.4818    5.2273    3.9501 H         1 <0>         0.1873
     42 H9          0.4219    5.6381   -0.9552 H         1 <0>         0.4261
     43 H10        -1.9958    7.0952    1.1528 H         1 <0>         0.1359
     44 H11        -2.3786    9.5104    1.4276 H         1 <0>         0.1305
     45 H12         1.1560   10.3280   -0.8357 H         1 <0>         0.1300
     46 H13         1.5438    7.9128   -1.1025 H         1 <0>         0.1287
     47 H14         0.4646   11.6960    2.0805 H         1 <0>         0.0544
     48 H15         1.1916   11.9198    0.4704 H         1 <0>         0.0931
     49 H16        -0.0578   14.0192    0.1695 H         1 <0>         0.0625
     50 H17         0.8818   14.0894    1.6801 H         1 <0>         0.1034
     51 H18        -2.4827   13.6108    0.3402 H         1 <0>         0.0622
     52 H19        -3.1791   13.4048    1.9657 H         1 <0>         0.1035
     53 H20        -2.9261   11.2262    0.7602 H         1 <0>         0.0942
     54 H21        -1.9540   11.2880    2.2505 H         1 <0>         0.0573
@<TRIPOS>BOND
     1    1    2 1
     2    1   34 1
     3    1   35 1
     4    1   36 1
     5    2    7 am
     6    2    3 1
     7    3   20 ar
     8    3    4 ar
     9    4    5 1
    10    4   17 ar
    11    5    6 2
    12    5   37 1
    13    6    7 1
    14    6    9 1
    15    7    8 2
    16    9   14 ar
    17    9   10 ar
    18   10   11 ar
    19   10   16 1
    20   11   12 ar
    21   11   38 1
    22   12   13 ar
    23   12   39 1
    24   13   14 ar
    25   13   40 1
    26   14   15 1
    27   17   18 ar
    28   17   41 1
    29   18   19 ar
    30   19   20 ar
    31   19   21 1
    32   21   22 1
    33   21   42 1
    34   22   27 ar
    35   22   23 ar
    36   23   24 ar
    37   23   43 1
    38   24   25 ar
    39   24   44 1
    40   25   26 ar
    41   25   28 1
    42   26   27 ar
    43   26   45 1
    44   27   46 1
    45   28   33 1
    46   28   29 1
    47   29   30 1
    48   29   47 1
    49   29   48 1
    50   30   31 1
    51   30   49 1
    52   30   50 1
    53   31   32 1
    54   32   33 1
    55   32   51 1
    56   32   52 1
    57   33   53 1
    58   33   54 1
@<TRIPOS>MOLECULE
ZINC20148984
   41    45     0     0     0
SMALL
USER_CHARGES
1-cyclopentyl-3-(1H-pyrrolo[3,2-e]pyridin-5-yl)pyrazolo[4,5-e]pyrimidin-4-amine
@<TRIPOS>ATOM
      1 C1          4.4845    4.9055    2.0125 C.2       1 <0>        -0.1900
      2 C2          5.5992    4.3307    1.5348 C.2       1 <0>         0.0669
      3 N1          5.2848    3.4893    0.5015 N.pl3     1 <0>        -0.5784
      4 H1          5.9256    2.9627   -0.0014 H         1 <0>         0.4233
      5 C3          3.9281    3.5001    0.2812 C.ar      1 <0>         0.2921
      6 C4          3.3669    4.3889    1.2195 C.ar      1 <0>        -0.1505
      7 C5          1.9890    4.6049    1.2249 C.ar      1 <0>         0.0123
      8 C6          1.2154    3.9130    0.2940 C.ar      1 <0>        -0.1086
      9 C7          1.8449    3.0477   -0.6050 C.ar      1 <0>         0.1517
     10 N2          3.1471    2.8701   -0.5872 N.ar      1 <0>        -0.4865
     11 C8         -0.2553    4.0974    0.2542 C.2       1 <0>         0.1769
     12 C9         -1.2579    3.0400    0.1283 C.ar      1 <0>        -0.3246
     13 C10        -1.2161    1.6416    0.0009 C.ar      1 <0>         0.5185
     14 N3         -2.3661    0.9828   -0.1017 N.ar      1 <0>        -0.6042
     15 C11        -3.5224    1.6223   -0.0898 C.ar      1 <0>         0.3863
     16 N4         -3.6100    2.9293    0.0228 N.ar      1 <0>        -0.5738
     17 C12        -2.5123    3.6779    0.1313 C.ar      1 <0>         0.3755
     18 N5         -2.2765    5.0144    0.2581 N.pl3     1 <0>        -0.3684
     19 N6         -0.8976    5.2388    0.3304 N.2       1 <0>        -0.2292
     20 C13        -3.3071    6.0542    0.3110 C.3       1 <0>         0.1632
     21 C14        -3.0862    7.0753   -0.8240 C.3       1 <0>        -0.1330
     22 C15        -3.4640    8.4369   -0.1879 C.3       1 <0>        -0.1220
     23 C16        -2.9184    8.3038    1.2556 C.3       1 <0>        -0.1210
     24 C17        -3.2009    6.8348    1.6328 C.3       1 <0>        -0.1322
     25 N7         -0.0104    0.9674   -0.0117 N.pl3     1 <0>        -0.8291
     26 H2          4.4234    5.6137    2.8256 H         1 <0>         0.1556
     27 H3          6.5967    4.5059    1.9100 H         1 <0>         0.1829
     28 H4          1.5348    5.2845    1.9308 H         1 <0>         0.1424
     29 H5          1.2485    2.5132   -1.3297 H         1 <0>         0.1671
     30 H6         -4.4328    1.0478   -0.1756 H         1 <0>         0.2050
     31 H7         -4.2959    5.6044    0.2215 H         1 <0>         0.1144
     32 H8         -2.0422    7.0775   -1.1374 H         1 <0>         0.0814
     33 H9         -3.7386    6.8539   -1.6687 H         1 <0>         0.0742
     34 H10        -4.5455    8.5726   -0.1810 H         1 <0>         0.0720
     35 H11        -2.9740    9.2575   -0.7119 H         1 <0>         0.0733
     36 H12        -3.4484    8.9788    1.9276 H         1 <0>         0.0704
     37 H13        -1.8473    8.5043    1.2786 H         1 <0>         0.0705
     38 H14        -4.1384    6.7646    2.1843 H         1 <0>         0.0772
     39 H15        -2.3825    6.4400    2.2349 H         1 <0>         0.0748
     40 H16         0.0305    0.0526   -0.3317 H         1 <0>         0.4120
     41 H17         0.7961    1.4102    0.2956 H         1 <0>         0.4116
@<TRIPOS>BOND
     1    1    6 1
     2    1    2 2
     3    1   26 1
     4    2    3 1
     5    2   27 1
     6    3    4 1
     7    3    5 1
     8    5   10 ar
     9    5    6 ar
    10    6    7 ar
    11    7    8 ar
    12    7   28 1
    13    8    9 ar
    14    8   11 1
    15    9   10 ar
    16    9   29 1
    17   11   19 2
    18   11   12 1
    19   12   17 ar
    20   12   13 ar
    21   13   14 ar
    22   13   25 1
    23   14   15 ar
    24   15   16 ar
    25   15   30 1
    26   16   17 ar
    27   17   18 1
    28   18   19 1
    29   18   20 1
    30   20   24 1
    31   20   21 1
    32   20   31 1
    33   21   22 1
    34   21   32 1
    35   21   33 1
    36   22   23 1
    37   22   34 1
    38   22   35 1
    39   23   24 1
    40   23   36 1
    41   23   37 1
    42   24   38 1
    43   24   39 1
    44   25   40 1
    45   25   41 1
@<TRIPOS>MOLECULE
ZINC13981078
   64    68     0     0     0
SMALL
USER_CHARGES
3-[2-[2-cyclopentyl-6-[(4-dimethylphosphorylphenyl)amino]purin-9-yl]ethyl]phenol
@<TRIPOS>ATOM
      1 C1          4.0010   17.8850   -0.4446 C.3       1 <0>        -0.8111
      2 P1          4.8924   16.2961   -0.5068 P.3       1 <0>         2.5575
      3 O1          5.8531   16.3131   -1.6326 O.2       1 <0>        -1.0031
      4 C2          5.7938   16.0434    1.0575 C.3       1 <0>        -0.8083
      5 C3          3.7051   14.9456   -0.7455 C.ar      1 <0>        -0.7485
      6 C4          4.0888   13.8007   -1.4195 C.ar      1 <0>        -0.0188
      7 C5          3.1875   12.7704   -1.6025 C.ar      1 <0>        -0.1238
      8 C6          1.8941   12.8854   -1.1091 C.ar      1 <0>         0.1508
      9 C7          1.5101   14.0394   -0.4379 C.ar      1 <0>        -0.1661
     10 C8          2.4184   15.0631   -0.2525 C.ar      1 <0>        -0.0515
     11 N1          0.9794   11.8446   -1.2925 N.pl3     1 <0>        -0.5463
     12 C9          1.4094   10.5290   -1.2480 C.ar      1 <0>         0.4237
     13 C10         0.5300    9.4745   -1.5481 C.ar      1 <0>        -0.0626
     14 C11         1.0226    8.1603   -1.4801 C.ar      1 <0>         0.2957
     15 N2          2.2945    7.9636   -1.1478 N.ar      1 <0>        -0.5237
     16 C12         3.0818    8.9825   -0.8745 C.ar      1 <0>         0.3739
     17 N3          2.6631   10.2341   -0.9199 N.ar      1 <0>        -0.5433
     18 C13         4.5148    8.7104   -0.4959 C.3       1 <0>        -0.0209
     19 C14         4.8213    9.3217    0.8870 C.3       1 <0>        -0.1119
     20 C15         6.2741    9.8429    0.7584 C.3       1 <0>        -0.1223
     21 C16         6.3128   10.3939   -0.6887 C.3       1 <0>        -0.1226
     22 C17         5.4632    9.3922   -1.4977 C.3       1 <0>        -0.1093
     23 N4         -0.0273    7.3449   -1.8191 N.pl3     1 <0>        -0.4725
     24 C18        -1.1019    8.1452   -2.0696 C.2       1 <0>         0.2674
     25 N5         -0.7728    9.3942   -1.9100 N.2       1 <0>        -0.4577
     26 C19        -0.0003    5.8819   -1.8923 C.3       1 <0>         0.1170
     27 C20        -0.2496    5.2969   -0.5007 C.3       1 <0>        -0.0934
     28 C21        -0.2217    3.7921   -0.5760 C.ar      1 <0>        -0.0710
     29 C22         0.9693    3.1132   -0.3948 C.ar      1 <0>        -0.1195
     30 C23         0.9982    1.7328   -0.4633 C.ar      1 <0>        -0.0988
     31 C24        -0.1635    1.0279   -0.7136 C.ar      1 <0>        -0.1436
     32 C25        -1.3585    1.7068   -0.9009 C.ar      1 <0>         0.1078
     33 C26        -1.3860    3.0920   -0.8256 C.ar      1 <0>        -0.1400
     34 O2         -2.5015    1.0160   -1.1528 O.3       1 <0>        -0.4991
     35 H1          3.2935   17.8725    0.3845 H         1 <0>         0.0882
     36 H2          4.7144   18.6965   -0.3012 H         1 <0>         0.1092
     37 H3          3.4620   18.0361   -1.3799 H         1 <0>         0.1117
     38 H4          6.3268   15.0933    1.0203 H         1 <0>         0.1107
     39 H5          6.5073   16.8549    1.2009 H         1 <0>         0.1077
     40 H6          5.0863   16.0309    1.8866 H         1 <0>         0.0883
     41 H7          5.0946   13.7120   -1.8029 H         1 <0>         0.1453
     42 H8          3.4881   11.8763   -2.1284 H         1 <0>         0.1375
     43 H9          0.5039   14.1339   -0.0572 H         1 <0>         0.1292
     44 H10         2.1221   15.9583    0.2740 H         1 <0>         0.1261
     45 H11         0.2740   11.8923   -0.5853 H         1 <0>         0.3784
     46 H12         4.6989    7.6362   -0.4792 H         1 <0>         0.1001
     47 H13         4.1384   10.1440    1.1003 H         1 <0>         0.0743
     48 H14         4.7567    8.5596    1.6636 H         1 <0>         0.0669
     49 H15         6.9888    9.0291    0.8811 H         1 <0>         0.0692
     50 H16         6.4646   10.6377    1.4796 H         1 <0>         0.0683
     51 H17         7.3367   10.4144   -1.0619 H         1 <0>         0.0698
     52 H18         5.8708   11.3894   -0.7298 H         1 <0>         0.0713
     53 H19         6.1080    8.6489   -1.9666 H         1 <0>         0.0714
     54 H20         4.8869    9.9191   -2.2582 H         1 <0>         0.0658
     55 H21        -2.0818    7.7946   -2.3585 H         1 <0>         0.2272
     56 H22         0.9740    5.5543   -2.2550 H         1 <0>         0.1002
     57 H23        -0.7768    5.5379   -2.5756 H         1 <0>         0.1041
     58 H24        -1.2239    5.6246   -0.1381 H         1 <0>         0.0816
     59 H25         0.5269    5.6410    0.1825 H         1 <0>         0.0838
     60 H26         1.8785    3.6624   -0.1991 H         1 <0>         0.1275
     61 H27         1.9297    1.2049   -0.3214 H         1 <0>         0.1301
     62 H28        -0.1403   -0.0505   -0.7677 H         1 <0>         0.1302
     63 H29        -2.3160    3.6226   -0.9667 H         1 <0>         0.1293
     64 H30        -2.9949    0.7691   -0.3586 H         1 <0>         0.3927
@<TRIPOS>BOND
     1    1    2 1
     2    1   35 1
     3    1   36 1
     4    1   37 1
     5    2    3 2
     6    2    4 1
     7    2    5 1
     8    4   38 1
     9    4   39 1
    10    4   40 1
    11    5   10 ar
    12    5    6 ar
    13    6    7 ar
    14    6   41 1
    15    7    8 ar
    16    7   42 1
    17    8    9 ar
    18    8   11 1
    19    9   10 ar
    20    9   43 1
    21   10   44 1
    22   11   12 1
    23   11   45 1
    24   12   17 ar
    25   12   13 ar
    26   13   25 1
    27   13   14 ar
    28   14   15 ar
    29   14   23 1
    30   15   16 ar
    31   16   17 ar
    32   16   18 1
    33   18   22 1
    34   18   19 1
    35   18   46 1
    36   19   20 1
    37   19   47 1
    38   19   48 1
    39   20   21 1
    40   20   49 1
    41   20   50 1
    42   21   22 1
    43   21   51 1
    44   21   52 1
    45   22   53 1
    46   22   54 1
    47   23   24 1
    48   23   26 1
    49   24   25 2
    50   24   55 1
    51   26   27 1
    52   26   56 1
    53   26   57 1
    54   27   28 1
    55   27   58 1
    56   27   59 1
    57   28   33 ar
    58   28   29 ar
    59   29   30 ar
    60   29   60 1
    61   30   31 ar
    62   30   61 1
    63   31   32 ar
    64   31   62 1
    65   32   33 ar
    66   32   34 1
    67   33   63 1
    68   34   64 1
@<TRIPOS>MOLECULE
ZINC13493055
   37    40     0     0     0
SMALL
USER_CHARGES
5-(2,6-dichlorophenyl)-2-(2,4-difluorophenyl)sulfanyl-pyrimido[6,1-f]pyridazin-6-one
@<TRIPOS>ATOM
      1 C1          0.7819    4.3410    0.0524 C.ar      1 <0>        -0.0865
      2 C2         -0.4275    5.0027   -0.0644 C.ar      1 <0>        -0.1052
      3 C3         -1.6103    4.2903   -0.0692 C.ar      1 <0>        -0.0078
      4 C4         -1.5836    2.8981    0.0381 C.ar      1 <0>        -0.0051
      5 C5         -0.3594    2.2372    0.1611 C.ar      1 <0>        -0.0079
      6 C6          0.8156    2.9624    0.1649 C.ar      1 <0>        -0.1052
      7 Cl1        -0.3147    0.5075    0.3018 Cl        1 <0>        -0.0496
      8 C7         -2.8461    2.1276    0.0266 C.2       1 <0>        -0.1962
      9 C8         -3.3978    1.6608   -1.1750 C.2       1 <0>         0.1634
     10 C9         -2.7630    1.9018   -2.4066 C.2       1 <0>        -0.0494
     11 C10        -3.3310    1.4261   -3.5469 C.2       1 <0>        -0.1079
     12 C11        -4.5373    0.6985   -3.4809 C.2       1 <0>         0.1181
     13 N1         -5.1260    0.4712   -2.3297 N.2       1 <0>        -0.2574
     14 N2         -4.5673    0.9472   -1.1371 N.pl3     1 <0>        -0.3270
     15 C12        -5.1778    0.7109    0.0511 C.2       1 <0>         0.4228
     16 N3         -4.6823    1.1412    1.1775 N.2       1 <0>        -0.5427
     17 C13        -3.5381    1.8434    1.2263 C.2       1 <0>         0.5151
     18 O1         -3.0989    2.2338    2.2995 O.2       1 <0>        -0.4890
     19 S1         -5.2649    0.0865   -4.9643 S.3       1 <0>         0.1498
     20 C14        -6.6196   -0.8905   -4.4031 C.ar      1 <0>        -0.2138
     21 C15        -7.9169   -0.4067   -4.5085 C.ar      1 <0>         0.0058
     22 C16        -8.9776   -1.1741   -4.0680 C.ar      1 <0>        -0.1725
     23 C17        -8.7491   -2.4257   -3.5211 C.ar      1 <0>         0.1750
     24 C18        -7.4569   -2.9119   -3.4142 C.ar      1 <0>        -0.2011
     25 C19        -6.3919   -2.1502   -3.8590 C.ar      1 <0>         0.1941
     26 F1         -5.1316   -2.6265   -3.7599 F         1 <0>        -0.1130
     27 F2         -9.7887   -3.1735   -3.0908 F         1 <0>        -0.1191
     28 Cl2        -3.1267    5.1227   -0.2165 Cl        1 <0>        -0.0501
     29 H1          1.7040    4.9031    0.0556 H         1 <0>         0.1468
     30 H2         -0.4464    6.0789   -0.1525 H         1 <0>         0.1450
     31 H3          1.7632    2.4523    0.2554 H         1 <0>         0.1450
     32 H4         -1.8394    2.4601   -2.4465 H         1 <0>         0.1694
     33 H5         -2.8589    1.6049   -4.5017 H         1 <0>         0.1688
     34 H6         -6.1009    0.1504    0.0642 H         1 <0>         0.2171
     35 H7         -8.0965    0.5691   -4.9351 H         1 <0>         0.1572
     36 H8         -9.9865   -0.7976   -4.1504 H         1 <0>         0.1548
     37 H9         -7.2812   -3.8884   -2.9877 H         1 <0>         0.1586
@<TRIPOS>BOND
     1    1    6 ar
     2    1    2 ar
     3    1   29 1
     4    2    3 ar
     5    2   30 1
     6    3    4 ar
     7    3   28 1
     8    4    5 ar
     9    4    8 1
    10    5    6 ar
    11    5    7 1
    12    6   31 1
    13    8   17 1
    14    8    9 2
    15    9   14 1
    16    9   10 1
    17   10   11 2
    18   10   32 1
    19   11   12 1
    20   11   33 1
    21   12   13 2
    22   12   19 1
    23   13   14 1
    24   14   15 1
    25   15   16 2
    26   15   34 1
    27   16   17 1
    28   17   18 2
    29   19   20 1
    30   20   25 ar
    31   20   21 ar
    32   21   22 ar
    33   21   35 1
    34   22   23 ar
    35   22   36 1
    36   23   24 ar
    37   23   27 1
    38   24   25 ar
    39   24   37 1
    40   25   26 1
@<TRIPOS>MOLECULE
ZINC13677843
   40    43     0     0     0
SMALL
USER_CHARGES

@<TRIPOS>ATOM
      1 C1         -0.4972    1.2152   -0.2273 C.3       1 <0>         0.0236
      2 O1          0.2492    0.0508    0.1321 O.3       1 <0>        -0.3016
      3 C2          1.0792   -0.4664   -0.8127 C.ar      1 <0>         0.1188
      4 C3          1.1765    0.1382   -2.0569 C.ar      1 <0>        -0.1587
      5 C4          2.0179   -0.3853   -3.0165 C.ar      1 <0>        -0.0646
      6 C5          2.7744   -1.5219   -2.7446 C.ar      1 <0>        -0.0211
      7 C6          2.6764   -2.1301   -1.4915 C.ar      1 <0>        -0.1369
      8 C7          1.8363   -1.6002   -0.5298 C.ar      1 <0>         0.0987
      9 O2          1.7453   -2.1901    0.6922 O.3       1 <0>        -0.3036
     10 C8          2.5502   -3.3498    0.9142 C.3       1 <0>         0.0239
     11 C9          3.5874   -1.8732   -3.9364 C.2       1 <0>         0.1308
     12 C10         3.3328   -0.9438   -4.9607 C.2       1 <0>        -0.3055
     13 C11         4.0858   -1.2858   -6.0373 C.2       1 <0>         0.3755
     14 N1          4.7955   -2.3970   -5.7063 N.pl3     1 <0>        -0.4880
     15 H1          5.4199   -2.8666   -6.2811 H         1 <0>         0.4434
     16 N2          4.4675   -2.7446   -4.3901 N.2       1 <0>        -0.2659
     17 N3          4.1239   -0.6194   -7.2594 N.pl3     1 <0>        -0.6554
     18 C12         4.8518   -1.1551   -8.3248 C.ar      1 <0>         0.1980
     19 C13         4.9430   -2.5328   -8.4827 C.ar      1 <0>        -0.1958
     20 C14         5.6626   -3.0602   -9.5366 C.ar      1 <0>        -0.0481
     21 C15         6.2933   -2.2197  -10.4353 C.ar      1 <0>        -0.1801
     22 C16         6.2052   -0.8460  -10.2819 C.ar      1 <0>         0.1402
     23 C17         5.4809   -0.3118   -9.2312 C.ar      1 <0>        -0.1933
     24 F1          6.8226   -0.0273  -11.1616 F         1 <0>        -0.1319
     25 C18         2.3257    0.0459   -4.4300 C.3       1 <0>         0.0158
     26 H2          0.1893    2.0210   -0.4870 H         1 <0>         0.0572
     27 H3         -1.1328    0.9893   -1.0835 H         1 <0>         0.0572
     28 H4         -1.1174    1.5233    0.6144 H         1 <0>         0.1025
     29 H5          0.5923    1.0200   -2.2751 H         1 <0>         0.1425
     30 H6          3.2595   -3.0123   -1.2723 H         1 <0>         0.1407
     31 H7          2.2797   -4.1229    0.1950 H         1 <0>         0.0564
     32 H8          3.6019   -3.0912    0.7915 H         1 <0>         0.0565
     33 H9          2.3827   -3.7200    1.9257 H         1 <0>         0.1025
     34 H10         3.6450    0.2167   -7.3711 H         1 <0>         0.4302
     35 H11         4.4515   -3.1906   -7.7812 H         1 <0>         0.1322
     36 H12         5.7332   -4.1310   -9.6589 H         1 <0>         0.1413
     37 H13         6.8560   -2.6351  -11.2582 H         1 <0>         0.1408
     38 H14         5.4082    0.7593   -9.1138 H         1 <0>         0.1425
     39 H15         1.4198    0.0201   -5.0355 H         1 <0>         0.0899
     40 H16         2.7500    1.0499   -4.4317 H         1 <0>         0.0894
@<TRIPOS>BOND
     1    1    2 1
     2    1   26 1
     3    1   27 1
     4    1   28 1
     5    2    3 1
     6    3    8 ar
     7    3    4 ar
     8    4    5 ar
     9    4   29 1
    10    5   25 1
    11    5    6 ar
    12    6    7 ar
    13    6   11 1
    14    7    8 ar
    15    7   30 1
    16    8    9 1
    17    9   10 1
    18   10   31 1
    19   10   32 1
    20   10   33 1
    21   11   16 2
    22   11   12 1
    23   12   13 2
    24   12   25 1
    25   13   14 1
    26   13   17 1
    27   14   15 1
    28   14   16 1
    29   17   18 1
    30   17   34 1
    31   18   23 ar
    32   18   19 ar
    33   19   20 ar
    34   19   35 1
    35   20   21 ar
    36   20   36 1
    37   21   22 ar
    38   21   37 1
    39   22   23 ar
    40   22   24 1
    41   23   38 1
    42   25   39 1
    43   25   40 1
@<TRIPOS>MOLECULE
ZINC20148983
   39    42     0     0     0
SMALL
USER_CHARGES
1-isopropyl-3-(6-quinolyl)pyrazolo[4,5-e]pyrimidin-4-amine
@<TRIPOS>ATOM
      1 C1          1.0254    8.7978   -2.0248 C.3       1 <0>        -0.1621
      2 C2          1.2018    8.9153   -0.5095 C.3       1 <0>         0.1606
      3 C3         -0.1710    9.0289    0.1564 C.3       1 <0>        -0.1621
      4 N1          1.8926    7.7262   -0.0046 N.pl3     1 <0>        -0.3691
      5 C4          3.0880    7.7288    0.6508 C.ar      1 <0>         0.3756
      6 C5          3.3891    6.3885    0.9574 C.ar      1 <0>        -0.3235
      7 C6          2.2832    5.5859    0.4354 C.2       1 <0>         0.1611
      8 N2          1.4309    6.4112   -0.1252 N.2       1 <0>        -0.2249
      9 C7          2.1525    4.1119    0.5188 C.ar      1 <0>        -0.0128
     10 C8          1.7465    3.3824   -0.6110 C.ar      1 <0>        -0.0754
     11 C9          1.6190    2.0318   -0.5611 C.ar      1 <0>        -0.0829
     12 C10         1.8956    1.3409    0.6333 C.ar      1 <0>         0.1347
     13 C11         2.3061    2.0687    1.7786 C.ar      1 <0>        -0.1018
     14 C12         2.4317    3.4637    1.7084 C.ar      1 <0>        -0.0831
     15 C13         2.5804    1.3697    2.9700 C.ar      1 <0>        -0.0542
     16 C14         2.4374    0.0111    2.9678 C.ar      1 <0>        -0.1718
     17 C15         2.0303   -0.6425    1.8073 C.ar      1 <0>         0.1391
     18 N3          1.7757    0.0115    0.6997 N.ar      1 <0>        -0.4734
     19 C16         4.5832    6.1084    1.6415 C.ar      1 <0>         0.5181
     20 N4          5.3762    7.1241    1.9688 N.ar      1 <0>        -0.6038
     21 C17         5.0541    8.3678    1.6609 C.ar      1 <0>         0.3865
     22 N5          3.9473    8.6775    1.0220 N.ar      1 <0>        -0.5731
     23 N6          4.9255    4.8098    1.9657 N.pl3     1 <0>        -0.8303
     24 H1          2.0034    8.7169   -2.4992 H         1 <0>         0.0603
     25 H2          0.4358    7.9102   -2.2542 H         1 <0>         0.0702
     26 H3          0.5114    9.6825   -2.4004 H         1 <0>         0.0791
     27 H4          1.7914    9.8029   -0.2801 H         1 <0>         0.1120
     28 H5         -0.0453    9.1126    1.2359 H         1 <0>         0.0600
     29 H6         -0.6850    9.9136   -0.2192 H         1 <0>         0.0791
     30 H7         -0.7606    8.1413   -0.0730 H         1 <0>         0.0701
     31 H8          1.5326    3.9036   -1.5325 H         1 <0>         0.1376
     32 H9          1.3057    1.4868   -1.4393 H         1 <0>         0.1440
     33 H10         2.7434    4.0269    2.5755 H         1 <0>         0.1398
     34 H11         2.8910    1.8936    3.8619 H         1 <0>         0.1419
     35 H12         2.6394   -0.5553    3.8649 H         1 <0>         0.1418
     36 H13         1.9210   -1.7169    1.8201 H         1 <0>         0.1629
     37 H14         5.7273    9.1628    1.9460 H         1 <0>         0.2058
     38 H15         4.4796    4.0672    1.5292 H         1 <0>         0.4125
     39 H16         5.6119    4.6406    2.6300 H         1 <0>         0.4110
@<TRIPOS>BOND
     1    1    2 1
     2    1   24 1
     3    1   25 1
     4    1   26 1
     5    2    3 1
     6    2    4 1
     7    2   27 1
     8    3   28 1
     9    3   29 1
    10    3   30 1
    11    4    8 1
    12    4    5 1
    13    5   22 ar
    14    5    6 ar
    15    6    7 1
    16    6   19 ar
    17    7    8 2
    18    7    9 1
    19    9   14 ar
    20    9   10 ar
    21   10   11 ar
    22   10   31 1
    23   11   12 ar
    24   11   32 1
    25   12   18 ar
    26   12   13 ar
    27   13   14 ar
    28   13   15 ar
    29   14   33 1
    30   15   16 ar
    31   15   34 1
    32   16   17 ar
    33   16   35 1
    34   17   18 ar
    35   17   36 1
    36   19   20 ar
    37   19   23 1
    38   20   21 ar
    39   21   22 ar
    40   21   37 1
    41   23   38 1
    42   23   39 1
@<TRIPOS>MOLECULE
ZINC19966204
   32    34     0     0     0
SMALL
USER_CHARGES
4-[(1,3-benzodioxol-5-ylamino)methyl]benzene-1,2-diol
@<TRIPOS>ATOM
      1 C1          7.9424   -2.0239    2.4992 C.ar      1 <0>        -0.0955
      2 C2          9.2343   -1.8760    2.9700 C.ar      1 <0>        -0.1323
      3 C3          9.4532   -1.4715    4.2767 C.ar      1 <0>         0.1356
      4 C4          8.3706   -1.2096    5.1115 C.ar      1 <0>         0.0612
      5 C5          7.0791   -1.3546    4.6320 C.ar      1 <0>        -0.1541
      6 C6          6.8676   -1.7588    3.3266 C.ar      1 <0>        -0.1135
      7 C7          5.4619   -1.9165    2.8068 C.3       1 <0>         0.1739
      8 N1          5.0096   -0.6483    2.2294 N.pl3     1 <0>        -0.7487
      9 C8          3.7269   -0.5481    1.6792 C.ar      1 <0>         0.2364
     10 C9          2.8828   -1.6507    1.6800 C.ar      1 <0>        -0.1967
     11 C10         1.6161   -1.5533    1.1361 C.ar      1 <0>        -0.0467
     12 C11         1.1844   -0.3558    0.5896 C.ar      1 <0>        -0.0360
     13 C12         2.0286    0.7519    0.5872 C.ar      1 <0>         0.0840
     14 C13         3.2982    0.6535    1.1321 C.ar      1 <0>        -0.1816
     15 O1          1.3763    1.7966   -0.0014 O.3       1 <0>        -0.3131
     16 C14        -0.0175    1.4356    0.0099 C.3       1 <0>         0.2108
     17 O2          0.0021   -0.0041    0.0020 O.3       1 <0>        -0.3078
     18 O3          8.5804   -0.8118    6.3949 O.3       1 <0>        -0.5198
     19 O4         10.7229   -1.3310    4.7429 O.3       1 <0>        -0.5071
     20 H1          7.7731   -2.3433    1.4816 H         1 <0>         0.1314
     21 H2         10.0725   -2.0799    2.3202 H         1 <0>         0.1368
     22 H3          6.2374   -1.1524    5.2779 H         1 <0>         0.1292
     23 H4          5.4424   -2.6989    2.0339 H         1 <0>         0.0697
     24 H5          4.7949   -2.2014    3.6338 H         1 <0>         0.0667
     25 H6          5.6783    0.2251    2.2284 H         1 <0>         0.4225
     26 H7          3.2167   -2.5854    2.1058 H         1 <0>         0.1341
     27 H8          0.9613   -2.4121    1.1379 H         1 <0>         0.1337
     28 H9          3.9545    1.5112    1.1309 H         1 <0>         0.1320
     29 H10        -0.4939    1.8408    0.9148 H         1 <0>         0.0824
     30 H11        -0.5110    1.8505   -0.8814 H         1 <0>         0.1309
     31 H12         7.7240   -0.6051    7.0536 H         1 <0>         0.4412
     32 H13        10.8953   -1.0097    5.7807 H         1 <0>         0.4404
@<TRIPOS>BOND
     1    1    6 ar
     2    1    2 ar
     3    1   20 1
     4    2    3 ar
     5    2   21 1
     6    3    4 ar
     7    3   19 1
     8    4    5 ar
     9    4   18 1
    10    5    6 ar
    11    5   22 1
    12    6    7 1
    13    7    8 1
    14    7   23 1
    15    7   24 1
    16    8    9 1
    17    8   25 1
    18    9   14 ar
    19    9   10 ar
    20   10   11 ar
    21   10   26 1
    22   11   12 ar
    23   11   27 1
    24   12   17 1
    25   12   13 ar
    26   13   14 ar
    27   13   15 1
    28   14   28 1
    29   15   16 1
    30   16   17 1
    31   16   29 1
    32   16   30 1
    33   18   31 1
    34   19   32 1
@<TRIPOS>MOLECULE
ZINC08581906
   35    37     0     0     0
SMALL
USER_CHARGES

@<TRIPOS>ATOM
      1 C1          0.4062    0.7134    0.7743 C.3       1 <0>        -0.1622
      2 C2          0.2062   -0.7227    0.2861 C.3       1 <0>         0.1603
      3 C3          0.8807   -1.6910    1.2599 C.3       1 <0>        -0.1622
      4 N1         -1.2267   -1.0197    0.2161 N.pl3     1 <0>        -0.3682
      5 C4         -1.9008   -1.3860   -0.9107 C.ar      1 <0>         0.3764
      6 C5         -3.2452   -1.5750   -0.5394 C.ar      1 <0>        -0.3225
      7 C6         -3.3224   -1.2938    0.8939 C.2       1 <0>         0.1576
      8 N2         -2.1144   -0.9772    1.2964 N.2       1 <0>        -0.2230
      9 C7         -4.5398   -1.3596    1.7373 C.ar      1 <0>         0.0119
     10 C8         -5.4110   -2.4425    1.6242 C.ar      1 <0>        -0.1154
     11 C9         -6.5434   -2.5019    2.4107 C.ar      1 <0>        -0.0699
     12 C10        -6.8177   -1.4892    3.3123 C.ar      1 <0>        -0.1122
     13 C11        -5.9551   -0.4073    3.4309 C.ar      1 <0>         0.1435
     14 C12        -4.8137   -0.3425    2.6492 C.ar      1 <0>        -0.1062
     15 O1         -6.2283    0.5856    4.3181 O.3       1 <0>        -0.4823
     16 Br1        -8.3720   -1.5780    4.3858 Br        1 <0>        -0.0262
     17 C13        -4.1663   -1.9613   -1.5268 C.ar      1 <0>         0.5186
     18 N3         -3.7252   -2.1311   -2.7695 N.ar      1 <0>        -0.6031
     19 C14        -2.4536   -1.9426   -3.0738 C.ar      1 <0>         0.3877
     20 N4         -1.5560   -1.5814   -2.1832 N.ar      1 <0>        -0.5731
     21 N5         -5.4973   -2.1603   -1.2145 N.pl3     1 <0>        -0.8288
     22 H1          1.4723    0.9344    0.8264 H         1 <0>         0.0796
     23 H2         -0.0744    1.4033    0.0805 H         1 <0>         0.0606
     24 H3         -0.0369    0.8258    1.7638 H         1 <0>         0.0698
     25 H4          0.6493   -0.8351   -0.7034 H         1 <0>         0.1127
     26 H5          0.4376   -1.5786    2.2494 H         1 <0>         0.0699
     27 H6          0.7383   -2.7142    0.9121 H         1 <0>         0.0604
     28 H7          1.9468   -1.4701    1.3120 H         1 <0>         0.0794
     29 H8         -5.1997   -3.2345    0.9210 H         1 <0>         0.1438
     30 H9         -7.2175   -3.3410    2.3219 H         1 <0>         0.1472
     31 H10        -4.1397    0.4960    2.7436 H         1 <0>         0.1455
     32 H11        -5.8524    0.4419    5.1973 H         1 <0>         0.3991
     33 H12        -2.1380   -2.0919   -4.0958 H         1 <0>         0.2063
     34 H13        -5.8559   -1.8196   -0.3801 H         1 <0>         0.4127
     35 H14        -6.0732   -2.6406   -1.8297 H         1 <0>         0.4121
@<TRIPOS>BOND
     1    1    2 1
     2    1   22 1
     3    1   23 1
     4    1   24 1
     5    2    3 1
     6    2    4 1
     7    2   25 1
     8    3   26 1
     9    3   27 1
    10    3   28 1
    11    4    8 1
    12    4    5 1
    13    5   20 ar
    14    5    6 ar
    15    6    7 1
    16    6   17 ar
    17    7    8 2
    18    7    9 1
    19    9   14 ar
    20    9   10 ar
    21   10   11 ar
    22   10   29 1
    23   11   12 ar
    24   11   30 1
    25   12   13 ar
    26   12   16 1
    27   13   14 ar
    28   13   15 1
    29   14   31 1
    30   15   32 1
    31   17   18 ar
    32   17   21 1
    33   18   19 ar
    34   19   20 ar
    35   19   33 1
    36   21   34 1
    37   21   35 1
@<TRIPOS>MOLECULE
ZINC36056301
   39    42     0     0     0
SMALL
USER_CHARGES

@<TRIPOS>ATOM
      1 C1          0.9254    1.9991    0.1115 C.3       1 <0>        -0.1625
      2 C2          0.5644    0.5164    0.0017 C.3       1 <0>         0.1602
      3 C3         -0.9547    0.3678   -0.1037 C.3       1 <0>        -0.1630
      4 N1          1.1948   -0.0526   -1.1921 N.pl3     1 <0>        -0.3660
      5 C4          2.0845   -1.0857   -1.1960 C.ar      1 <0>         0.3791
      6 C5          2.4399   -1.3150   -2.5382 C.ar      1 <0>        -0.3289
      7 C6          1.6949   -0.3401   -3.3365 C.2       1 <0>         0.1761
      8 N2          0.9724    0.3761   -2.5050 N.2       1 <0>        -0.2098
      9 C7          1.7418   -0.1929   -4.8056 C.2       1 <0>         0.1339
     10 C8          0.6708    0.0518   -5.6025 C.2       1 <0>        -0.1346
     11 C9          1.1678    0.1218   -6.9754 C.ar      1 <0>        -0.0943
     12 C10         0.5575    0.3431   -8.2141 C.ar      1 <0>        -0.0897
     13 C11         1.3249    0.3481   -9.3611 C.ar      1 <0>         0.0805
     14 C12         2.6992    0.1341   -9.2873 C.ar      1 <0>        -0.1109
     15 C13         3.3112   -0.0854   -8.0732 C.ar      1 <0>        -0.1139
     16 C14         2.5568   -0.0941   -6.9049 C.ar      1 <0>         0.1038
     17 N3          2.8789   -0.2768   -5.5757 N.pl3     1 <0>        -0.5932
     18 H1          3.7722   -0.4418   -5.2356 H         1 <0>         0.4168
     19 O1          0.7369    0.5623  -10.5684 O.3       1 <0>        -0.4967
     20 C15         3.3555   -2.3402   -2.8244 C.ar      1 <0>         0.5168
     21 N4          3.8460   -3.0492   -1.8121 N.ar      1 <0>        -0.6021
     22 C16         3.4845   -2.7997   -0.5663 C.ar      1 <0>         0.3889
     23 N5          2.6311   -1.8502   -0.2510 N.ar      1 <0>        -0.5714
     24 N6          3.7369   -2.6060   -4.1255 N.pl3     1 <0>        -0.8317
     25 H2          2.0076    2.1050    0.1866 H         1 <0>         0.0602
     26 H3          0.5693    2.5263   -0.7736 H         1 <0>         0.0709
     27 H4          0.4564    2.4224    0.9997 H         1 <0>         0.0802
     28 H5          0.9205   -0.0108    0.8868 H         1 <0>         0.1134
     29 H6         -1.3108    0.8949   -0.9888 H         1 <0>         0.0712
     30 H7         -1.2119   -0.6886   -0.1820 H         1 <0>         0.0610
     31 H8         -1.4237    0.7911    0.7845 H         1 <0>         0.0801
     32 H9         -0.3538    0.1719   -5.2829 H         1 <0>         0.1573
     33 H10        -0.5081    0.5089   -8.2728 H         1 <0>         0.1338
     34 H11         3.2906    0.1399  -10.1910 H         1 <0>         0.1358
     35 H12         4.3776   -0.2505   -8.0283 H         1 <0>         0.1290
     36 H13         0.6969    1.4933  -10.8268 H         1 <0>         0.3892
     37 H14         3.9074   -3.3999    0.2258 H         1 <0>         0.2077
     38 H15         3.2729   -2.1806   -4.8634 H         1 <0>         0.4091
     39 H16         4.4688   -3.2179   -4.3009 H         1 <0>         0.4134
@<TRIPOS>BOND
     1    1    2 1
     2    1   25 1
     3    1   26 1
     4    1   27 1
     5    2    3 1
     6    2    4 1
     7    2   28 1
     8    3   29 1
     9    3   30 1
    10    3   31 1
    11    4    8 1
    12    4    5 1
    13    5   23 ar
    14    5    6 ar
    15    6    7 1
    16    6   20 ar
    17    7    8 2
    18    7    9 1
    19    9   17 1
    20    9   10 2
    21   10   11 1
    22   10   32 1
    23   11   16 ar
    24   11   12 ar
    25   12   13 ar
    26   12   33 1
    27   13   14 ar
    28   13   19 1
    29   14   15 ar
    30   14   34 1
    31   15   16 ar
    32   15   35 1
    33   16   17 1
    34   17   18 1
    35   19   36 1
    36   20   21 ar
    37   20   24 1
    38   21   22 ar
    39   22   23 ar
    40   22   37 1
    41   24   38 1
    42   24   39 1
@<TRIPOS>MOLECULE
ZINC36056301
   40    43     0     0     0
SMALL
NO_CHARGES

@<TRIPOS>ATOM
      1 C1          0.4668   -0.4939    1.1218 C.3       1 <0>        -0.1699
      2 C2          0.3340   -1.7615    0.2754 C.3       1 <0>         0.1613
      3 C3          1.1061   -2.9024    0.9410 C.3       1 <0>        -0.1701
      4 N1         -1.0799   -2.1284    0.1641 N.pl3     1 <0>        -0.3634
      5 C4         -1.7908   -2.2350   -1.0057 C.ar      1 <0>         0.4043
      6 C5         -3.1109   -2.6092   -0.6652 C.ar      1 <0>        -0.2157
      7 C6         -4.0447   -2.7836   -1.7054 C.ar      1 <0>         0.3985
      8 N2         -3.6387   -2.5876   -2.9589 N.ar      1 <0>        -0.5485
      9 C7         -2.3961   -2.2391   -3.2258 C.ar      1 <0>         0.3110
     10 N3         -1.4867   -2.0641   -2.2858 N.ar      1 <0>        -0.5580
     11 N4         -5.3440   -3.1479   -1.4334 N.pl3     1 <0>        -0.8571
     12 C8         -3.1685   -2.7231    0.7407 C.2       1 <0>         0.1060
     13 C9         -4.3454   -3.0906    1.5281 C.2       1 <0>         0.1145
     14 C10        -4.5167   -2.8192    2.8889 C.2       1 <0>        -0.1932
     15 C11        -5.7650   -3.3339    3.2429 C.ar      1 <0>        -0.0803
     16 C12        -6.5191   -3.3917    4.4278 C.ar      1 <0>        -0.1106
     17 C13        -7.7442   -3.9909    4.4147 C.ar      1 <0>         0.0839
     18 C14        -8.2689   -4.5512    3.2463 C.ar      1 <0>        -0.1283
     19 C15        -7.5862   -4.5260    2.0714 C.ar      1 <0>        -0.1066
     20 C16        -6.3164   -3.9222    2.0150 C.ar      1 <0>         0.0610
     21 N5         -5.4208   -3.7321    1.0501 N.pl3     1 <0>        -0.5313
     22 O1         -8.4709   -4.0448    5.5631 O.3       1 <0>        -0.5017
     23 N6         -1.9318   -2.4352    1.2329 N.pl3     1 <0>        -0.4440
     24 H1          1.5188   -0.2209    1.2046 H         1 <0>         0.0835
     25 H2         -0.0832    0.3190    0.6476 H         1 <0>         0.0676
     26 H3          0.0595   -0.6766    2.1162 H         1 <0>         0.0606
     27 H4          0.7413   -1.5787   -0.7190 H         1 <0>         0.1243
     28 H5          1.0115   -3.8055    0.3380 H         1 <0>         0.0673
     29 H6          2.1581   -2.6294    1.0238 H         1 <0>         0.0835
     30 H7          0.6988   -3.0851    1.9354 H         1 <0>         0.0606
     31 H8         -2.1102   -2.0906   -4.2566 H         1 <0>         0.1998
     32 H9         -5.8197   -2.7336   -0.6966 H         1 <0>         0.4069
     33 H10        -5.7838   -3.8189   -1.9786 H         1 <0>         0.4071
     34 H11        -3.8197   -2.3112    3.5389 H         1 <0>         0.1445
     35 H12        -6.1313   -2.9654    5.3413 H         1 <0>         0.1279
     36 H13        -9.2428   -5.0169    3.2782 H         1 <0>         0.1286
     37 H14        -8.0164   -4.9676    1.1847 H         1 <0>         0.1247
     38 H15        -9.0572   -3.2870    5.6936 H         1 <0>         0.3860
     39 H16        -1.6823   -2.4395    2.1702 H         1 <0>         0.4490
     40 H17        -5.5296   -4.0197    0.1301 H         1 <0>         0.4163
@<TRIPOS>BOND
     1    1    2 1
     2    1   24 1
     3    1   25 1
     4    1   26 1
     5    2    3 1
     6    2    4 1
     7    2   27 1
     8    3   28 1
     9    3   29 1
    10    3   30 1
    11    4   23 1
    12    4    5 1
    13    5   10 ar
    14    5    6 ar
    15    6    7 ar
    16    6   12 1
    17    7    8 ar
    18    7   11 1
    19    8    9 ar
    20    9   10 ar
    21    9   31 1
    22   11   32 1
    23   11   33 1
    24   12   13 2
    25   12   23 1
    26   13   21 1
    27   13   14 1
    28   14   15 2
    29   14   34 1
    30   15   20 ar
    31   15   16 ar
    32   16   17 ar
    33   16   35 1
    34   17   18 ar
    35   17   22 1
    36   18   19 ar
    37   18   36 1
    38   19   20 ar
    39   19   37 1
    40   20   21 2
    41   21   40 1
    42   22   38 1
    43   23   39 1
@<TRIPOS>MOLECULE
ZINC43465534
   35    37     0     0     0
SMALL
USER_CHARGES

@<TRIPOS>ATOM
      1 C1          0.4068    0.7074    0.7781 C.3       1 <0>        -0.1627
      2 C2          0.2063   -0.7277    0.2871 C.3       1 <0>         0.1599
      3 C3          0.8804   -1.6981    1.2590 C.3       1 <0>        -0.1628
      4 N1         -1.2267   -1.0239    0.2164 N.pl3     1 <0>        -0.3665
      5 C4         -1.9011   -1.3879   -0.9114 C.ar      1 <0>         0.3770
      6 C5         -3.2456   -1.5763   -0.5412 C.ar      1 <0>        -0.3202
      7 C6         -3.3233   -1.2974    0.8930 C.2       1 <0>         0.1500
      8 N2         -2.1144   -0.9832    1.2968 N.2       1 <0>        -0.2166
      9 C7         -4.5400   -1.3639    1.7350 C.ar      1 <0>         0.0405
     10 C8         -5.4108   -2.4492    1.6175 C.ar      1 <0>        -0.1236
     11 C9         -6.5343   -2.5157    2.3909 C.ar      1 <0>        -0.0350
     12 C10        -6.8185   -1.4966    3.3050 C.ar      1 <0>        -0.0471
     13 C11        -5.9488   -0.4059    3.4275 C.ar      1 <0>         0.1574
     14 C12        -4.8115   -0.3452    2.6483 C.ar      1 <0>        -0.1216
     15 F1         -6.2198    0.5812    4.3092 F         1 <0>        -0.1185
     16 C13        -7.9977   -1.5677    4.1144 C.1       1 <0>         0.2436
     17 N3         -8.9331   -1.6242    4.7564 N.1       1 <0>        -0.3868
     18 C14        -4.1666   -1.9604   -1.5294 C.ar      1 <0>         0.5185
     19 N4         -3.7251   -2.1289   -2.7722 N.ar      1 <0>        -0.6017
     20 C15        -2.4531   -1.9410   -3.0755 C.ar      1 <0>         0.3888
     21 N5         -1.5559   -1.5814   -2.1840 N.ar      1 <0>        -0.5722
     22 N6         -5.4979   -2.1588   -1.2179 N.pl3     1 <0>        -0.8291
     23 H1          1.4730    0.9278    0.8306 H         1 <0>         0.0799
     24 H2         -0.0734    1.3988    0.0856 H         1 <0>         0.0609
     25 H3         -0.0363    0.8181    1.7678 H         1 <0>         0.0705
     26 H4          0.6494   -0.8384   -0.7026 H         1 <0>         0.1133
     27 H5          0.4373   -1.5875    2.2488 H         1 <0>         0.0706
     28 H6          0.7375   -2.7206    0.9093 H         1 <0>         0.0608
     29 H7          1.9466   -1.4777    1.3116 H         1 <0>         0.0797
     30 H8         -5.1952   -3.2384    0.9125 H         1 <0>         0.1508
     31 H9         -7.2048   -3.3571    2.2960 H         1 <0>         0.1545
     32 H10        -4.1355    0.4918    2.7420 H         1 <0>         0.1555
     33 H11        -2.1372   -2.0892   -4.0976 H         1 <0>         0.2066
     34 H12        -5.8568   -1.8178   -0.3838 H         1 <0>         0.4121
     35 H13        -6.0736   -2.6390   -1.8334 H         1 <0>         0.4130
@<TRIPOS>BOND
     1    1    2 1
     2    1   23 1
     3    1   24 1
     4    1   25 1
     5    2    3 1
     6    2    4 1
     7    2   26 1
     8    3   27 1
     9    3   28 1
    10    3   29 1
    11    4    8 1
    12    4    5 1
    13    5   21 ar
    14    5    6 ar
    15    6    7 1
    16    6   18 ar
    17    7    8 2
    18    7    9 1
    19    9   14 ar
    20    9   10 ar
    21   10   11 ar
    22   10   30 1
    23   11   12 ar
    24   11   31 1
    25   12   13 ar
    26   12   16 1
    27   13   14 ar
    28   13   15 1
    29   14   32 1
    30   16   17 3
    31   18   19 ar
    32   18   22 1
    33   19   20 ar
    34   20   21 ar
    35   20   33 1
    36   22   34 1
    37   22   35 1
@<TRIPOS>MOLECULE
ZINC64521265
   46    49     0     0     0
SMALL
USER_CHARGES

@<TRIPOS>ATOM
      1 C1          0.3476   -2.5642    0.7938 C.3       1 <0>        -0.1628
      2 C2         -0.3724   -2.4367   -0.5502 C.3       1 <0>         0.1606
      3 C3         -0.6891   -3.8315   -1.0934 C.3       1 <0>        -0.1622
      4 N1         -1.6190   -1.6892   -0.3674 N.pl3     1 <0>        -0.3682
      5 C4         -1.9328   -0.5173   -0.9891 C.ar      1 <0>         0.3758
      6 C5         -3.2117   -0.1436   -0.5353 C.ar      1 <0>        -0.3225
      7 C6         -3.6371   -1.1809    0.4040 C.2       1 <0>         0.1593
      8 N2         -2.6746   -2.0702    0.4677 N.2       1 <0>        -0.2224
      9 C7         -4.9218   -1.2229    1.1432 C.ar      1 <0>        -0.0245
     10 C8         -6.1183   -0.9455    0.4812 C.ar      1 <0>        -0.0801
     11 C9         -7.3162   -0.9844    1.1672 C.ar      1 <0>        -0.1161
     12 C10        -7.3388   -1.2973    2.5117 C.ar      1 <0>        -0.0731
     13 C11        -6.1481   -1.5766    3.1861 C.ar      1 <0>        -0.1285
     14 C12        -4.9368   -1.5447    2.4966 C.ar      1 <0>        -0.0211
     15 C13        -6.1728   -1.9106    4.6256 C.2       1 <0>         0.5570
     16 O1         -5.1357   -2.1534    5.2109 O.2       1 <0>        -0.4587
     17 N3         -7.3453   -1.9460    5.2893 N.am      1 <0>        -0.6240
     18 C14        -7.3683   -2.2582    6.6345 C.2       1 <0>         0.4093
     19 N4         -6.3504   -2.5344    7.3965 N.2       1 <0>        -0.5323
     20 C15        -6.5264   -2.8706    8.7976 C.3       1 <0>         0.0491
     21 C16        -7.9176   -2.4104    9.3123 C.3       1 <0>        -0.0885
     22 S1         -8.8003   -2.3601    7.6961 S.3       1 <0>        -0.2223
     23 C17        -3.7785    1.0433   -1.0279 C.ar      1 <0>         0.5179
     24 N5         -3.0796    1.7609   -1.9021 N.ar      1 <0>        -0.6035
     25 C18        -1.8816    1.3723   -2.3010 C.ar      1 <0>         0.3866
     26 N6         -1.3117    0.2693   -1.8675 N.ar      1 <0>        -0.5726
     27 N7         -5.0310    1.4545   -0.6148 N.pl3     1 <0>        -0.8297
     28 H1          1.2751   -3.1204    0.6578 H         1 <0>         0.0793
     29 H2          0.5732   -1.5705    1.1808 H         1 <0>         0.0605
     30 H3         -0.2926   -3.0925    1.5003 H         1 <0>         0.0708
     31 H4          0.2678   -1.9084   -1.2566 H         1 <0>         0.1123
     32 H5         -1.2020   -3.7407   -2.0509 H         1 <0>         0.0601
     33 H6          0.2384   -4.3877   -1.2294 H         1 <0>         0.0792
     34 H7         -1.3293   -4.3598   -0.3870 H         1 <0>         0.0703
     35 H8         -6.1075   -0.6993   -0.5703 H         1 <0>         0.1397
     36 H9         -8.2394   -0.7687    0.6498 H         1 <0>         0.1436
     37 H10        -8.2787   -1.3258    3.0429 H         1 <0>         0.1334
     38 H11        -4.0135   -1.7645    3.0120 H         1 <0>         0.1460
     39 H12        -8.1730   -1.7523    4.8221 H         1 <0>         0.4258
     40 H13        -6.4387   -3.9501    8.9203 H         1 <0>         0.1010
     41 H14        -5.7483   -2.3813    9.3834 H         1 <0>         0.1095
     42 H15        -8.3569   -3.1421    9.9903 H         1 <0>         0.1289
     43 H16        -7.8696   -1.4222    9.7696 H         1 <0>         0.1075
     44 H17        -1.3485    1.9855   -3.0124 H         1 <0>         0.2059
     45 H18        -5.4326    1.0649    0.1775 H         1 <0>         0.4118
     46 H19        -5.5089    2.1329   -1.1171 H         1 <0>         0.4117
@<TRIPOS>BOND
     1    1    2 1
     2    1   28 1
     3    1   29 1
     4    1   30 1
     5    2    3 1
     6    2    4 1
     7    2   31 1
     8    3   32 1
     9    3   33 1
    10    3   34 1
    11    4    8 1
    12    4    5 1
    13    5   26 ar
    14    5    6 ar
    15    6    7 1
    16    6   23 ar
    17    7    8 2
    18    7    9 1
    19    9   14 ar
    20    9   10 ar
    21   10   11 ar
    22   10   35 1
    23   11   12 ar
    24   11   36 1
    25   12   13 ar
    26   12   37 1
    27   13   14 ar
    28   13   15 1
    29   14   38 1
    30   15   16 2
    31   15   17 am
    32   17   18 1
    33   17   39 1
    34   18   22 1
    35   18   19 2
    36   19   20 1
    37   20   21 1
    38   20   40 1
    39   20   41 1
    40   21   22 1
    41   21   42 1
    42   21   43 1
    43   23   24 ar
    44   23   27 1
    45   24   25 ar
    46   25   26 ar
    47   25   44 1
    48   27   45 1
    49   27   46 1
@<TRIPOS>MOLECULE
ZINC36056300
   40    43     0     0     0
SMALL
USER_CHARGES

@<TRIPOS>ATOM
      1 C1          0.4126    0.6880    0.7885 C.3       1 <0>        -0.1627
      2 C2          0.2093   -0.7440    0.2895 C.3       1 <0>         0.1569
      3 C3          0.8826   -1.7211    1.2552 C.3       1 <0>        -0.1634
      4 N1         -1.2243   -1.0374    0.2184 N.pl3     1 <0>        -0.3592
      5 C4         -1.9000   -1.3937   -0.9107 C.ar      1 <0>         0.3794
      6 C5         -3.2446   -1.5828   -0.5400 C.ar      1 <0>        -0.3179
      7 C6         -3.3202   -1.3125    0.8956 C.2       1 <0>         0.1232
      8 N2         -2.1110   -1.0014    1.2998 N.2       1 <0>        -0.2051
      9 C7         -4.5366   -1.3827    1.7391 C.ar      1 <0>         0.1178
     10 C8         -5.4061   -2.4812    1.6050 C.ar      1 <0>        -0.1519
     11 C9         -6.5306   -2.5915    2.3528 C.ar      1 <0>         0.0142
     12 C10        -6.8501   -1.5908    3.2916 C.ar      1 <0>        -0.2346
     13 C11        -5.9500   -0.4370    3.4429 C.ar      1 <0>         0.2401
     14 C12        -4.7906   -0.3737    2.6433 C.ar      1 <0>        -0.1296
     15 N3         -6.4749    0.3393    4.3746 N.pl3     1 <0>        -0.4206
     16 H1         -8.2337    0.1398    5.5248 H         1 <0>         0.4708
     17 N4         -7.6615   -0.2385    4.8390 N.pl3     1 <0>        -0.4328
     18 C13        -7.8916   -1.3947    4.1942 C.2       1 <0>         0.5311
     19 N5         -8.9722   -2.2404    4.3922 N.pl3     1 <0>        -0.7811
     20 C14        -4.1671   -1.9596   -1.5297 C.ar      1 <0>         0.5166
     21 N6         -3.7272   -2.1207   -2.7740 N.ar      1 <0>        -0.5953
     22 C15        -2.4554   -1.9324   -3.0777 C.ar      1 <0>         0.3950
     23 N7         -1.5565   -1.5799   -2.1849 N.ar      1 <0>        -0.5665
     24 N8         -5.4983   -2.1583   -1.2179 N.pl3     1 <0>        -0.8311
     25 H2          1.4792    0.9063    0.8414 H         1 <0>         0.0837
     26 H3         -0.0671    1.3841    0.1005 H         1 <0>         0.0618
     27 H4         -0.0295    0.7936    1.7793 H         1 <0>         0.0688
     28 H5          0.6513   -0.8497   -0.7013 H         1 <0>         0.1176
     29 H6          0.7377   -2.7413    0.8997 H         1 <0>         0.0624
     30 H7          1.9492   -1.5028    1.3081 H         1 <0>         0.0836
     31 H8          0.4405   -1.6155    2.2459 H         1 <0>         0.0694
     32 H9         -5.1717   -3.2546    0.8885 H         1 <0>         0.1568
     33 H10        -7.1810   -3.4447    2.2292 H         1 <0>         0.1566
     34 H11        -4.1097    0.4595    2.7357 H         1 <0>         0.1611
     35 H12        -9.0501   -3.0570    3.8746 H         1 <0>         0.4467
     36 H13        -9.6503   -2.0154    5.0483 H         1 <0>         0.4297
     37 H14        -2.1408   -2.0745   -4.1010 H         1 <0>         0.2111
     38 H15        -5.8569   -1.8183   -0.3832 H         1 <0>         0.4073
     39 H16        -6.0742   -2.6377   -1.8338 H         1 <0>         0.4151
     40 H17        -6.0974    1.1764    4.6871 H         1 <0>         0.4749
@<TRIPOS>BOND
     1    1    2 1
     2    1   25 1
     3    1   26 1
     4    1   27 1
     5    2    3 1
     6    2    4 1
     7    2   28 1
     8    3   29 1
     9    3   30 1
    10    3   31 1
    11    4    8 1
    12    4    5 1
    13    5   23 ar
    14    5    6 ar
    15    6    7 1
    16    6   20 ar
    17    7    8 2
    18    7    9 1
    19    9   14 ar
    20    9   10 ar
    21   10   11 ar
    22   10   32 1
    23   11   12 ar
    24   11   33 1
    25   12   13 ar
    26   12   18 2
    27   13   14 ar
    28   13   15 2
    29   14   34 1
    30   15   17 1
    31   15   40 1
    32   16   17 1
    33   17   18 1
    34   18   19 1
    35   19   35 1
    36   19   36 1
    37   20   21 ar
    38   20   24 1
    39   21   22 ar
    40   22   23 ar
    41   22   37 1
    42   24   38 1
    43   24   39 1
@<TRIPOS>MOLECULE
ZINC36056300
   39    42     0     0     0
SMALL
USER_CHARGES

@<TRIPOS>ATOM
      1 C1          0.4081    0.7032    0.7800 C.3       1 <0>        -0.1618
      2 C2          0.2069   -0.7312    0.2873 C.3       1 <0>         0.1609
      3 C3          0.8807   -1.7032    1.2580 C.3       1 <0>        -0.1621
      4 N1         -1.2263   -1.0267    0.2166 N.pl3     1 <0>        -0.3701
      5 C4         -1.9009   -1.3889   -0.9113 C.ar      1 <0>         0.3750
      6 C5         -3.2455   -1.5776   -0.5407 C.ar      1 <0>        -0.3215
      7 C6         -3.3224   -1.3007    0.8936 C.2       1 <0>         0.1630
      8 N2         -2.1138   -0.9869    1.2972 N.2       1 <0>        -0.2264
      9 C7         -4.5394   -1.3682    1.7366 C.ar      1 <0>         0.0337
     10 C8         -5.4112   -2.4583    1.6155 C.ar      1 <0>        -0.1607
     11 C9         -6.5335   -2.5344    2.3833 C.ar      1 <0>        -0.0251
     12 C10        -6.8222   -1.5187    3.3018 C.ar      1 <0>        -0.1880
     13 C11        -5.9521   -0.4186    3.4315 C.ar      1 <0>         0.1561
     14 C12        -4.8063   -0.3538    2.6457 C.ar      1 <0>        -0.1126
     15 N3         -6.4874    0.3998    4.3930 N.pl3     1 <0>        -0.5024
     16 N4         -7.6751   -0.1655    4.8679 N.2       1 <0>        -0.3148
     17 C13        -7.9109   -1.2946    4.2539 C.2       1 <0>         0.3617
     18 N5         -9.0056   -2.1367    4.4680 N.pl3     1 <0>        -0.8327
     19 C14        -4.1668   -1.9602   -1.5291 C.ar      1 <0>         0.5189
     20 N6         -3.7258   -2.1271   -2.7723 N.ar      1 <0>        -0.6051
     21 C15        -2.4540   -1.9390   -3.0760 C.ar      1 <0>         0.3863
     22 N7         -1.5563   -1.5804   -2.1845 N.ar      1 <0>        -0.5746
     23 N8         -5.4980   -2.1588   -1.2175 N.pl3     1 <0>        -0.8276
     24 H1          1.4744    0.9231    0.8327 H         1 <0>         0.0786
     25 H2         -0.0719    1.3956    0.0885 H         1 <0>         0.0601
     26 H3         -0.0347    0.8128    1.7700 H         1 <0>         0.0697
     27 H4          0.6497   -0.8409   -0.7026 H         1 <0>         0.1118
     28 H5          0.4378   -1.5935    2.2479 H         1 <0>         0.0700
     29 H6          0.7373   -2.7251    0.9069 H         1 <0>         0.0603
     30 H7          1.9470   -1.4833    1.3106 H         1 <0>         0.0785
     31 H8         -5.1917   -3.2441    0.9078 H         1 <0>         0.1359
     32 H9         -7.2005   -3.3779    2.2831 H         1 <0>         0.1334
     33 H10        -4.1302    0.4831    2.7395 H         1 <0>         0.1348
     34 H11        -9.0923   -2.9581    3.9594 H         1 <0>         0.4132
     35 H12        -9.6785   -1.8997    5.1251 H         1 <0>         0.4096
     36 H13        -2.1385   -2.0855   -4.0984 H         1 <0>         0.2050
     37 H14        -5.8568   -1.8182   -0.3831 H         1 <0>         0.4149
     38 H15        -6.0739   -2.6388   -1.8330 H         1 <0>         0.4105
     39 H16        -6.1031    1.2373    4.6959 H         1 <0>         0.4433
@<TRIPOS>BOND
     1    1    2 1
     2    1   24 1
     3    1   25 1
     4    1   26 1
     5    2    3 1
     6    2    4 1
     7    2   27 1
     8    3   28 1
     9    3   29 1
    10    3   30 1
    11    4    8 1
    12    4    5 1
    13    5   22 ar
    14    5    6 ar
    15    6    7 1
    16    6   19 ar
    17    7    8 2
    18    7    9 1
    19    9   14 ar
    20    9   10 ar
    21   10   11 ar
    22   10   31 1
    23   11   12 ar
    24   11   32 1
    25   12   13 ar
    26   12   17 1
    27   13   14 ar
    28   13   15 1
    29   14   33 1
    30   15   16 1
    31   15   39 1
    32   16   17 2
    33   17   18 1
    34   18   34 1
    35   18   35 1
    36   19   20 ar
    37   19   23 1
    38   20   21 ar
    39   21   22 ar
    40   21   36 1
    41   23   37 1
    42   23   38 1
@<TRIPOS>MOLECULE
ZINC01386791
   36    38     0     0     0
SMALL
USER_CHARGES
N-(2,4-dichlorophenyl)-6,7-dimethoxy-quinazolin-4-amine
@<TRIPOS>ATOM
      1 C1         -0.2065    7.8616    0.3673 C.3       1 <0>         0.0205
      2 O1          1.0337    7.2250    0.6813 O.3       1 <0>        -0.2988
      3 C2          1.0314    5.8667    0.7460 C.ar      1 <0>         0.1147
      4 C3         -0.1273    5.1814    0.5141 C.ar      1 <0>        -0.1509
      5 C4         -0.1309    3.7830    0.5809 C.ar      1 <0>        -0.1789
      6 C5          1.0647    3.0873    0.8880 C.ar      1 <0>         0.2023
      7 C6          2.2408    3.8099    1.1221 C.ar      1 <0>        -0.1832
      8 C7          2.2180    5.1852    1.0503 C.ar      1 <0>         0.1656
      9 O2          3.3579    5.8888    1.2765 O.3       1 <0>        -0.2962
     10 C8          4.5343    5.1374    1.5820 C.3       1 <0>         0.0197
     11 N1          1.0338    1.7465    0.9454 N.ar      1 <0>        -0.5364
     12 C9         -0.0834    1.0968    0.7208 C.ar      1 <0>         0.3398
     13 N2         -1.2220    1.7035    0.4255 N.ar      1 <0>        -0.5794
     14 C10        -1.3036    3.0254    0.3489 C.ar      1 <0>         0.4625
     15 N3         -2.4991    3.6452    0.0455 N.pl3     1 <0>        -0.6322
     16 C11        -3.6729    2.8906   -0.0530 C.ar      1 <0>         0.1749
     17 C12        -3.7428    1.6331    0.5324 C.ar      1 <0>        -0.1115
     18 C13        -4.9030    0.8904    0.4342 C.ar      1 <0>        -0.0787
     19 C14        -5.9959    1.3976   -0.2468 C.ar      1 <0>        -0.0475
     20 C15        -5.9299    2.6499   -0.8316 C.ar      1 <0>        -0.0772
     21 C16        -4.7734    3.4002   -0.7318 C.ar      1 <0>        -0.0671
     22 Cl1        -4.6933    4.9745   -1.4590 Cl        1 <0>        -0.0563
     23 Cl2        -7.4524    0.4607   -0.3678 Cl        1 <0>        -0.0569
     24 H1         -0.5520    7.5225   -0.6093 H         1 <0>         0.0577
     25 H2         -0.9481    7.6057    1.1241 H         1 <0>         0.0581
     26 H3         -0.0654    8.9423    0.3476 H         1 <0>         0.1082
     27 H4         -1.0362    5.7157    0.2801 H         1 <0>         0.1387
     28 H5          3.1593    3.2927    1.3571 H         1 <0>         0.1576
     29 H6          5.3701    5.8191    1.7397 H         1 <0>         0.1080
     30 H7          4.3671    4.5522    2.4862 H         1 <0>         0.0628
     31 H8          4.7631    4.4677    0.7529 H         1 <0>         0.0627
     32 H9         -0.0727    0.0182    0.7751 H         1 <0>         0.2011
     33 H10        -2.5252    4.6039   -0.0995 H         1 <0>         0.4221
     34 H11        -2.8906    1.2365    1.0643 H         1 <0>         0.1811
     35 H12        -4.9576   -0.0874    0.8896 H         1 <0>         0.1450
     36 H13        -6.7842    3.0433   -1.3624 H         1 <0>         0.1482
@<TRIPOS>BOND
     1    1    2 1
     2    1   24 1
     3    1   25 1
     4    1   26 1
     5    2    3 1
     6    3    8 ar
     7    3    4 ar
     8    4    5 ar
     9    4   27 1
    10    5   14 ar
    11    5    6 ar
    12    6    7 ar
    13    6   11 ar
    14    7    8 ar
    15    7   28 1
    16    8    9 1
    17    9   10 1
    18   10   29 1
    19   10   30 1
    20   10   31 1
    21   11   12 ar
    22   12   13 ar
    23   12   32 1
    24   13   14 ar
    25   14   15 1
    26   15   16 1
    27   15   33 1
    28   16   21 ar
    29   16   17 ar
    30   17   18 ar
    31   17   34 1
    32   18   19 ar
    33   18   35 1
    34   19   20 ar
    35   19   23 1
    36   20   21 ar
    37   20   36 1
    38   21   22 1
@<TRIPOS>MOLECULE
ZINC01493878
   48    50     0     0     0
SMALL
USER_CHARGES

@<TRIPOS>ATOM
      1 C1         -1.0955   -5.0083   -6.9234 C.3       1 <0>         0.0847
      2 N1         -1.5520   -4.3038   -5.7228 N.am      1 <0>        -0.7137
      3 C2         -1.8827   -5.0004   -4.6175 C.2       1 <0>         0.5696
      4 O1         -1.8023   -6.2129   -4.6168 O.2       1 <0>        -0.5284
      5 C3         -2.3445   -4.2878   -3.4031 C.ar      1 <0>         0.1129
      6 C4         -2.6788   -5.0128   -2.2640 C.ar      1 <0>        -0.1883
      7 C5         -3.1110   -4.3279   -1.1310 C.ar      1 <0>         0.1595
      8 C6         -3.1903   -2.9389   -1.1877 C.ar      1 <0>        -0.1766
      9 C7         -2.8404   -2.2885   -2.3571 C.ar      1 <0>         0.1349
     10 N2         -2.4302   -2.9626   -3.4105 N.ar      1 <0>        -0.4815
     11 O2         -3.4471   -4.9979    0.0005 O.3       1 <0>        -0.2437
     12 C8         -3.4462   -6.3570   -0.0383 C.ar      1 <0>         0.0568
     13 C9         -2.2447   -7.0505   -0.0178 C.ar      1 <0>        -0.1074
     14 C10        -2.2431   -8.4307   -0.0577 C.ar      1 <0>        -0.1009
     15 C11        -3.4442   -9.1246   -0.1179 C.ar      1 <0>         0.1671
     16 C12        -4.6464   -8.4301   -0.1379 C.ar      1 <0>        -0.1272
     17 C13        -4.6469   -7.0500   -0.0928 C.ar      1 <0>        -0.0940
     18 N3         -3.4432  -10.5252   -0.1588 N.am      1 <0>        -0.6776
     19 C14        -2.5108  -11.2187    0.5239 C.2       1 <0>         0.7077
     20 O3         -1.6217  -10.6297    1.1080 O.2       1 <0>        -0.5493
     21 N4         -2.5639  -12.5649    0.5593 N.am      1 <0>        -0.6795
     22 C15        -1.6655  -13.2800    1.3600 C.ar      1 <0>         0.1700
     23 C16        -1.2529  -12.7583    2.5792 C.ar      1 <0>        -0.0742
     24 C17        -0.3670  -13.4659    3.3674 C.ar      1 <0>        -0.0871
     25 C18         0.1097  -14.6941    2.9434 C.ar      1 <0>        -0.0077
     26 C19        -0.2993  -15.2159    1.7290 C.ar      1 <0>        -0.1564
     27 C20        -1.1898  -14.5147    0.9394 C.ar      1 <0>        -0.0879
     28 C21         0.2222  -16.5533    1.2702 C.3       1 <0>         0.5112
     29 F1         -0.3299  -16.8663    0.0234 F         1 <0>        -0.1743
     30 F2          1.6160  -16.4983    1.1626 F         1 <0>        -0.1671
     31 F3         -0.1354  -17.5367    2.1987 F         1 <0>        -0.1677
     32 Cl1         1.2234  -15.5812    3.9366 Cl        1 <0>        -0.0394
     33 H1         -0.8760   -4.2843   -7.7081 H         1 <0>         0.0803
     34 H2         -0.1948   -5.5764   -6.6909 H         1 <0>         0.0631
     35 H3         -1.8761   -5.6883   -7.2645 H         1 <0>         0.0629
     36 H4         -1.6162   -3.3359   -5.7233 H         1 <0>         0.4141
     37 H5         -2.6047   -6.0902   -2.2584 H         1 <0>         0.1546
     38 H6         -3.5217   -2.3755   -0.3280 H         1 <0>         0.1523
     39 H7         -2.9005   -1.2112   -2.4052 H         1 <0>         0.1747
     40 H8         -1.3104   -6.5106    0.0290 H         1 <0>         0.1364
     41 H9         -1.3078   -8.9704   -0.0424 H         1 <0>         0.1514
     42 H10        -5.5809   -8.9693   -0.1851 H         1 <0>         0.1386
     43 H11        -5.5820   -6.5098   -0.1039 H         1 <0>         0.1400
     44 H12        -4.1137  -10.9957   -0.6785 H         1 <0>         0.4131
     45 H13        -3.2246  -13.0383    0.0299 H         1 <0>         0.4146
     46 H14        -1.6244  -11.7997    2.9103 H         1 <0>         0.1546
     47 H15        -0.0456  -13.0604    4.3154 H         1 <0>         0.1524
     48 H16        -1.5123  -14.9245   -0.0064 H         1 <0>         0.1525
@<TRIPOS>BOND
     1    1    2 1
     2    1   33 1
     3    1   34 1
     4    1   35 1
     5    2    3 am
     6    2   36 1
     7    3    4 2
     8    3    5 1
     9    5   10 ar
    10    5    6 ar
    11    6    7 ar
    12    6   37 1
    13    7    8 ar
    14    7   11 1
    15    8    9 ar
    16    8   38 1
    17    9   10 ar
    18    9   39 1
    19   11   12 1
    20   12   17 ar
    21   12   13 ar
    22   13   14 ar
    23   13   40 1
    24   14   15 ar
    25   14   41 1
    26   15   16 ar
    27   15   18 1
    28   16   17 ar
    29   16   42 1
    30   17   43 1
    31   18   19 am
    32   18   44 1
    33   19   20 2
    34   19   21 am
    35   21   22 1
    36   21   45 1
    37   22   27 ar
    38   22   23 ar
    39   23   24 ar
    40   23   46 1
    41   24   25 ar
    42   24   47 1
    43   25   26 ar
    44   25   32 1
    45   26   27 ar
    46   26   28 1
    47   27   48 1
    48   28   29 1
    49   28   30 1
    50   28   31 1
@<TRIPOS>MOLECULE
ZINC21982951
   60    63     0     0     0
SMALL
USER_CHARGES

@<TRIPOS>ATOM
      1 C1         -2.0700    1.6928    0.2333 C.3       1 <0>        -0.1170
      2 C2         -1.6482    0.2604    0.0301 C.ar      1 <0>        -0.0813
      3 C3         -1.8479   -0.3525   -1.1919 C.ar      1 <0>        -0.1034
      4 C4         -1.4615   -1.6665   -1.3798 C.ar      1 <0>        -0.0990
      5 C5         -0.8738   -2.3725   -0.3459 C.ar      1 <0>        -0.1046
      6 C6         -0.6714   -1.7660    0.8791 C.ar      1 <0>        -0.0220
      7 C7         -1.0534   -0.4428    1.0688 C.ar      1 <0>         0.1347
      8 N1         -0.8441    0.1769    2.3055 N.am      1 <0>        -0.6659
      9 C8         -1.2819   -0.4110    3.4365 C.2       1 <0>         0.6018
     10 O1         -1.7689   -1.5261    3.3939 O.2       1 <0>        -0.4722
     11 C9         -1.1720    0.2905    4.7149 C.2       1 <0>        -0.2635
     12 C10        -1.5472   -0.1201    5.9866 C.2       1 <0>         0.1512
     13 N2         -1.3262    0.7270    6.9599 N.2       1 <0>        -0.5510
     14 C11        -0.7756    1.9070    6.7361 C.2       1 <0>         0.2513
     15 S1         -0.5107    1.9100    5.0742 S.3       1 <0>         0.2445
     16 N3         -0.4817    2.8997    7.6498 N.pl3     1 <0>        -0.5870
     17 C12        -0.6908    2.6801    9.0050 C.ar      1 <0>         0.4543
     18 C13        -1.0534    1.4192    9.4679 C.ar      1 <0>        -0.2926
     19 C14        -1.2512    1.2508   10.8352 C.ar      1 <0>         0.4935
     20 N4         -1.0875    2.2952   11.6453 N.ar      1 <0>        -0.5328
     21 C15        -0.7435    3.4737   11.1677 C.ar      1 <0>         0.4541
     22 N5         -0.5417    3.6719    9.8809 N.ar      1 <0>        -0.5672
     23 C16        -0.5694    4.6273   12.1217 C.3       1 <0>        -0.1251
     24 N6         -1.6138    0.0143   11.3464 N.pl3     1 <0>        -0.5370
     25 C17        -2.0559   -0.1253   12.7422 C.3       1 <0>         0.1090
     26 C18        -3.3866   -0.8852   12.7576 C.3       1 <0>         0.0383
     27 N7         -3.2335   -2.1493   12.0251 N.3       1 <0>        -0.5289
     28 C19        -2.9165   -1.9105   10.6107 C.3       1 <0>         0.0343
     29 C20        -1.5725   -1.1917   10.5056 C.3       1 <0>         0.1057
     30 C21        -4.4334   -2.9856   12.1619 C.3       1 <0>         0.0545
     31 C22        -4.1483   -4.3816   11.6043 C.3       1 <0>         0.0776
     32 O2         -3.1500   -5.0191   12.4038 O.3       1 <0>        -0.5606
     33 Cl1         0.0658   -2.6526    2.1768 Cl        1 <0>        -0.0453
     34 H1         -1.2464    2.3553   -0.0328 H         1 <0>         0.0773
     35 H2         -2.9308    1.9112   -0.3987 H         1 <0>         0.0785
     36 H3         -2.3379    1.8478    1.2784 H         1 <0>         0.0640
     37 H4         -2.3069    0.1956   -2.0014 H         1 <0>         0.1372
     38 H5         -1.6193   -2.1430   -2.3361 H         1 <0>         0.1391
     39 H6         -0.5731   -3.3989   -0.4959 H         1 <0>         0.1403
     40 H7         -0.3838    1.0296    2.3489 H         1 <0>         0.4083
     41 H8         -1.9972   -1.0858    6.1634 H         1 <0>         0.2027
     42 H9         -0.1293    3.7505    7.3451 H         1 <0>         0.4460
     43 H10        -1.1784    0.5927    8.7841 H         1 <0>         0.2218
     44 H11         0.4644    4.6619   12.4652 H         1 <0>         0.1245
     45 H12        -0.8146    5.5596   11.6130 H         1 <0>         0.1071
     46 H13        -1.2322    4.4948   12.9768 H         1 <0>         0.1273
     47 H14        -1.3096   -0.6823   13.3087 H         1 <0>         0.0989
     48 H15        -2.1929    0.8619   13.1834 H         1 <0>         0.1094
     49 H16        -3.6740   -1.0944   13.7880 H         1 <0>         0.1036
     50 H17        -4.1569   -0.2794   12.2806 H         1 <0>         0.0428
     51 H18        -2.8631   -2.8634   10.0841 H         1 <0>         0.1043
     52 H19        -3.6935   -1.2904   10.1636 H         1 <0>         0.0450
     53 H20        -1.3900   -0.9091    9.4688 H         1 <0>         0.1029
     54 H21        -0.7788   -1.8532   10.8529 H         1 <0>         0.1042
     55 H22        -4.7041   -3.0633   13.2149 H         1 <0>         0.0912
     56 H23        -5.2561   -2.5340   11.6075 H         1 <0>         0.0533
     57 H24        -5.0627   -4.9745   11.6240 H         1 <0>         0.0547
     58 H25        -3.7921   -4.2970   10.5776 H         1 <0>         0.0454
     59 H26        -2.9188   -5.9101   12.1076 H         1 <0>         0.3805
     60 H27        -0.2852    4.5531    9.5669 H         1 <0>         0.4414
@<TRIPOS>BOND
     1    1    2 1
     2    1   34 1
     3    1   35 1
     4    1   36 1
     5    2    7 ar
     6    2    3 ar
     7    3    4 ar
     8    3   37 1
     9    4    5 ar
    10    4   38 1
    11    5    6 ar
    12    5   39 1
    13    6    7 ar
    14    6   33 1
    15    7    8 1
    16    8    9 am
    17    8   40 1
    18    9   10 2
    19    9   11 1
    20   11   15 1
    21   11   12 2
    22   12   13 1
    23   12   41 1
    24   13   14 2
    25   14   15 1
    26   14   16 1
    27   16   17 1
    28   16   42 1
    29   17   22 ar
    30   17   18 ar
    31   18   19 ar
    32   18   43 1
    33   19   20 ar
    34   19   24 1
    35   20   21 ar
    36   21   22 ar
    37   21   23 1
    38   22   60 1
    39   23   44 1
    40   23   45 1
    41   23   46 1
    42   24   29 1
    43   24   25 1
    44   25   26 1
    45   25   47 1
    46   25   48 1
    47   26   27 1
    48   26   49 1
    49   26   50 1
    50   27   28 1
    51   27   30 1
    52   28   29 1
    53   28   51 1
    54   28   52 1
    55   29   53 1
    56   29   54 1
    57   30   31 1
    58   30   55 1
    59   30   56 1
    60   31   32 1
    61   31   57 1
    62   31   58 1
    63   32   59 1
@<TRIPOS>MOLECULE
ZINC21982951
   60    63     0     0     0
SMALL
USER_CHARGES

@<TRIPOS>ATOM
      1 C1          3.2739    6.6585    1.8418 C.3       1 <0>        -0.1168
      2 C2          2.5810    7.9910    1.9663 C.ar      1 <0>        -0.0823
      3 C3          2.8983    9.0189    1.0995 C.ar      1 <0>        -0.1038
      4 C4          2.2635   10.2419    1.2126 C.ar      1 <0>        -0.1008
      5 C5          1.3088   10.4411    2.1933 C.ar      1 <0>        -0.1049
      6 C6          0.9869    9.4175    3.0639 C.ar      1 <0>        -0.0226
      7 C7          1.6192    8.1849    2.9486 C.ar      1 <0>         0.1373
      8 N1          1.2913    7.1440    3.8238 N.am      1 <0>        -0.6678
      9 C8          1.3128    7.3511    5.1554 C.2       1 <0>         0.6036
     10 O1          1.5184    8.4680    5.5945 O.2       1 <0>        -0.4759
     11 C9          1.0891    6.2346    6.0728 C.2       1 <0>        -0.2694
     12 C10         1.0619    6.2190    7.4604 C.2       1 <0>         0.1522
     13 N2          0.8357    5.0596    8.0247 N.2       1 <0>        -0.5060
     14 C11         0.6446    3.9678    7.3056 C.2       1 <0>         0.2464
     15 S1          0.7674    4.5141    5.7185 S.3       1 <0>         0.2029
     16 N3          0.3973    2.6842    7.7505 N.pl3     1 <0>        -0.5650
     17 C12         0.2197    2.4414    9.1063 C.ar      1 <0>         0.4999
     18 C13        -0.1342    1.1736    9.5555 C.ar      1 <0>        -0.3181
     19 C14        -0.3003    0.9817   10.9244 C.ar      1 <0>         0.4940
     20 N4         -0.1157    2.0114   11.7481 N.ar      1 <0>        -0.5712
     21 C15         0.2193    3.1978   11.2829 C.ar      1 <0>         0.4509
     22 N5          0.3911    3.4178    9.9956 N.ar      1 <0>        -0.4879
     23 C16         0.4179    4.3344   12.2523 C.3       1 <0>        -0.1253
     24 N6         -0.6531   -0.2629   11.4224 N.pl3     1 <0>        -0.5744
     25 C17        -0.9639   -0.4449   12.8484 C.3       1 <0>         0.1013
     26 C18        -2.3114   -1.1652   12.9649 C.3       1 <0>         0.0387
     27 N7         -2.2712   -2.4031   12.1749 N.3       1 <0>        -0.5277
     28 C19        -2.0835   -2.1176   10.7462 C.3       1 <0>         0.0305
     29 C20        -0.7325   -1.4351   10.5377 C.3       1 <0>         0.1149
     30 C21        -3.4796   -3.2085   12.3965 C.3       1 <0>         0.0543
     31 C22        -3.2958   -4.5889   11.7629 C.3       1 <0>         0.0774
     32 O2         -2.2472   -5.2869   12.4378 O.3       1 <0>        -0.5615
     33 Cl1        -0.2110    9.6681    4.2952 Cl        1 <0>        -0.0453
     34 H1          2.7121    6.0191    1.1609 H         1 <0>         0.0767
     35 H2          4.2810    6.8077    1.4524 H         1 <0>         0.0779
     36 H3          3.3298    6.1850    2.8220 H         1 <0>         0.0648
     37 H4          3.6435    8.8670    0.3327 H         1 <0>         0.1365
     38 H5          2.5139   11.0437    0.5337 H         1 <0>         0.1383
     39 H6          0.8148   11.3976    2.2790 H         1 <0>         0.1396
     40 H7          1.0484    6.2731    3.4723 H         1 <0>         0.4083
     41 H8          1.2191    7.1147    8.0430 H         1 <0>         0.1979
     42 H9          0.3477    1.9521    7.1161 H         1 <0>         0.4525
     43 H10        -0.2767    0.3593    8.8606 H         1 <0>         0.1835
     44 H11         1.4596    4.3615   12.5720 H         1 <0>         0.1250
     45 H12         0.1626    5.2758   11.7656 H         1 <0>         0.1301
     46 H13        -0.2249    4.1881   13.1203 H         1 <0>         0.1049
     47 H14        -0.1857   -1.0458   13.3190 H         1 <0>         0.1119
     48 H15        -1.0251    0.5276   13.3369 H         1 <0>         0.0843
     49 H16        -2.5057   -1.4068   14.0099 H         1 <0>         0.1076
     50 H17        -3.1034   -0.5184   12.5874 H         1 <0>         0.0465
     51 H18        -2.1124   -3.0499   10.1822 H         1 <0>         0.1076
     52 H19        -2.8786   -1.4576   10.3996 H         1 <0>         0.0467
     53 H20        -0.6409   -1.1170    9.4992 H         1 <0>         0.1034
     54 H21         0.0684   -2.1330   10.7819 H         1 <0>         0.1075
     55 H22        -3.6507   -3.3200   13.4672 H         1 <0>         0.0925
     56 H23        -4.3362   -2.7111   11.9416 H         1 <0>         0.0553
     57 H24        -4.2233   -5.1548   11.8494 H         1 <0>         0.0565
     58 H25        -3.0370   -4.4741   10.7103 H         1 <0>         0.0456
     59 H26        -2.0752   -6.1719   12.0881 H         1 <0>         0.3821
     60 H27        -0.2297    1.8867   12.7033 H         1 <0>         0.4392
@<TRIPOS>BOND
     1    1    2 1
     2    1   34 1
     3    1   35 1
     4    1   36 1
     5    2    7 ar
     6    2    3 ar
     7    3    4 ar
     8    3   37 1
     9    4    5 ar
    10    4   38 1
    11    5    6 ar
    12    5   39 1
    13    6    7 ar
    14    6   33 1
    15    7    8 1
    16    8    9 am
    17    8   40 1
    18    9   10 2
    19    9   11 1
    20   11   15 1
    21   11   12 2
    22   12   13 1
    23   12   41 1
    24   13   14 2
    25   14   15 1
    26   14   16 1
    27   16   17 1
    28   16   42 1
    29   17   18 ar
    30   17   22 ar
    31   18   43 1
    32   18   19 ar
    33   19   24 1
    34   19   20 ar
    35   20   60 1
    36   20   21 ar
    37   21   23 1
    38   21   22 ar
    39   23   44 1
    40   23   45 1
    41   23   46 1
    42   24   29 1
    43   24   25 1
    44   25   26 1
    45   25   47 1
    46   25   48 1
    47   26   27 1
    48   26   49 1
    49   26   50 1
    50   27   28 1
    51   27   30 1
    52   28   29 1
    53   28   51 1
    54   28   52 1
    55   29   53 1
    56   29   54 1
    57   30   31 1
    58   30   55 1
    59   30   56 1
    60   31   32 1
    61   31   57 1
    62   31   58 1
    63   32   59 1
@<TRIPOS>MOLECULE
ZINC21982951
   59    62     0     0     0
SMALL
USER_CHARGES

@<TRIPOS>ATOM
      1 C1          3.4106    6.6420    1.8847 C.3       1 <0>        -0.1165
      2 C2          2.6976    7.9659    1.9845 C.ar      1 <0>        -0.0852
      3 C3          3.0204    8.9921    1.1176 C.ar      1 <0>        -0.1055
      4 C4          2.3672   10.2073    1.2080 C.ar      1 <0>        -0.1070
      5 C5          1.3885   10.4004    2.1660 C.ar      1 <0>        -0.1064
      6 C6          1.0609    9.3785    3.0365 C.ar      1 <0>        -0.0243
      7 C7          1.7118    8.1536    2.9438 C.ar      1 <0>         0.1460
      8 N1          1.3783    7.1144    3.8189 N.am      1 <0>        -0.6734
      9 C8          1.3676    7.3308    5.1492 C.2       1 <0>         0.6131
     10 O1          1.5489    8.4533    5.5848 O.2       1 <0>        -0.4899
     11 C9          1.1384    6.2176    6.0693 C.2       1 <0>        -0.3092
     12 C10         1.0807    6.2111    7.4561 C.2       1 <0>         0.1722
     13 N2          0.8573    5.0526    8.0233 N.2       1 <0>        -0.5180
     14 C11         0.6966    3.9535    7.3079 C.2       1 <0>         0.3121
     15 S1          0.8472    4.4907    5.7202 S.3       1 <0>         0.1340
     16 N3          0.4564    2.6698    7.7563 N.pl3     1 <0>        -0.5904
     17 C12         0.2490    2.4343    9.1091 C.ar      1 <0>         0.4412
     18 C13        -0.1036    1.1661    9.5586 C.ar      1 <0>        -0.3412
     19 C14        -0.3003    0.9817   10.9244 C.ar      1 <0>         0.4686
     20 N4         -0.1450    2.0186   11.7452 N.ar      1 <0>        -0.5923
     21 C15         0.1898    3.2050   11.2799 C.ar      1 <0>         0.3946
     22 N5          0.3901    3.4182    9.9956 N.ar      1 <0>        -0.5459
     23 C16         0.3546    4.3498   12.2460 C.3       1 <0>        -0.0834
     24 N6         -0.6531   -0.2629   11.4224 N.pl3     1 <0>        -0.5966
     25 C17        -1.0693   -0.4249   12.8237 C.3       1 <0>         0.1300
     26 C18        -2.3993   -1.1856   12.8517 C.3       1 <0>         0.0401
     27 N7         -2.2595   -2.4378   12.0965 N.3       1 <0>        -0.5276
     28 C19        -1.9688   -2.1765   10.6804 C.3       1 <0>         0.0363
     29 C20        -0.6270   -1.4554   10.5619 C.3       1 <0>         0.1269
     30 C21        -3.4565   -3.2768   12.2420 C.3       1 <0>         0.0537
     31 C22        -3.1814   -4.6636   11.6572 C.3       1 <0>         0.0792
     32 O2         -2.1684   -5.3132   12.4279 O.3       1 <0>        -0.5589
     33 Cl1        -0.1672    9.6214    4.2392 Cl        1 <0>        -0.0433
     34 H1          2.8725    5.9906    1.1961 H         1 <0>         0.0754
     35 H2          4.4240    6.8020    1.5166 H         1 <0>         0.0754
     36 H3          3.4510    6.1760    2.8692 H         1 <0>         0.0676
     37 H4          3.7844    8.8450    0.3685 H         1 <0>         0.1337
     38 H5          2.6220   11.0077    0.5292 H         1 <0>         0.1350
     39 H6          0.8801   11.3508    2.2339 H         1 <0>         0.1371
     40 H7          1.1547    6.2381    3.4683 H         1 <0>         0.4085
     41 H8          1.2132    7.1127    8.0357 H         1 <0>         0.1884
     42 H9          0.4325    1.9325    7.1264 H         1 <0>         0.4387
     43 H10        -0.2220    0.3459    8.8660 H         1 <0>         0.1413
     44 H11         1.3882    4.3890   12.5900 H         1 <0>         0.0870
     45 H12         0.1021    5.2855   11.7470 H         1 <0>         0.0890
     46 H13        -0.3072    4.2031   13.0995 H         1 <0>         0.0846
     47 H14        -0.3126   -0.9904   13.3674 H         1 <0>         0.0744
     48 H15        -1.1984    0.5551   13.2831 H         1 <0>         0.1008
     49 H16        -2.6676   -1.4113   13.8837 H         1 <0>         0.0903
     50 H17        -3.1785   -0.5727   12.3986 H         1 <0>         0.0372
     51 H18        -1.9249   -3.1208   10.1378 H         1 <0>         0.0905
     52 H19        -2.7540   -1.5497   10.2576 H         1 <0>         0.0380
     53 H20        -0.4638   -1.1563    9.5265 H         1 <0>         0.0877
     54 H21         0.1731   -2.1219   10.8840 H         1 <0>         0.0802
     55 H22        -3.7077   -3.3713   13.2985 H         1 <0>         0.0861
     56 H23        -4.2894   -2.8169   11.7102 H         1 <0>         0.0487
     57 H24        -4.0952   -5.2572   11.6843 H         1 <0>         0.0498
     58 H25        -2.8443   -4.5626   10.6256 H         1 <0>         0.0451
     59 H26        -1.9426   -6.1994   12.1134 H         1 <0>         0.3762
@<TRIPOS>BOND
     1    1    2 1
     2    1   34 1
     3    1   35 1
     4    1   36 1
     5    2    7 ar
     6    2    3 ar
     7    3    4 ar
     8    3   37 1
     9    4    5 ar
    10    4   38 1
    11    5    6 ar
    12    5   39 1
    13    6    7 ar
    14    6   33 1
    15    7    8 1
    16    8    9 am
    17    8   40 1
    18    9   10 2
    19    9   11 1
    20   11   15 1
    21   11   12 2
    22   12   13 1
    23   12   41 1
    24   13   14 2
    25   14   15 1
    26   14   16 1
    27   16   17 1
    28   16   42 1
    29   17   18 ar
    30   17   22 ar
    31   18   43 1
    32   18   19 ar
    33   19   24 1
    34   19   20 ar
    35   20   21 ar
    36   21   23 1
    37   21   22 ar
    38   23   44 1
    39   23   45 1
    40   23   46 1
    41   24   29 1
    42   24   25 1
    43   25   26 1
    44   25   47 1
    45   25   48 1
    46   26   27 1
    47   26   49 1
    48   26   50 1
    49   27   28 1
    50   27   30 1
    51   28   29 1
    52   28   51 1
    53   28   52 1
    54   29   53 1
    55   29   54 1
    56   30   31 1
    57   30   55 1
    58   30   56 1
    59   31   32 1
    60   31   57 1
    61   31   58 1
    62   32   59 1
@<TRIPOS>MOLECULE
ZINC21982951
   61    64     0     0     0
SMALL
USER_CHARGES

@<TRIPOS>ATOM
      1 C1          3.2770    6.6581    1.8427 C.3       1 <0>        -0.1166
      2 C2          2.5837    7.9904    1.9667 C.ar      1 <0>        -0.0814
      3 C3          2.9012    9.0183    1.0999 C.ar      1 <0>        -0.1028
      4 C4          2.2660   10.2411    1.2125 C.ar      1 <0>        -0.0975
      5 C5          1.3108   10.4402    2.1928 C.ar      1 <0>        -0.1039
      6 C6          0.9888    9.4167    3.0634 C.ar      1 <0>        -0.0218
      7 C7          1.6215    8.1842    2.9485 C.ar      1 <0>         0.1327
      8 N1          1.2933    7.1433    3.8237 N.am      1 <0>        -0.6648
      9 C8          1.3141    7.3507    5.1552 C.2       1 <0>         0.5983
     10 O1          1.5193    8.4677    5.5943 O.2       1 <0>        -0.4690
     11 C9          1.0903    6.2342    6.0727 C.2       1 <0>        -0.2500
     12 C10         1.0624    6.2188    7.4604 C.2       1 <0>         0.1439
     13 N2          0.8362    5.0594    8.0246 N.2       1 <0>        -0.4984
     14 C11         0.6458    3.9675    7.3056 C.2       1 <0>         0.2172
     15 S1          0.7692    4.5136    5.7185 S.3       1 <0>         0.2242
     16 N3          0.3986    2.6839    7.7506 N.pl3     1 <0>        -0.5513
     17 C12         0.2203    2.4413    9.1063 C.ar      1 <0>         0.5098
     18 C13        -0.1335    1.1734    9.5556 C.ar      1 <0>        -0.3097
     19 C14        -0.3003    0.9817   10.9244 C.ar      1 <0>         0.4927
     20 N4         -0.1163    2.0116   11.7481 N.ar      1 <0>        -0.5695
     21 C15         0.2187    3.1980   11.2828 C.ar      1 <0>         0.4589
     22 N5          0.3911    3.4178    9.9956 N.ar      1 <0>        -0.4762
     23 C16         0.4165    4.3348   12.2521 C.3       1 <0>        -0.1303
     24 N6         -0.6531   -0.2629   11.4224 N.pl3     1 <0>        -0.6123
     25 C17        -0.9643   -0.4465   12.8484 C.3       1 <0>         0.0782
     26 C18        -2.3027   -1.1838   12.9625 C.3       1 <0>        -0.0204
     27 N7         -2.2406   -2.4311   12.1903 N.4       1 <0>        -0.3852
     28 C19        -2.0770   -2.1279   10.7629 C.3       1 <0>        -0.0304
     29 C20        -0.7330   -1.4363   10.5388 C.3       1 <0>         0.0932
     30 C21        -3.4827   -3.1900   12.3886 C.3       1 <0>        -0.0061
     31 C22        -3.3702   -4.5448   11.6865 C.3       1 <0>         0.0434
     32 O2         -2.3479   -5.3224   12.3128 O.3       1 <0>        -0.5819
     33 Cl1        -0.2098    9.6671    4.2940 Cl        1 <0>        -0.0466
     34 H1          2.7157    6.0184    1.1617 H         1 <0>         0.0770
     35 H2          4.2843    6.8074    1.4538 H         1 <0>         0.0791
     36 H3          3.3325    6.1847    2.8230 H         1 <0>         0.0631
     37 H4          3.6468    8.8665    0.3335 H         1 <0>         0.1380
     38 H5          2.5166   11.0428    0.5336 H         1 <0>         0.1401
     39 H6          0.8165   11.3966    2.2780 H         1 <0>         0.1410
     40 H7          1.0508    6.2723    3.4722 H         1 <0>         0.4077
     41 H8          1.2191    7.1146    8.0429 H         1 <0>         0.2016
     42 H9          0.3494    1.9517    7.1163 H         1 <0>         0.4545
     43 H10        -0.2756    0.3590    8.8607 H         1 <0>         0.1860
     44 H11         1.4581    4.3621   12.5724 H         1 <0>         0.1309
     45 H12         0.1613    5.2760   11.7653 H         1 <0>         0.1358
     46 H13        -0.2267    4.1885   13.1199 H         1 <0>         0.1083
     47 H14        -0.1795   -1.0367   13.3215 H         1 <0>         0.1249
     48 H15        -1.0392    0.5259   13.3352 H         1 <0>         0.1232
     49 H16        -2.5028   -1.4138   14.0090 H         1 <0>         0.1602
     50 H17        -3.0999   -0.5526   12.5701 H         1 <0>         0.1410
     51 H18        -2.1110   -3.0537   10.1885 H         1 <0>         0.1585
     52 H19        -2.8811   -1.4682   10.4370 H         1 <0>         0.1418
     53 H20        -0.6550   -1.1179    9.4992 H         1 <0>         0.1416
     54 H21         0.0756   -2.1281   10.7747 H         1 <0>         0.1211
     55 H22        -3.6469   -3.3459   13.4548 H         1 <0>         0.1465
     56 H23        -4.3202   -2.6321   11.9697 H         1 <0>         0.1464
     57 H24        -4.3221   -5.0710   11.7578 H         1 <0>         0.1026
     58 H25        -3.1180   -4.3904   10.6374 H         1 <0>         0.0719
     59 H26        -2.2211   -6.1961   11.9183 H         1 <0>         0.4154
     60 H27        -0.2308    1.8869   12.7032 H         1 <0>         0.4393
     61 H28        -1.4578   -2.9831   12.5075 H         1 <0>         0.4359
@<TRIPOS>BOND
     1    1    2 1
     2    1   34 1
     3    1   35 1
     4    1   36 1
     5    2    7 ar
     6    2    3 ar
     7    3    4 ar
     8    3   37 1
     9    4    5 ar
    10    4   38 1
    11    5    6 ar
    12    5   39 1
    13    6    7 ar
    14    6   33 1
    15    7    8 1
    16    8    9 am
    17    8   40 1
    18    9   10 2
    19    9   11 1
    20   11   15 1
    21   11   12 2
    22   12   13 1
    23   12   41 1
    24   13   14 2
    25   14   15 1
    26   14   16 1
    27   16   17 1
    28   16   42 1
    29   17   18 ar
    30   17   22 ar
    31   18   43 1
    32   18   19 ar
    33   19   24 1
    34   19   20 ar
    35   20   60 1
    36   20   21 ar
    37   21   23 1
    38   21   22 ar
    39   23   44 1
    40   23   45 1
    41   23   46 1
    42   24   29 1
    43   24   25 1
    44   25   26 1
    45   25   47 1
    46   25   48 1
    47   26   27 1
    48   26   49 1
    49   26   50 1
    50   27   28 1
    51   27   30 1
    52   27   61 1
    53   28   29 1
    54   28   51 1
    55   28   52 1
    56   29   53 1
    57   29   54 1
    58   30   31 1
    59   30   55 1
    60   30   56 1
    61   31   32 1
    62   31   57 1
    63   31   58 1
    64   32   59 1
@<TRIPOS>MOLECULE
ZINC03874496
   29    30     0     0     0
SMALL
USER_CHARGES

@<TRIPOS>ATOM
      1 C1          0.0648    1.2424   -0.6206 C.ar      1 <0>        -0.0221
      2 C2          1.2502    1.9519   -0.6188 C.ar      1 <0>        -0.1227
      3 C3          2.3815    1.4095   -0.0244 C.ar      1 <0>         0.2190
      4 C4          2.3172    0.1532    0.5673 C.ar      1 <0>        -0.0788
      5 C5          1.1283   -0.5509    0.5618 C.ar      1 <0>        -0.0202
      6 C6          0.0037   -0.0068   -0.0315 C.ar      1 <0>        -0.0611
      7 N1         -1.2685   -0.7635   -0.0352 N.pl3     1 <0>         0.0361
      8 O1         -2.2526   -0.2891   -0.5531 O.2       1 <0>        -0.1507
      9 O2         -1.3236   -1.8560    0.4796 O.3       1 <0>        -0.1541
     10 Cl1         3.7288   -0.5303    1.3116 Cl        1 <0>        -0.0309
     11 N2          3.5835    2.1253   -0.0212 N.am      1 <0>        -0.6659
     12 C7          3.5675    3.4697   -0.1160 C.2       1 <0>         0.5690
     13 O3          2.5087    4.0676   -0.1029 O.2       1 <0>        -0.4815
     14 C8          4.8344    4.2157   -0.2357 C.ar      1 <0>        -0.1651
     15 C9          6.0529    3.5323   -0.2570 C.ar      1 <0>        -0.0601
     16 C10         7.2335    4.2358   -0.3691 C.ar      1 <0>        -0.0539
     17 C11         7.2169    5.6191   -0.4608 C.ar      1 <0>        -0.0563
     18 C12         6.0194    6.3058   -0.4409 C.ar      1 <0>        -0.1399
     19 C13         4.8223    5.6136   -0.3345 C.ar      1 <0>         0.1862
     20 O4          3.6447    6.2873   -0.3205 O.3       1 <0>        -0.4738
     21 Cl2         8.7470    3.3859   -0.3949 Cl        1 <0>        -0.0500
     22 H1         -0.8165    1.6661   -1.0791 H         1 <0>         0.1660
     23 H2          1.2969    2.9276   -1.0796 H         1 <0>         0.1789
     24 H3          1.0772   -1.5270    1.0212 H         1 <0>         0.1692
     25 H4          4.4284    1.6541    0.0492 H         1 <0>         0.4185
     26 H5          6.0700    2.4548   -0.1854 H         1 <0>         0.1395
     27 H6          8.1461    6.1626   -0.5479 H         1 <0>         0.1488
     28 H7          6.0146    7.3835   -0.5124 H         1 <0>         0.1525
     29 H8          3.3496    6.5452    0.5635 H         1 <0>         0.4032
@<TRIPOS>BOND
     1    1    6 ar
     2    1    2 ar
     3    1   22 1
     4    2    3 ar
     5    2   23 1
     6    3    4 ar
     7    3   11 1
     8    4    5 ar
     9    4   10 1
    10    5    6 ar
    11    5   24 1
    12    6    7 1
    13    7    8 2
    14    7    9 1
    15   11   12 am
    16   11   25 1
    17   12   13 2
    18   12   14 1
    19   14   19 ar
    20   14   15 ar
    21   15   16 ar
    22   15   26 1
    23   16   17 ar
    24   16   21 1
    25   17   18 ar
    26   17   27 1
    27   18   19 ar
    28   18   28 1
    29   19   20 1
    30   20   29 1
@<TRIPOS>MOLECULE
ZINC03814434
   62    69     0     0     0
SMALL
USER_CHARGES

@<TRIPOS>ATOM
      1 C1         -0.1295    1.5952   -0.2973 C.3       1 <0>        -0.1687
      2 C2         -0.0862    0.0696   -0.1900 C.3       1 <0>         0.3342
      3 C3          0.5692   -0.4501   -1.4637 C.3       1 <0>         0.0405
      4 H1          1.4796    0.1159   -1.6612 H         1 <0>         0.1372
      5 C4          0.9167   -1.9328   -1.2889 C.3       1 <0>        -0.0061
      6 H2          1.3963   -2.3075   -2.1932 H         1 <0>         0.1555
      7 C5          1.8785   -2.0596   -0.1021 C.3       1 <0>        -0.1827
      8 C6          1.2061   -1.5198    1.1541 C.3       1 <0>         0.2999
      9 H3          1.9797   -1.4243    1.9161 H         1 <0>         0.1550
     10 O1          0.6555   -0.2442    0.9666 O.3       1 <0>        -0.3234
     11 N1          0.2189   -2.4746    1.6600 N.pl3     1 <0>        -0.5366
     12 C7          0.4705   -3.5508    2.4739 C.ar      1 <0>         0.1469
     13 C8          1.6649   -4.0152    3.0240 C.ar      1 <0>        -0.1522
     14 C9          1.5948   -5.1456    3.8201 C.ar      1 <0>        -0.0582
     15 C10         0.4006   -5.7997    4.0696 C.ar      1 <0>        -0.1457
     16 C11        -0.7984   -5.3597    3.5358 C.ar      1 <0>        -0.0280
     17 C12        -0.7487   -4.2198    2.7307 C.ar      1 <0>        -0.1131
     18 C13        -1.7893   -3.4830    2.0197 C.ar      1 <0>         0.0276
     19 C14        -1.1442   -2.4197    1.3841 C.ar      1 <0>         0.0376
     20 C15        -1.8806   -1.5095    0.6175 C.ar      1 <0>         0.0894
     21 N2         -1.4718   -0.3951   -0.1095 N.pl3     1 <0>        -0.5183
     22 C16        -2.5611    0.1913   -0.7090 C.ar      1 <0>         0.1618
     23 C17        -2.6521    1.3277   -1.5118 C.ar      1 <0>        -0.1305
     24 C18        -3.9109    1.6745   -1.9733 C.ar      1 <0>        -0.0737
     25 C19        -5.0393    0.9368   -1.6616 C.ar      1 <0>        -0.1358
     26 C20        -4.9745   -0.1955   -0.8662 C.ar      1 <0>        -0.0503
     27 C21        -3.7147   -0.5596   -0.3919 C.ar      1 <0>        -0.1042
     28 C22        -3.2693   -1.6660    0.4845 C.ar      1 <0>        -0.0360
     29 C23        -3.9084   -2.7313    1.1102 C.ar      1 <0>        -0.0288
     30 C24        -3.1873   -3.6421    1.8754 C.ar      1 <0>        -0.1255
     31 C25        -4.1221   -4.6480    2.4030 C.2       1 <0>         0.5632
     32 O2         -3.8062   -5.5851    3.1110 O.2       1 <0>        -0.5106
     33 N3         -5.3744   -4.3851    1.9926 N.am      1 <0>        -0.7162
     34 C26        -5.3495   -3.1771    1.1601 C.3       1 <0>         0.1358
     35 N4         -0.3067   -2.7008   -1.0216 N.4       1 <0>        -0.5252
     36 C27         0.0145   -4.1336   -0.9773 C.3       1 <0>        -0.0497
     37 O3         -0.3340   -0.2979   -2.5607 O.3       1 <0>        -0.3614
     38 C28         0.3101   -0.0933   -3.8198 C.3       1 <0>         0.0162
     39 H4          0.8261    2.0094    0.0240 H         1 <0>         0.0984
     40 H5         -0.3202    1.8814   -1.3317 H         1 <0>         0.1036
     41 H6         -0.9255    1.9818    0.3392 H         1 <0>         0.0921
     42 H7          2.1370   -3.1081    0.0458 H         1 <0>         0.1233
     43 H8          2.7835   -1.4869   -0.3048 H         1 <0>         0.1455
     44 H9          2.6036   -3.5149    2.8368 H         1 <0>         0.1365
     45 H10         2.5026   -5.5304    4.2610 H         1 <0>         0.1359
     46 H11         0.4045   -6.6780    4.6980 H         1 <0>         0.1352
     47 H12        -1.7278   -5.8736    3.7323 H         1 <0>         0.1600
     48 H13        -1.7792    1.9122   -1.7624 H         1 <0>         0.1440
     49 H14        -4.0153    2.5500   -2.5970 H         1 <0>         0.1336
     50 H15        -5.9967    1.2527   -2.0488 H         1 <0>         0.1332
     51 H16        -5.8575   -0.7687   -0.6249 H         1 <0>         0.1415
     52 H17        -6.1628   -4.9065    2.2103 H         1 <0>         0.4348
     53 H18        -5.9671   -2.3994    1.6094 H         1 <0>         0.1115
     54 H19        -5.7060   -3.4063    0.1559 H         1 <0>         0.1103
     55 H20        -0.6958   -2.4158   -0.1353 H         1 <0>         0.4186
     56 H21         0.4349   -4.4415   -1.9347 H         1 <0>         0.1256
     57 H22         0.7403   -4.3189   -0.1854 H         1 <0>         0.1191
     58 H23        -0.8932   -4.7035   -0.7789 H         1 <0>         0.1256
     59 H24         0.9168    0.8112   -3.7748 H         1 <0>         0.0633
     60 H25         0.9482   -0.9479   -4.0446 H         1 <0>         0.0514
     61 H26        -0.4433    0.0130   -4.6003 H         1 <0>         0.1100
     62 H27        -0.9785   -2.5293   -1.7546 H         1 <0>         0.4274
@<TRIPOS>BOND
     1    1    2 1
     2    1   39 1
     3    1   40 1
     4    1   41 1
     5    2   10 1
     6    2   21 1
     7    2    3 1
     8    3    4 1
     9    3    5 1
    10    3   37 1
    11    5    6 1
    12    5    7 1
    13    5   35 1
    14    7    8 1
    15    7   42 1
    16    7   43 1
    17    8    9 1
    18    8   10 1
    19    8   11 1
    20   11   19 1
    21   11   12 1
    22   12   17 ar
    23   12   13 ar
    24   13   14 ar
    25   13   44 1
    26   14   15 ar
    27   14   45 1
    28   15   16 ar
    29   15   46 1
    30   16   17 ar
    31   16   47 1
    32   17   18 1
    33   18   30 ar
    34   18   19 ar
    35   19   20 ar
    36   20   28 ar
    37   20   21 1
    38   21   22 1
    39   22   27 ar
    40   22   23 ar
    41   23   24 ar
    42   23   48 1
    43   24   25 ar
    44   24   49 1
    45   25   26 ar
    46   25   50 1
    47   26   27 ar
    48   26   51 1
    49   27   28 1
    50   28   29 ar
    51   29   34 1
    52   29   30 ar
    53   30   31 1
    54   31   32 2
    55   31   33 am
    56   33   34 1
    57   33   52 1
    58   34   53 1
    59   34   54 1
    60   35   36 1
    61   35   55 1
    62   35   62 1
    63   36   56 1
    64   36   57 1
    65   36   58 1
    66   37   38 1
    67   38   59 1
    68   38   60 1
    69   38   61 1
@<TRIPOS>MOLECULE
ZINC00116945
   40    42     0     0     0
SMALL
USER_CHARGES
6,7-dimethoxy-N-(3-methoxyphenyl)-quinazolin-4-amine
@<TRIPOS>ATOM
      1 C1         -6.0312   -1.0295   -1.4259 C.3       1 <0>         0.0271
      2 O1         -4.7937   -0.3178   -1.3625 O.3       1 <0>        -0.3143
      3 C2         -4.8133    0.9016   -0.7629 C.ar      1 <0>         0.1474
      4 C3         -6.0003    1.4024   -0.2461 C.ar      1 <0>        -0.2238
      5 C4         -6.0222    2.6424    0.3631 C.ar      1 <0>        -0.0589
      6 C5         -4.8631    3.3879    0.4600 C.ar      1 <0>        -0.1851
      7 C6         -3.6720    2.8916   -0.0546 C.ar      1 <0>         0.1907
      8 C7         -3.6493    1.6481   -0.6717 C.ar      1 <0>        -0.1456
      9 N1         -2.4991    3.6455    0.0437 N.pl3     1 <0>        -0.6391
     10 C8         -1.2815    3.0117    0.1916 C.ar      1 <0>         0.4637
     11 C9         -0.0729    3.7477    0.1760 C.ar      1 <0>        -0.1829
     12 C10        -0.0545    5.1383    0.0126 C.ar      1 <0>        -0.1479
     13 C11         1.1387    5.8027    0.0050 C.ar      1 <0>         0.1100
     14 C12         2.3467    5.1077    0.1597 C.ar      1 <0>         0.1632
     15 C13         2.3557    3.7403    0.3215 C.ar      1 <0>        -0.1838
     16 C14         1.1437    3.0387    0.3324 C.ar      1 <0>         0.2013
     17 N2          1.0980    1.7062    0.4878 N.ar      1 <0>        -0.5429
     18 C15        -0.0527    1.0765    0.4942 C.ar      1 <0>         0.3430
     19 N3         -1.2130    1.6960    0.3468 N.ar      1 <0>        -0.5763
     20 O2          3.5209    5.7908    0.1492 O.3       1 <0>        -0.2975
     21 C16         4.7175    5.0266    0.3114 C.3       1 <0>         0.0202
     22 O3          1.1554    7.1531   -0.1537 O.3       1 <0>        -0.3004
     23 C17        -0.1075    7.8041   -0.3060 C.3       1 <0>         0.0216
     24 H1         -6.4011   -1.2058   -0.4158 H         1 <0>         0.0566
     25 H2         -6.7606   -0.4412   -1.9825 H         1 <0>         0.0559
     26 H3         -5.8757   -1.9846   -1.9277 H         1 <0>         0.1010
     27 H4         -6.9081    0.8221   -0.3206 H         1 <0>         0.1291
     28 H5         -6.9472    3.0297    0.7640 H         1 <0>         0.1298
     29 H6         -4.8830    4.3570    0.9363 H         1 <0>         0.1256
     30 H7         -2.7257    1.2617   -1.0766 H         1 <0>         0.1459
     31 H8         -2.5406    4.6139    0.0081 H         1 <0>         0.4205
     32 H9         -0.9795    5.6828   -0.1073 H         1 <0>         0.1391
     33 H10         3.2906    3.2126    0.4393 H         1 <0>         0.1560
     34 H11        -0.0531    0.0040    0.6211 H         1 <0>         0.1979
     35 H12         4.6896    4.5067    1.2690 H         1 <0>         0.0621
     36 H13         4.7954    4.2979   -0.4955 H         1 <0>         0.0622
     37 H14         5.5802    5.6922    0.2843 H         1 <0>         0.1071
     38 H15        -0.6146    7.4118   -1.1875 H         1 <0>         0.0574
     39 H16        -0.7197    7.6206    0.5770 H         1 <0>         0.0572
     40 H17         0.0483    8.8765   -0.4236 H         1 <0>         0.1067
@<TRIPOS>BOND
     1    1    2 1
     2    1   24 1
     3    1   25 1
     4    1   26 1
     5    2    3 1
     6    3    8 ar
     7    3    4 ar
     8    4    5 ar
     9    4   27 1
    10    5    6 ar
    11    5   28 1
    12    6    7 ar
    13    6   29 1
    14    7    8 ar
    15    7    9 1
    16    8   30 1
    17    9   10 1
    18    9   31 1
    19   10   19 ar
    20   10   11 ar
    21   11   16 ar
    22   11   12 ar
    23   12   13 ar
    24   12   32 1
    25   13   14 ar
    26   13   22 1
    27   14   15 ar
    28   14   20 1
    29   15   16 ar
    30   15   33 1
    31   16   17 ar
    32   17   18 ar
    33   18   19 ar
    34   18   34 1
    35   20   21 1
    36   21   35 1
    37   21   36 1
    38   21   37 1
    39   22   23 1
    40   23   38 1
    41   23   39 1
    42   23   40 1
@<TRIPOS>MOLECULE
ZINC01609260
   36    39     0     0     0
SMALL
USER_CHARGES
7,9-diphenyl-2,4,9-triazabicyclo[4.3.0]nona-1,3,5,7-tetraen-5-amine
@<TRIPOS>ATOM
      1 C1         -0.8018   -5.5010   -0.0193 C.ar      1 <0>        -0.1197
      2 C2          0.2183   -5.3887   -0.9469 C.ar      1 <0>        -0.1112
      3 C3          1.0287   -4.2719   -0.9536 C.ar      1 <0>        -0.1080
      4 C4          0.8181   -3.2556   -0.0226 C.ar      1 <0>        -0.0116
      5 C5         -0.2077   -3.3771    0.9139 C.ar      1 <0>        -0.1264
      6 C6         -1.0156   -4.4958    0.9069 C.ar      1 <0>        -0.1125
      7 C7          1.6851   -2.0534   -0.0246 C.2       1 <0>        -0.0946
      8 C8          3.0408   -2.0315   -0.0372 C.2       1 <0>         0.0606
      9 N1          3.4801   -0.7343   -0.0347 N.pl3     1 <0>        -0.4086
     10 C9          2.4135    0.1274   -0.0203 C.ar      1 <0>         0.3514
     11 C10         1.2440   -0.6524   -0.0133 C.ar      1 <0>        -0.2510
     12 C11         0.0021   -0.0041    0.0020 C.ar      1 <0>         0.4945
     13 N2         -0.0160    1.3262    0.0093 N.ar      1 <0>        -0.5987
     14 C12         1.1067    2.0214    0.0023 C.ar      1 <0>         0.3635
     15 N3          2.2936    1.4540   -0.0124 N.ar      1 <0>        -0.5643
     16 N4         -1.1762   -0.7291    0.0089 N.pl3     1 <0>        -0.8301
     17 C13         4.8254   -0.3439   -0.0444 C.ar      1 <0>         0.1198
     18 C14         5.2714    0.5924   -0.9676 C.ar      1 <0>        -0.0990
     19 C15         6.5970    0.9802   -0.9703 C.ar      1 <0>        -0.1026
     20 C16         7.4824    0.4276   -0.0631 C.ar      1 <0>        -0.1139
     21 C17         7.0425   -0.5097    0.8535 C.ar      1 <0>        -0.1045
     22 C18         5.7168   -0.8967    0.8656 C.ar      1 <0>        -0.1183
     23 H1         -1.4340   -6.3766   -0.0183 H         1 <0>         0.1248
     24 H2          0.3805   -6.1766   -1.6676 H         1 <0>         0.1262
     25 H3          1.8243   -4.1850   -1.6787 H         1 <0>         0.1252
     26 H4         -0.3724   -2.5952    1.6404 H         1 <0>         0.1246
     27 H5         -1.8133   -4.5891    1.6290 H         1 <0>         0.1266
     28 H6          3.6772   -2.9041   -0.0473 H         1 <0>         0.1819
     29 H7          1.0482    3.0998    0.0083 H         1 <0>         0.2016
     30 H8         -2.0294   -0.2679    0.0192 H         1 <0>         0.4080
     31 H9         -1.1490   -1.6987    0.0035 H         1 <0>         0.4124
     32 H10         4.5815    1.0209   -1.6795 H         1 <0>         0.1292
     33 H11         6.9435    1.7123   -1.6847 H         1 <0>         0.1327
     34 H12         8.5195    0.7288   -0.0703 H         1 <0>         0.1301
     35 H13         7.7363   -0.9393    1.5610 H         1 <0>         0.1326
     36 H14         5.3736   -1.6282    1.5822 H         1 <0>         0.1292
@<TRIPOS>BOND
     1    1    6 ar
     2    1    2 ar
     3    1   23 1
     4    2    3 ar
     5    2   24 1
     6    3    4 ar
     7    3   25 1
     8    4    5 ar
     9    4    7 1
    10    5    6 ar
    11    5   26 1
    12    6   27 1
    13    7   11 1
    14    7    8 2
    15    8    9 1
    16    8   28 1
    17    9   10 1
    18    9   17 1
    19   10   15 ar
    20   10   11 ar
    21   11   12 ar
    22   12   13 ar
    23   12   16 1
    24   13   14 ar
    25   14   15 ar
    26   14   29 1
    27   16   30 1
    28   16   31 1
    29   17   22 ar
    30   17   18 ar
    31   18   19 ar
    32   18   32 1
    33   19   20 ar
    34   19   33 1
    35   20   21 ar
    36   20   34 1
    37   21   22 ar
    38   21   35 1
    39   22   36 1
@<TRIPOS>MOLECULE
ZINC08764182
   35    38     0     0     0
SMALL
USER_CHARGES

@<TRIPOS>ATOM
      1 C1         -0.0167    1.3791    0.0096 C.ar      1 <0>        -0.1173
      2 C2          1.1686    2.0924    0.0021 C.ar      1 <0>        -0.1234
      3 C3          2.3774    1.4269   -0.0135 C.ar      1 <0>        -0.1076
      4 C4          2.4026    0.0330   -0.0212 C.ar      1 <0>        -0.0195
      5 C5          1.2048   -0.6804   -0.0131 C.ar      1 <0>        -0.0773
      6 C6          0.0021   -0.0041    0.0020 C.ar      1 <0>        -0.1207
      7 C7          3.6979   -0.6877   -0.0384 C.2       1 <0>        -0.0480
      8 C8          4.7416   -0.4639   -0.8769 C.2       1 <0>         0.0290
      9 N1          5.7580   -1.3310   -0.5807 N.pl3     1 <0>        -0.3817
     10 C9          5.4015   -2.1425    0.4597 C.2       1 <0>         0.2998
     11 C10         4.1079   -1.7799    0.8517 C.2       1 <0>        -0.2612
     12 C11         3.4989   -2.4689    1.9240 C.2       1 <0>         0.5625
     13 N2          4.2015   -3.4535    2.5294 N.am      1 <0>        -0.6502
     14 C12         5.4549   -3.7576    2.1060 C.2       1 <0>         0.3897
     15 N3          6.0261   -3.1360    1.1137 N.2       1 <0>        -0.5226
     16 O1          2.3726   -2.1842    2.2933 O.2       1 <0>        -0.5186
     17 C13         6.9886   -1.3799   -1.2485 C.ar      1 <0>         0.1108
     18 C14         8.1735   -1.3776   -0.5247 C.ar      1 <0>        -0.0974
     19 C15         9.3851   -1.4258   -1.1860 C.ar      1 <0>        -0.1035
     20 C16         9.4189   -1.4763   -2.5675 C.ar      1 <0>        -0.1111
     21 C17         8.2405   -1.4788   -3.2911 C.ar      1 <0>        -0.1045
     22 C18         7.0257   -1.4365   -2.6354 C.ar      1 <0>        -0.1143
     23 H1         -0.9603    1.9042    0.0260 H         1 <0>         0.1211
     24 H2          1.1479    3.1722    0.0082 H         1 <0>         0.1228
     25 H3          3.3021    1.9848   -0.0200 H         1 <0>         0.1211
     26 H4          1.2183   -1.7603   -0.0191 H         1 <0>         0.1191
     27 H5         -0.9264   -0.5557    0.0079 H         1 <0>         0.1222
     28 H6          4.7661    0.2826   -1.6570 H         1 <0>         0.1842
     29 H7          5.9956   -4.5478    2.6056 H         1 <0>         0.2145
     30 H8          8.1478   -1.3377    0.5543 H         1 <0>         0.1300
     31 H9         10.3071   -1.4236   -0.6236 H         1 <0>         0.1335
     32 H10        10.3675   -1.5136   -3.0823 H         1 <0>         0.1310
     33 H11         8.2701   -1.5180   -4.3700 H         1 <0>         0.1337
     34 H12         6.1056   -1.4430   -3.2009 H         1 <0>         0.1310
     35 H13         3.8087   -3.9435    3.2687 H         1 <0>         0.4228
@<TRIPOS>BOND
     1    1    6 ar
     2    1    2 ar
     3    1   23 1
     4    2    3 ar
     5    2   24 1
     6    3    4 ar
     7    3   25 1
     8    4    5 ar
     9    4    7 1
    10    5    6 ar
    11    5   26 1
    12    6   27 1
    13    7   11 1
    14    7    8 2
    15    8    9 1
    16    8   28 1
    17    9   10 1
    18    9   17 1
    19   10   15 1
    20   10   11 2
    21   11   12 1
    22   12   13 am
    23   12   16 2
    24   13   14 1
    25   13   35 1
    26   14   15 2
    27   14   29 1
    28   17   22 ar
    29   17   18 ar
    30   18   19 ar
    31   18   30 1
    32   19   20 ar
    33   19   31 1
    34   20   21 ar
    35   20   32 1
    36   21   22 ar
    37   21   33 1
    38   22   34 1
@<TRIPOS>MOLECULE
ZINC00988362
   45    48     0     0     0
SMALL
USER_CHARGES
7-amino-3,5-dimethyl-N-(1-naphthylmethyleneamino)-9-thia-2-azabicyclo[4.3.0]nona-1,3,5,7-tetraene-8-carboxamide
@<TRIPOS>ATOM
      1 C1         -2.9079    3.3762    1.5945 C.3       1 <0>        -0.1422
      2 C2         -1.5561    2.7625    1.3353 C.ar      1 <0>         0.0296
      3 C3         -1.4390    1.4179    1.0711 C.ar      1 <0>        -0.1907
      4 C4         -0.1935    0.8547    0.8382 C.ar      1 <0>         0.1914
      5 N1          0.8925    1.6029    0.8571 N.ar      1 <0>        -0.4598
      6 C5          0.8320    2.8943    1.1000 C.ar      1 <0>         0.1455
      7 C6         -0.3873    3.5630    1.3548 C.ar      1 <0>        -0.1978
      8 C7         -0.2685    4.9913    1.6037 C.2       1 <0>         0.3150
      9 C8          0.9870    5.5582    1.5714 C.2       1 <0>        -0.3491
     10 S1          2.0535    4.1790    1.2030 S.3       1 <0>         0.1065
     11 C9          1.3443    6.9132    1.7803 C.2       1 <0>         0.6419
     12 O1          0.4832    7.7395    2.0244 O.2       1 <0>        -0.5193
     13 N2          2.6369    7.2880    1.7089 N.am      1 <0>        -0.5823
     14 N3          2.9903    8.6279    1.9154 N.2       1 <0>        -0.2227
     15 C10         4.2366    8.9892    1.8466 C.2       1 <0>         0.1151
     16 C11         4.6075   10.3959    2.0634 C.ar      1 <0>        -0.0510
     17 C12         5.9393   10.7919    2.0301 C.ar      1 <0>        -0.0753
     18 C13         6.2856   12.1212    2.2291 C.ar      1 <0>        -0.1271
     19 C14         5.3494   13.0784    2.4747 C.ar      1 <0>        -0.0828
     20 C15         3.9847   12.7492    2.5283 C.ar      1 <0>        -0.0587
     21 C16         3.5838   11.4060    2.3246 C.ar      1 <0>        -0.0304
     22 C17         2.2247   11.0742    2.3758 C.ar      1 <0>        -0.1121
     23 C18         1.3026   12.0471    2.6231 C.ar      1 <0>        -0.1153
     24 C19         1.6934   13.3690    2.8239 C.ar      1 <0>        -0.1144
     25 C20         3.0063   13.7266    2.7800 C.ar      1 <0>        -0.1125
     26 N4         -1.3913    5.7635    1.8675 N.pl3     1 <0>        -0.8302
     27 C21        -0.0806   -0.6212    0.5554 C.3       1 <0>        -0.1095
     28 H1         -3.2957    3.8046    0.6702 H         1 <0>         0.0904
     29 H2         -3.5926    2.6083    1.9543 H         1 <0>         0.0883
     30 H3         -2.8131    4.1597    2.3463 H         1 <0>         0.0831
     31 H4         -2.3219    0.7963    1.0488 H         1 <0>         0.1477
     32 H5          3.3226    6.6300    1.5145 H         1 <0>         0.3859
     33 H6          5.0001    8.2567    1.6301 H         1 <0>         0.1281
     34 H7          6.7110   10.0599    1.8427 H         1 <0>         0.1316
     35 H8          7.3276   12.4031    2.1935 H         1 <0>         0.1280
     36 H9          5.6588   14.1014    2.6296 H         1 <0>         0.1279
     37 H10         1.9088   10.0529    2.2219 H         1 <0>         0.1742
     38 H11         0.2545   11.7897    2.6631 H         1 <0>         0.1225
     39 H12         0.9434   14.1217    3.0171 H         1 <0>         0.1217
     40 H13         3.2944   14.7555    2.9373 H         1 <0>         0.1269
     41 H14        -2.2745    5.4240    1.6538 H         1 <0>         0.4025
     42 H15        -1.2928    6.6425    2.2654 H         1 <0>         0.4208
     43 H16         0.0561   -1.1613    1.4923 H         1 <0>         0.0891
     44 H17        -0.9905   -0.9680    0.0655 H         1 <0>         0.0843
     45 H18         0.7744   -0.8020   -0.0962 H         1 <0>         0.0853
@<TRIPOS>BOND
     1    1    2 1
     2    1   28 1
     3    1   29 1
     4    1   30 1
     5    2    7 ar
     6    2    3 ar
     7    3    4 ar
     8    3   31 1
     9    4    5 ar
    10    4   27 1
    11    5    6 ar
    12    6   10 1
    13    6    7 ar
    14    7    8 1
    15    8    9 2
    16    8   26 1
    17    9   10 1
    18    9   11 1
    19   11   12 2
    20   11   13 am
    21   13   14 1
    22   13   32 1
    23   14   15 2
    24   15   16 1
    25   15   33 1
    26   16   21 ar
    27   16   17 ar
    28   17   18 ar
    29   17   34 1
    30   18   19 ar
    31   18   35 1
    32   19   20 ar
    33   19   36 1
    34   20   25 ar
    35   20   21 ar
    36   21   22 ar
    37   22   23 ar
    38   22   37 1
    39   23   24 ar
    40   23   38 1
    41   24   25 ar
    42   24   39 1
    43   25   40 1
    44   26   41 1
    45   26   42 1
    46   27   43 1
    47   27   44 1
    48   27   45 1
@<TRIPOS>MOLECULE
ZINC01609268
   40    43     0     0     0
SMALL
USER_CHARGES
7-(4-methoxyphenyl)-9-phenyl-2,4,9-triazabicyclo[4.3.0]nona-1,3,5,7-tetraen-5-amine
@<TRIPOS>ATOM
      1 C1         -2.6307   -6.6583    0.9712 C.3       1 <0>         0.0252
      2 O1         -1.5977   -6.6056   -0.0148 O.3       1 <0>        -0.3158
      3 C2         -0.8031   -5.5028   -0.0177 C.ar      1 <0>         0.1292
      4 C3          0.2194   -5.3885   -0.9494 C.ar      1 <0>        -0.1432
      5 C4          1.0281   -4.2712   -0.9546 C.ar      1 <0>        -0.0662
      6 C5          0.8172   -3.2556   -0.0228 C.ar      1 <0>        -0.0504
      7 C6         -0.2077   -3.3758    0.9148 C.ar      1 <0>        -0.0839
      8 C7         -1.0158   -4.4936    0.9113 C.ar      1 <0>        -0.2017
      9 C8          1.6848   -2.0534   -0.0251 C.2       1 <0>        -0.0869
     10 C9          3.0402   -2.0322   -0.0379 C.2       1 <0>         0.0571
     11 N1          3.4801   -0.7341   -0.0351 N.pl3     1 <0>        -0.4090
     12 C10         2.4136    0.1274   -0.0203 C.ar      1 <0>         0.3514
     13 C11         1.2440   -0.6525   -0.0133 C.ar      1 <0>        -0.2518
     14 C12         0.0021   -0.0041    0.0020 C.ar      1 <0>         0.4942
     15 N2         -0.0160    1.3262    0.0093 N.ar      1 <0>        -0.5991
     16 C13         1.1068    2.0215    0.0023 C.ar      1 <0>         0.3631
     17 N3          2.2937    1.4541   -0.0120 N.ar      1 <0>        -0.5643
     18 N4         -1.1762   -0.7291    0.0089 N.pl3     1 <0>        -0.8306
     19 C14         4.8253   -0.3438   -0.0458 C.ar      1 <0>         0.1205
     20 C15         5.2708    0.5925   -0.9694 C.ar      1 <0>        -0.0992
     21 C16         6.5967    0.9791   -0.9740 C.ar      1 <0>        -0.1027
     22 C17         7.4827    0.4266   -0.0674 C.ar      1 <0>        -0.1141
     23 C18         7.0434   -0.5103    0.8499 C.ar      1 <0>        -0.1046
     24 C19         5.7175   -0.8968    0.8633 C.ar      1 <0>        -0.1184
     25 H1         -2.1864   -6.6147    1.9656 H         1 <0>         0.0571
     26 H2         -3.3046   -5.8121    0.8369 H         1 <0>         0.0569
     27 H3         -3.1890   -7.5882    0.8631 H         1 <0>         0.1022
     28 H4          0.3822   -6.1755   -1.6709 H         1 <0>         0.1354
     29 H5          1.8239   -4.1832   -1.6793 H         1 <0>         0.1334
     30 H6         -0.3709   -2.5930    1.6407 H         1 <0>         0.1279
     31 H7         -1.8125   -4.5855    1.6347 H         1 <0>         0.1325
     32 H8          3.6763   -2.9049   -0.0481 H         1 <0>         0.1818
     33 H9          1.0482    3.0998    0.0087 H         1 <0>         0.2011
     34 H10        -2.0294   -0.2678    0.0192 H         1 <0>         0.4077
     35 H11        -1.1490   -1.6987    0.0035 H         1 <0>         0.4118
     36 H12         4.5802    1.0214   -1.6805 H         1 <0>         0.1292
     37 H13         6.9428    1.7107   -1.6892 H         1 <0>         0.1325
     38 H14         8.5198    0.7278   -0.0755 H         1 <0>         0.1299
     39 H15         7.7377   -0.9401    1.5567 H         1 <0>         0.1324
     40 H16         5.3748   -1.6281    1.5804 H         1 <0>         0.1292
@<TRIPOS>BOND
     1    1    2 1
     2    1   25 1
     3    1   26 1
     4    1   27 1
     5    2    3 1
     6    3    8 ar
     7    3    4 ar
     8    4    5 ar
     9    4   28 1
    10    5    6 ar
    11    5   29 1
    12    6    7 ar
    13    6    9 1
    14    7    8 ar
    15    7   30 1
    16    8   31 1
    17    9   13 1
    18    9   10 2
    19   10   11 1
    20   10   32 1
    21   11   12 1
    22   11   19 1
    23   12   17 ar
    24   12   13 ar
    25   13   14 ar
    26   14   15 ar
    27   14   18 1
    28   15   16 ar
    29   16   17 ar
    30   16   33 1
    31   18   34 1
    32   18   35 1
    33   19   24 ar
    34   19   20 ar
    35   20   21 ar
    36   20   36 1
    37   21   22 ar
    38   21   37 1
    39   22   23 ar
    40   22   38 1
    41   23   24 ar
    42   23   39 1
    43   24   40 1
@<TRIPOS>MOLECULE
ZINC71295347
   54    55     0     0     0
SMALL
USER_CHARGES

@<TRIPOS>ATOM
      1 C1          0.0148    1.5031    0.0101 C.3       1 <0>        -0.1266
      2 C2          0.0185   -0.0039    0.0019 C.ar      1 <0>         0.0879
      3 C3          0.0221   -0.7031   -1.1870 C.ar      1 <0>        -0.2800
      4 C4          0.0255   -2.0965   -1.1625 C.ar      1 <0>         0.4773
      5 N1          0.0252   -2.7599   -0.0150 N.ar      1 <0>        -0.5765
      6 C5          0.0218   -2.1331    1.1502 C.ar      1 <0>         0.4975
      7 C6          0.0242   -0.7280    1.2029 C.ar      1 <0>        -0.2076
      8 C7          0.0267   -0.0473    2.4628 C.1       1 <0>         0.2671
      9 N2          0.0286    0.4927    3.4622 N.1       1 <0>        -0.4332
     10 N3          0.0217   -2.8650    2.3245 N.pl3     1 <0>        -0.7022
     11 C8          0.0253   -4.3291    2.2750 C.3       1 <0>         0.1452
     12 H1         -0.5619   -4.6653    1.4205 H         1 <0>         0.0976
     13 C9          1.4638   -4.8311    2.1345 C.3       1 <0>        -0.1681
     14 C10        -0.5851   -4.8844    3.5634 C.3       1 <0>        -0.1309
     15 C11        -2.0601   -4.4857    3.6421 C.3       1 <0>        -0.1173
     16 C12        -2.6705   -5.0410    4.9305 C.3       1 <0>        -0.1448
     17 C13        -4.1455   -4.6423    5.0092 C.3       1 <0>         0.1248
     18 C14        -4.8933   -5.2139    3.8030 C.3       1 <0>        -0.1420
     19 C15        -4.7559   -5.1976    6.2976 C.3       1 <0>        -0.1801
     20 O1         -4.2546   -3.2175    5.0060 O.3       1 <0>        -0.5583
     21 N4          0.0286   -2.7997   -2.3569 N.pl3     1 <0>        -0.6143
     22 C16         0.1533   -4.1945   -2.3480 C.2       1 <0>         0.3113
     23 C17         0.1830   -5.0128   -1.2071 C.2       1 <0>        -0.2720
     24 C18         0.3131   -6.2943   -1.6190 C.2       1 <0>         0.0884
     25 N5          0.3642   -6.2926   -2.9677 N.pl3     1 <0>        -0.4707
     26 H2          0.4555   -7.0738   -3.5354 H         1 <0>         0.4386
     27 N6          0.2570   -4.9661   -3.4045 N.2       1 <0>        -0.3301
     28 C19         0.3885   -7.5087   -0.7298 C.3       1 <0>        -0.0946
     29 H3          1.0416    1.8690    0.0088 H         1 <0>         0.0872
     30 H4         -0.5028    1.8700   -0.8762 H         1 <0>         0.0832
     31 H5         -0.4970    1.8603    0.9037 H         1 <0>         0.0723
     32 H6          0.0220   -0.1752   -2.1292 H         1 <0>         0.1427
     33 H7          0.0192   -2.4086    3.1804 H         1 <0>         0.4096
     34 H8          1.4665   -5.9205    2.0977 H         1 <0>         0.0662
     35 H9          1.8986   -4.4355    1.2166 H         1 <0>         0.0664
     36 H10         2.0510   -4.4950    2.9890 H         1 <0>         0.0558
     37 H11        -0.5018   -5.9712    3.5659 H         1 <0>         0.0808
     38 H12        -0.0523   -4.4773    4.4228 H         1 <0>         0.0663
     39 H13        -2.1433   -3.3989    3.6397 H         1 <0>         0.0694
     40 H14        -2.5929   -4.8929    2.7828 H         1 <0>         0.0678
     41 H15        -2.5872   -6.1279    4.9330 H         1 <0>         0.0715
     42 H16        -2.1377   -4.6339    5.7899 H         1 <0>         0.0633
     43 H17        -4.8101   -6.3007    3.8055 H         1 <0>         0.0687
     44 H18        -5.9442   -4.9298    3.8591 H         1 <0>         0.0607
     45 H19        -4.4585   -4.8183    2.8851 H         1 <0>         0.0659
     46 H20        -4.2231   -4.7905    7.1570 H         1 <0>         0.0572
     47 H21        -5.8067   -4.9136    6.3537 H         1 <0>         0.0636
     48 H22        -4.6726   -6.2845    6.3001 H         1 <0>         0.0653
     49 H23        -3.8028   -2.7868    5.7445 H         1 <0>         0.3742
     50 H24        -0.0555   -2.3257   -3.1990 H         1 <0>         0.4273
     51 H25         0.1142   -4.6781   -0.1826 H         1 <0>         0.1894
     52 H26        -0.6162   -7.8930   -0.5537 H         1 <0>         0.0813
     53 H27         0.9916   -8.2767   -1.2141 H         1 <0>         0.0712
     54 H28         0.8446   -7.2347    0.2215 H         1 <0>         0.0864
@<TRIPOS>BOND
     1    1    2 1
     2    1   29 1
     3    1   30 1
     4    1   31 1
     5    2    7 ar
     6    2    3 ar
     7    3    4 ar
     8    3   32 1
     9    4    5 ar
    10    4   21 1
    11    5    6 ar
    12    6    7 ar
    13    6   10 1
    14    7    8 1
    15    8    9 3
    16   10   11 1
    17   10   33 1
    18   11   12 1
    19   11   13 1
    20   11   14 1
    21   13   34 1
    22   13   35 1
    23   13   36 1
    24   14   15 1
    25   14   37 1
    26   14   38 1
    27   15   16 1
    28   15   39 1
    29   15   40 1
    30   16   17 1
    31   16   41 1
    32   16   42 1
    33   17   18 1
    34   17   19 1
    35   17   20 1
    36   18   43 1
    37   18   44 1
    38   18   45 1
    39   19   46 1
    40   19   47 1
    41   19   48 1
    42   20   49 1
    43   21   22 1
    44   21   50 1
    45   22   27 2
    46   22   23 1
    47   23   24 2
    48   23   51 1
    49   24   25 1
    50   24   28 1
    51   25   26 1
    52   25   27 1
    53   28   52 1
    54   28   53 1
    55   28   54 1
@<TRIPOS>MOLECULE
ZINC71295348
   54    55     0     0     0
SMALL
USER_CHARGES

@<TRIPOS>ATOM
      1 C1         -0.3671    1.4684    0.0397 C.3       1 <0>        -0.1266
      2 C2         -0.1037   -0.0151    0.0115 C.ar      1 <0>         0.0878
      3 C3         -0.1614   -0.7197   -1.1728 C.ar      1 <0>        -0.2799
      4 C4          0.0869   -2.0910   -1.1671 C.ar      1 <0>         0.4773
      5 N1          0.3775   -2.7284   -0.0418 N.ar      1 <0>        -0.5759
      6 C5          0.4443   -2.0954    1.1180 C.ar      1 <0>         0.4975
      7 C6          0.2114   -0.7105    1.1880 C.ar      1 <0>        -0.2087
      8 C7          0.2890   -0.0221    2.4413 C.1       1 <0>         0.2670
      9 N2          0.3506    0.5240    3.4355 N.1       1 <0>        -0.4336
     10 N3          0.7510   -2.7997    2.2689 N.pl3     1 <0>        -0.7028
     11 C8          1.0005   -4.2417    2.2005 C.3       1 <0>         0.1454
     12 H1          1.5031   -4.4794    1.2630 H         1 <0>         0.0988
     13 C9         -0.3302   -4.9935    2.2707 C.3       1 <0>        -0.1694
     14 C10         1.8864   -4.6623    3.3749 C.3       1 <0>        -0.1305
     15 C11         3.2618   -4.0065    3.2367 C.3       1 <0>        -0.1168
     16 C12         4.1477   -4.4270    4.4111 C.3       1 <0>        -0.1447
     17 C13         5.5231   -3.7712    4.2728 C.3       1 <0>         0.1255
     18 C14         5.3648   -2.2494    4.2727 C.3       1 <0>        -0.1423
     19 C15         6.4089   -4.1918    5.4473 C.3       1 <0>        -0.1799
     20 O1          6.1281   -4.1873    3.0469 O.3       1 <0>        -0.5582
     21 N4          0.0286   -2.7997   -2.3569 N.pl3     1 <0>        -0.6147
     22 C16         0.1533   -4.1945   -2.3480 C.2       1 <0>         0.3120
     23 C17         0.1830   -5.0128   -1.2071 C.2       1 <0>        -0.2693
     24 C18         0.3131   -6.2943   -1.6190 C.2       1 <0>         0.0893
     25 N5          0.3642   -6.2926   -2.9677 N.pl3     1 <0>        -0.4705
     26 H2          0.4555   -7.0738   -3.5354 H         1 <0>         0.4389
     27 N6          0.2570   -4.9661   -3.4045 N.2       1 <0>        -0.3293
     28 C19         0.3885   -7.5087   -0.7298 C.3       1 <0>        -0.0943
     29 H3          0.5683    2.0064   -0.1144 H         1 <0>         0.0874
     30 H4         -1.0701    1.7277   -0.7519 H         1 <0>         0.0831
     31 H5         -0.7898    1.7441    1.0058 H         1 <0>         0.0720
     32 H6         -0.3974   -0.2130   -2.0969 H         1 <0>         0.1427
     33 H7          0.8008   -2.3388    3.1209 H         1 <0>         0.4090
     34 H8         -0.9614   -4.6939    1.4340 H         1 <0>         0.0662
     35 H9         -0.1446   -6.0663    2.2199 H         1 <0>         0.0671
     36 H10        -0.8328   -4.7557    3.2083 H         1 <0>         0.0564
     37 H11         1.4249   -4.3449    4.3100 H         1 <0>         0.0662
     38 H12         1.9991   -5.7464    3.3750 H         1 <0>         0.0803
     39 H13         3.7233   -4.3239    2.3016 H         1 <0>         0.0711
     40 H14         3.1490   -2.9223    3.2366 H         1 <0>         0.0653
     41 H15         3.6862   -4.1096    5.3462 H         1 <0>         0.0701
     42 H16         4.2604   -5.5112    4.4112 H         1 <0>         0.0649
     43 H17         4.9033   -1.9321    5.2078 H         1 <0>         0.0682
     44 H18         6.3447   -1.7823    4.1742 H         1 <0>         0.0611
     45 H19         4.7337   -1.9499    3.4360 H         1 <0>         0.0651
     46 H20         6.5217   -5.2759    5.4473 H         1 <0>         0.0576
     47 H21         7.3888   -3.7246    5.3488 H         1 <0>         0.0637
     48 H22         5.9475   -3.8744    6.3824 H         1 <0>         0.0652
     49 H23         6.2593   -5.1429    2.9775 H         1 <0>         0.3739
     50 H24        -0.0985   -2.3295   -3.1958 H         1 <0>         0.4273
     51 H25         0.1142   -4.6781   -0.1826 H         1 <0>         0.1852
     52 H26        -0.6162   -7.8930   -0.5537 H         1 <0>         0.0811
     53 H27         0.9916   -8.2767   -1.2141 H         1 <0>         0.0714
     54 H28         0.8446   -7.2347    0.2215 H         1 <0>         0.0863
@<TRIPOS>BOND
     1    1    2 1
     2    1   29 1
     3    1   30 1
     4    1   31 1
     5    2    7 ar
     6    2    3 ar
     7    3    4 ar
     8    3   32 1
     9    4    5 ar
    10    4   21 1
    11    5    6 ar
    12    6    7 ar
    13    6   10 1
    14    7    8 1
    15    8    9 3
    16   10   11 1
    17   10   33 1
    18   11   12 1
    19   11   13 1
    20   11   14 1
    21   13   34 1
    22   13   35 1
    23   13   36 1
    24   14   15 1
    25   14   37 1
    26   14   38 1
    27   15   16 1
    28   15   39 1
    29   15   40 1
    30   16   17 1
    31   16   41 1
    32   16   42 1
    33   17   18 1
    34   17   19 1
    35   17   20 1
    36   18   43 1
    37   18   44 1
    38   18   45 1
    39   19   46 1
    40   19   47 1
    41   19   48 1
    42   20   49 1
    43   21   22 1
    44   21   50 1
    45   22   27 2
    46   22   23 1
    47   23   24 2
    48   23   51 1
    49   24   25 1
    50   24   28 1
    51   25   26 1
    52   25   27 1
    53   28   52 1
    54   28   53 1
    55   28   54 1
@<TRIPOS>MOLECULE
ZINC13647791
   43    46     0     0     0
SMALL
USER_CHARGES

@<TRIPOS>ATOM
      1 C1         -0.0166    1.3699    0.0096 C.ar      1 <0>        -0.0800
      2 C2          1.1572    2.1045    0.0023 C.ar      1 <0>        -0.1190
      3 C3          2.3694    1.4373   -0.0129 C.ar      1 <0>        -0.0394
      4 C4          2.3887    0.0627   -0.0205 C.ar      1 <0>        -0.1883
      5 C5          1.2179   -0.7095   -0.0134 C.ar      1 <0>         0.1191
      6 C6          0.0021   -0.0041    0.0020 C.ar      1 <0>        -0.1207
      7 N1          1.3955   -2.0811   -0.0225 N.pl3     1 <0>        -0.6290
      8 C7          2.6545   -2.6113   -0.0374 C.2       1 <0>         0.2414
      9 C8          3.0385   -3.9533   -0.0487 C.2       1 <0>        -0.1370
     10 C9          2.0433   -4.9829   -0.0452 C.1       1 <0>         0.2720
     11 N2          1.2537   -5.7996   -0.0424 N.1       1 <0>        -0.4249
     12 C10         4.4680   -4.3104   -0.0642 C.ar      1 <0>         0.3088
     13 C11         4.8666   -5.6555   -0.0815 C.ar      1 <0>        -0.2844
     14 C12         6.2058   -5.9409   -0.0954 C.ar      1 <0>         0.2007
     15 N3          7.0848   -4.9482   -0.0923 N.ar      1 <0>        -0.5794
     16 C13         6.6886   -3.6836   -0.0759 C.ar      1 <0>         0.5826
     17 N4          5.4049   -3.3593   -0.0676 N.ar      1 <0>        -0.5825
     18 N5          7.6395   -2.6778   -0.0728 N.pl3     1 <0>        -0.7005
     19 C14         9.0646   -3.0170   -0.0875 C.3       1 <0>         0.1450
     20 C15         9.8948   -1.7318   -0.0805 C.3       1 <0>        -0.0888
     21 C16        11.3608   -2.0808   -0.0957 C.ar      1 <0>        -0.1340
     22 C17        12.0518   -2.2615    1.0929 C.ar      1 <0>        -0.0689
     23 C18        13.3992   -2.5815    1.0307 C.ar      1 <0>        -0.1701
     24 C19        14.0048   -2.7089   -0.2053 C.ar      1 <0>         0.0971
     25 N6         13.3163   -2.5294   -1.3154 N.ar      1 <0>        -0.4833
     26 C20        12.0320   -2.2302   -1.2943 C.ar      1 <0>         0.1060
     27 S1          3.6842   -1.1528   -0.0394 S.3       1 <0>         0.1837
     28 H1         -0.9648    1.8866    0.0260 H         1 <0>         0.1374
     29 H2          1.1270    3.1841    0.0081 H         1 <0>         0.1413
     30 H3          3.2952    1.9934   -0.0191 H         1 <0>         0.1400
     31 H4         -0.9301   -0.5494    0.0080 H         1 <0>         0.1308
     32 H5          0.6237   -2.6686   -0.0180 H         1 <0>         0.4164
     33 H6          4.1333   -6.4484   -0.0833 H         1 <0>         0.1381
     34 H7          6.5434   -6.9667   -0.1085 H         1 <0>         0.1667
     35 H8          7.3622   -1.7483   -0.0608 H         1 <0>         0.4130
     36 H9          9.3060   -3.6103    0.7944 H         1 <0>         0.0692
     37 H10         9.2920   -3.5916   -0.9854 H         1 <0>         0.0705
     38 H11         9.6534   -1.1385   -0.9624 H         1 <0>         0.0847
     39 H12         9.6674   -1.1572    0.8174 H         1 <0>         0.0829
     40 H13        11.5523   -2.1551    2.0445 H         1 <0>         0.1348
     41 H14        13.9686   -2.7291    1.9364 H         1 <0>         0.1364
     42 H15        15.0542   -2.9580   -0.2624 H         1 <0>         0.1564
     43 H16        11.4998   -2.0959   -2.2244 H         1 <0>         0.1551
@<TRIPOS>BOND
     1    1    6 ar
     2    1    2 ar
     3    1   28 1
     4    2    3 ar
     5    2   29 1
     6    3    4 ar
     7    3   30 1
     8    4   27 1
     9    4    5 ar
    10    5    6 ar
    11    5    7 1
    12    6   31 1
    13    7    8 1
    14    7   32 1
    15    8    9 2
    16    8   27 1
    17    9   10 1
    18    9   12 1
    19   10   11 3
    20   12   17 ar
    21   12   13 ar
    22   13   14 ar
    23   13   33 1
    24   14   15 ar
    25   14   34 1
    26   15   16 ar
    27   16   17 ar
    28   16   18 1
    29   18   19 1
    30   18   35 1
    31   19   20 1
    32   19   36 1
    33   19   37 1
    34   20   21 1
    35   20   38 1
    36   20   39 1
    37   21   26 ar
    38   21   22 ar
    39   22   23 ar
    40   22   40 1
    41   23   24 ar
    42   23   41 1
    43   24   25 ar
    44   24   42 1
    45   25   26 ar
    46   26   43 1
@<TRIPOS>MOLECULE
ZINC72105034
   70    73     0     0     0
SMALL
USER_CHARGES

@<TRIPOS>ATOM
      1 C1         -3.0465   -3.1127   14.8741 C.3       1 <0>        -0.1892
      2 C2         -3.2466   -2.2549   13.6230 C.3       1 <0>        -0.0108
      3 N1         -4.1264   -2.9600   12.6814 N.4       1 <0>        -0.3829
      4 C3         -3.4647   -4.1874   12.2214 C.3       1 <0>        -0.0274
      5 C4         -4.4254   -4.9810   11.3297 C.3       1 <0>         0.1010
      6 N2         -4.8919   -4.1005   10.2474 N.pl3     1 <0>        -0.6456
      7 C5         -5.4217   -2.7770   10.6103 C.3       1 <0>         0.1015
      8 C6         -4.4140   -2.0875   11.5359 C.3       1 <0>        -0.0220
      9 C7         -4.8337   -4.5106    8.9106 C.ar      1 <0>         0.1766
     10 C8         -4.2262   -5.7148    8.5795 C.ar      1 <0>        -0.1629
     11 C9         -4.1692   -6.1195    7.2606 C.ar      1 <0>        -0.0646
     12 C10        -4.7193   -5.3226    6.2653 C.ar      1 <0>         0.1310
     13 C11        -5.3268   -4.1185    6.5964 C.ar      1 <0>        -0.1041
     14 C12        -5.3885   -3.7162    7.9158 C.ar      1 <0>        -0.1629
     15 N3         -4.6611   -5.7330    4.9274 N.pl3     1 <0>        -0.6533
     16 C13        -4.7431   -7.0808    4.6114 C.ar      1 <0>         0.4484
     17 C14        -4.5642   -7.5111    3.2990 C.ar      1 <0>        -0.3232
     18 C15        -4.6563   -8.8727    3.0342 C.ar      1 <0>         0.4562
     19 N4         -4.9104   -9.7105    4.0371 N.ar      1 <0>        -0.5358
     20 C16        -5.0737   -9.2649    5.2660 C.ar      1 <0>         0.3663
     21 N5         -4.9887   -7.9832    5.5591 N.ar      1 <0>        -0.5884
     22 N6         -4.4859   -9.3527    1.7400 N.am      1 <0>        -0.5513
     23 C17        -4.0993   -8.4367    0.6640 C.3       1 <0>         0.0633
     24 C18        -4.6764  -10.6605    1.4758 C.2       1 <0>         0.6965
     25 O1         -4.9972  -11.4206    2.3688 O.2       1 <0>        -0.4771
     26 N7         -4.5113  -11.1256    0.2217 N.am      1 <0>        -0.6806
     27 C19        -4.5933  -12.5005   -0.0317 C.ar      1 <0>         0.2488
     28 C20        -3.5635  -13.1459   -0.7035 C.ar      1 <0>        -0.1156
     29 C21        -3.6457  -14.5077   -0.9540 C.ar      1 <0>         0.1985
     30 C22        -4.7561  -15.2246   -0.5342 C.ar      1 <0>        -0.2856
     31 C23        -5.7851  -14.5810    0.1368 C.ar      1 <0>         0.1981
     32 C24        -5.7020  -13.2205    0.3937 C.ar      1 <0>        -0.0913
     33 Cl1        -6.9867  -12.4166    1.2405 Cl        1 <0>        -0.0174
     34 O2         -6.8731  -15.2849    0.5478 O.3       1 <0>        -0.2934
     35 C25        -6.8895  -16.6834    0.2548 C.3       1 <0>         0.0217
     36 O3         -2.6377  -15.1397   -1.6116 O.3       1 <0>        -0.2949
     37 C26        -2.7887  -16.5430   -1.8355 C.3       1 <0>         0.0219
     38 Cl2        -2.1738  -12.2486   -1.2302 Cl        1 <0>        -0.0383
     39 H1         -2.3937   -2.5895   15.5727 H         1 <0>         0.1068
     40 H2         -4.0114   -3.2967   15.3466 H         1 <0>         0.0809
     41 H3         -2.5919   -4.0630   14.5941 H         1 <0>         0.0805
     42 H4         -3.7012   -1.3046   13.9030 H         1 <0>         0.1310
     43 H5         -2.2817   -2.0709   13.1505 H         1 <0>         0.1281
     44 H6         -2.5717   -3.9277   11.6528 H         1 <0>         0.1321
     45 H7         -3.1838   -4.7935   13.0827 H         1 <0>         0.1410
     46 H8         -3.9058   -5.8399   10.9049 H         1 <0>         0.1268
     47 H9         -5.2773   -5.3195   11.9194 H         1 <0>         0.0863
     48 H10        -5.5608   -2.1788    9.7098 H         1 <0>         0.1256
     49 H11        -6.3742   -2.8930   11.1273 H         1 <0>         0.0858
     50 H12        -4.8326   -1.1462   11.8921 H         1 <0>         0.1394
     51 H13        -3.4923   -1.8913   10.9881 H         1 <0>         0.1318
     52 H14        -3.7980   -6.3344    9.3535 H         1 <0>         0.1245
     53 H15        -3.6964   -7.0558    7.0031 H         1 <0>         0.1406
     54 H16        -5.7546   -3.4987    5.8223 H         1 <0>         0.1287
     55 H17        -5.8648   -2.7819    8.1738 H         1 <0>         0.1249
     56 H18        -4.5634   -5.0745    4.2219 H         1 <0>         0.4207
     57 H19        -4.3595   -6.8053    2.5076 H         1 <0>         0.1461
     58 H20        -5.2787   -9.9712    6.0569 H         1 <0>         0.2006
     59 H21        -3.0123   -8.3941    0.5961 H         1 <0>         0.0784
     60 H22        -4.5087   -8.7932   -0.2812 H         1 <0>         0.0834
     61 H23        -4.4893   -7.4413    0.8765 H         1 <0>         0.0916
     62 H24        -4.3356  -10.5081   -0.5055 H         1 <0>         0.4126
     63 H25        -4.8197  -16.2847   -0.7302 H         1 <0>         0.1546
     64 H26        -7.8108  -17.1238    0.6364 H         1 <0>         0.1096
     65 H27        -6.8368  -16.8293   -0.8241 H         1 <0>         0.0610
     66 H28        -6.0336  -17.1640    0.7287 H         1 <0>         0.0609
     67 H29        -3.6841  -16.7217   -2.4308 H         1 <0>         0.0613
     68 H30        -1.9165  -16.9218   -2.3683 H         1 <0>         0.1099
     69 H31        -2.8806  -17.0558   -0.8781 H         1 <0>         0.0610
     70 H32        -4.9899   -3.1998   13.1451 H         1 <0>         0.4221
@<TRIPOS>BOND
     1    1    2 1
     2    1   39 1
     3    1   40 1
     4    1   41 1
     5    2    3 1
     6    2   42 1
     7    2   43 1
     8    3    8 1
     9    3    4 1
    10    3   70 1
    11    4    5 1
    12    4   44 1
    13    4   45 1
    14    5    6 1
    15    5   46 1
    16    5   47 1
    17    6    7 1
    18    6    9 1
    19    7    8 1
    20    7   48 1
    21    7   49 1
    22    8   50 1
    23    8   51 1
    24    9   14 ar
    25    9   10 ar
    26   10   11 ar
    27   10   52 1
    28   11   12 ar
    29   11   53 1
    30   12   13 ar
    31   12   15 1
    32   13   14 ar
    33   13   54 1
    34   14   55 1
    35   15   16 1
    36   15   56 1
    37   16   21 ar
    38   16   17 ar
    39   17   18 ar
    40   17   57 1
    41   18   19 ar
    42   18   22 1
    43   19   20 ar
    44   20   21 ar
    45   20   58 1
    46   22   23 1
    47   22   24 am
    48   23   59 1
    49   23   60 1
    50   23   61 1
    51   24   25 2
    52   24   26 am
    53   26   27 1
    54   26   62 1
    55   27   32 ar
    56   27   28 ar
    57   28   29 ar
    58   28   38 1
    59   29   30 ar
    60   29   36 1
    61   30   31 ar
    62   30   63 1
    63   31   32 ar
    64   31   34 1
    65   32   33 1
    66   34   35 1
    67   35   64 1
    68   35   65 1
    69   35   66 1
    70   36   37 1
    71   37   67 1
    72   37   68 1
    73   37   69 1
@<TRIPOS>MOLECULE
ZINC72105034
   69    72     0     0     0
SMALL
USER_CHARGES

@<TRIPOS>ATOM
      1 C1         -3.4378   -3.9375   14.6684 C.3       1 <0>        -0.1502
      2 C2         -3.5006   -3.0159   13.4488 C.3       1 <0>         0.0503
      3 N1         -4.3406   -3.6313   12.4127 N.3       1 <0>        -0.5378
      4 C3         -3.7251   -4.8621   11.8984 C.3       1 <0>         0.0363
      5 C4         -4.7086   -5.5666   10.9578 C.3       1 <0>         0.1266
      6 N2         -5.1378   -4.6085    9.9278 N.pl3     1 <0>        -0.6321
      7 C5         -5.6391   -3.2963   10.3636 C.3       1 <0>         0.1276
      8 C6         -4.6190   -2.6811   11.3275 C.3       1 <0>         0.0396
      9 C7         -5.0714   -4.9369    8.5689 C.ar      1 <0>         0.2080
     10 C8         -4.4894   -6.1336    8.1714 C.ar      1 <0>        -0.1806
     11 C9         -4.4244   -6.4578    6.8309 C.ar      1 <0>        -0.0579
     12 C10        -4.9408   -5.5873    5.8801 C.ar      1 <0>         0.0956
     13 C11        -5.5227   -4.3907    6.2776 C.ar      1 <0>        -0.0967
     14 C12        -5.5926   -4.0689    7.6185 C.ar      1 <0>        -0.1814
     15 N3         -4.8743   -5.9160    4.5202 N.pl3     1 <0>        -0.6480
     16 C13        -4.9857   -7.2392    4.1204 C.ar      1 <0>         0.4532
     17 C14        -4.7996   -7.5924    2.7862 C.ar      1 <0>        -0.3285
     18 C15        -4.9221   -8.9324    2.4366 C.ar      1 <0>         0.4515
     19 N4         -5.2108   -9.8235    3.3827 N.ar      1 <0>        -0.5423
     20 C16        -5.3796   -9.4503    4.6347 C.ar      1 <0>         0.3655
     21 N5         -5.2667   -8.1917    5.0075 N.ar      1 <0>        -0.5828
     22 N6         -4.7461   -9.3361    1.1173 N.am      1 <0>        -0.5515
     23 C17        -4.3221   -8.3659    0.1048 C.3       1 <0>         0.0649
     24 C18        -4.9656  -10.6198    0.7705 C.2       1 <0>         0.6963
     25 O1         -5.3174  -11.4249    1.6108 O.2       1 <0>        -0.4774
     26 N7         -4.7950  -11.0110   -0.5080 N.am      1 <0>        -0.6824
     27 C19        -4.9079  -12.3651   -0.8468 C.ar      1 <0>         0.2515
     28 C20        -3.8855  -12.9943   -1.5448 C.ar      1 <0>        -0.1156
     29 C21        -3.9983  -14.3355   -1.8800 C.ar      1 <0>         0.1969
     30 C22        -5.1319  -15.0480   -1.5188 C.ar      1 <0>        -0.2867
     31 C23        -6.1535  -14.4206   -0.8218 C.ar      1 <0>         0.1972
     32 C24        -6.0399  -13.0811   -0.4802 C.ar      1 <0>        -0.0912
     33 Cl1        -7.3156  -12.2980    0.3991 Cl        1 <0>        -0.0151
     34 O2         -7.2642  -15.1202   -0.4683 O.3       1 <0>        -0.2933
     35 C25        -7.3116  -16.4972   -0.8473 C.3       1 <0>         0.0224
     36 O3         -2.9975  -14.9516   -2.5633 O.3       1 <0>        -0.2955
     37 C26        -3.1804  -16.3341   -2.8753 C.3       1 <0>         0.0225
     38 Cl2        -2.4668  -12.1023   -1.9981 Cl        1 <0>        -0.0388
     39 H1         -2.8146   -3.4808   15.4373 H         1 <0>         0.0601
     40 H2         -4.4435   -4.0912   15.0599 H         1 <0>         0.0642
     41 H3         -3.0108   -4.8971   14.3771 H         1 <0>         0.0548
     42 H4         -3.9276   -2.0563   13.7401 H         1 <0>         0.0754
     43 H5         -2.4950   -2.8622   13.0574 H         1 <0>         0.0324
     44 H6         -2.8150   -4.6131   11.3528 H         1 <0>         0.0373
     45 H7         -3.4816   -5.5223   12.7308 H         1 <0>         0.0881
     46 H8         -4.2176   -6.4171   10.4850 H         1 <0>         0.0867
     47 H9         -5.5752   -5.9086   11.5236 H         1 <0>         0.0692
     48 H10        -5.7633   -2.6458    9.4978 H         1 <0>         0.0853
     49 H11        -6.5952   -3.4200   10.8723 H         1 <0>         0.0688
     50 H12        -5.0237   -1.7596   11.7460 H         1 <0>         0.0847
     51 H13        -3.6964   -2.4625   10.7899 H         1 <0>         0.0375
     52 H14        -4.0875   -6.8104    8.9108 H         1 <0>         0.1239
     53 H15        -3.9715   -7.3882    6.5217 H         1 <0>         0.1333
     54 H16        -5.9244   -3.7138    5.5381 H         1 <0>         0.1213
     55 H17        -6.0491   -3.1403    7.9278 H         1 <0>         0.1240
     56 H18        -4.7504   -5.2181    3.8580 H         1 <0>         0.4169
     57 H19        -4.5666   -6.8448    2.0425 H         1 <0>         0.1434
     58 H20        -5.6130  -10.1984    5.3779 H         1 <0>         0.1992
     59 H21        -3.2335   -8.3472    0.0528 H         1 <0>         0.0766
     60 H22        -4.7274   -8.6529   -0.8655 H         1 <0>         0.0808
     61 H23        -4.6901   -7.3757    0.3737 H         1 <0>         0.0918
     62 H24        -4.5941  -10.3546   -1.1933 H         1 <0>         0.4120
     63 H25        -5.2193  -16.0921   -1.7808 H         1 <0>         0.1535
     64 H26        -7.2478  -16.5777   -1.9325 H         1 <0>         0.0599
     65 H27        -6.4745  -17.0279   -0.3938 H         1 <0>         0.0605
     66 H28        -8.2486  -16.9363   -0.5049 H         1 <0>         0.1088
     67 H29        -3.2981  -16.9023   -1.9526 H         1 <0>         0.0606
     68 H30        -4.0718  -16.4527   -3.4913 H         1 <0>         0.0604
     69 H31        -2.3108  -16.7017   -3.4200 H         1 <0>         0.1087
@<TRIPOS>BOND
     1    1    2 1
     2    1   39 1
     3    1   40 1
     4    1   41 1
     5    2    3 1
     6    2   42 1
     7    2   43 1
     8    3    8 1
     9    3    4 1
    10    4    5 1
    11    4   44 1
    12    4   45 1
    13    5    6 1
    14    5   46 1
    15    5   47 1
    16    6    7 1
    17    6    9 1
    18    7    8 1
    19    7   48 1
    20    7   49 1
    21    8   50 1
    22    8   51 1
    23    9   14 ar
    24    9   10 ar
    25   10   11 ar
    26   10   52 1
    27   11   12 ar
    28   11   53 1
    29   12   13 ar
    30   12   15 1
    31   13   14 ar
    32   13   54 1
    33   14   55 1
    34   15   16 1
    35   15   56 1
    36   16   21 ar
    37   16   17 ar
    38   17   18 ar
    39   17   57 1
    40   18   19 ar
    41   18   22 1
    42   19   20 ar
    43   20   21 ar
    44   20   58 1
    45   22   23 1
    46   22   24 am
    47   23   59 1
    48   23   60 1
    49   23   61 1
    50   24   25 2
    51   24   26 am
    52   26   27 1
    53   26   62 1
    54   27   32 ar
    55   27   28 ar
    56   28   29 ar
    57   28   38 1
    58   29   30 ar
    59   29   36 1
    60   30   31 ar
    61   30   63 1
    62   31   32 ar
    63   31   34 1
    64   32   33 1
    65   34   35 1
    66   35   64 1
    67   35   65 1
    68   35   66 1
    69   36   37 1
    70   37   67 1
    71   37   68 1
    72   37   69 1
@<TRIPOS>MOLECULE
ZINC04471294
   48    51     0     0     0
SMALL
USER_CHARGES
4-[[5-(3-chloro-4-methyl-phenyl)-2-furyl]methylene]-1-(3,4-dimethylphenyl)-pyrazolidine-3,5-dione
@<TRIPOS>ATOM
      1 C1          6.4632   -0.1385   -0.0582 C.3       1 <0>        -0.1169
      2 C2          5.0447    0.3703   -0.0429 C.ar      1 <0>        -0.1056
      3 C3          4.7999    1.7315   -0.0342 C.ar      1 <0>        -0.0819
      4 C4          3.5014    2.2009   -0.0197 C.ar      1 <0>        -0.1474
      5 C5          2.4404    1.3043   -0.0138 C.ar      1 <0>         0.1624
      6 C6          2.6897   -0.0618   -0.0168 C.ar      1 <0>        -0.1548
      7 C7          3.9909   -0.5248   -0.0371 C.ar      1 <0>        -0.0536
      8 C8          4.2624   -2.0071   -0.0466 C.3       1 <0>        -0.1202
      9 N1          1.1241    1.7764    0.0009 N.am      1 <0>        -0.3565
     10 C9          0.7754    3.0769    0.0107 C.2       1 <0>         0.5626
     11 O1          1.5321    4.0302    0.0085 O.2       1 <0>        -0.4628
     12 C10        -0.6956    3.1256    0.0247 C.2       1 <0>        -0.3029
     13 C11        -1.5028    4.2567    0.0375 C.2       1 <0>         0.1431
     14 C12        -0.9213    5.5335    0.0380 C.2       1 <0>        -0.0649
     15 C13        -1.6069    6.7409    0.0501 C.2       1 <0>        -0.1072
     16 C14        -0.6456    7.7495    0.0458 C.2       1 <0>        -0.2126
     17 C15         0.5882    7.1323    0.0314 C.2       1 <0>         0.0856
     18 O2          0.4024    5.8015    0.0328 O.3       1 <0>        -0.0961
     19 C16         1.8941    7.8190    0.0220 C.ar      1 <0>        -0.0306
     20 C17         3.0778    7.0762    0.0075 C.ar      1 <0>        -0.0758
     21 C18         4.2950    7.7242   -0.0012 C.ar      1 <0>        -0.1102
     22 C19         4.3469    9.1071    0.0049 C.ar      1 <0>        -0.0571
     23 C20         3.1785    9.8503    0.0197 C.ar      1 <0>        -0.0411
     24 C21         1.9529    9.2147    0.0218 C.ar      1 <0>        -0.0759
     25 Cl1         3.2549   11.5846    0.0277 Cl        1 <0>        -0.0570
     26 C22         5.6812    9.8076   -0.0042 C.3       1 <0>        -0.1253
     27 C23        -1.1278    1.7182    0.0162 C.2       1 <0>         0.5760
     28 O3         -2.2751    1.3123    0.0186 O.2       1 <0>        -0.4983
     29 N2         -0.0111    0.9658    0.0074 N.am      1 <0>        -0.5190
     30 H1          6.8146   -0.2660    0.9657 H         1 <0>         0.0715
     31 H2          6.5000   -1.0964   -0.5770 H         1 <0>         0.0709
     32 H3          7.1010    0.5791   -0.5745 H         1 <0>         0.0669
     33 H4          5.6253    2.4280   -0.0391 H         1 <0>         0.1320
     34 H5          3.3109    3.2639   -0.0132 H         1 <0>         0.1563
     35 H6          1.8670   -0.7615   -0.0073 H         1 <0>         0.1221
     36 H7          4.3376   -2.3693    0.9787 H         1 <0>         0.0748
     37 H8          3.4476   -2.5225   -0.5551 H         1 <0>         0.0671
     38 H9          5.1983   -2.2018   -0.5702 H         1 <0>         0.0753
     39 H10        -2.5778    4.1528    0.0470 H         1 <0>         0.1811
     40 H11        -2.6788    6.8728    0.0607 H         1 <0>         0.1674
     41 H12        -0.8313    8.8134    0.0526 H         1 <0>         0.1612
     42 H13         3.0393    5.9969    0.0035 H         1 <0>         0.1466
     43 H14         5.2102    7.1509   -0.0124 H         1 <0>         0.1395
     44 H15         1.0421    9.7950    0.0284 H         1 <0>         0.1411
     45 H16         5.9934    9.9813   -1.0340 H         1 <0>         0.0807
     46 H17         5.5940   10.7620    0.5150 H         1 <0>         0.0768
     47 H18         6.4213    9.1861    0.4999 H         1 <0>         0.0751
     48 H19         0.0021   -0.0041    0.0020 H         1 <0>         0.4377
@<TRIPOS>BOND
     1    1    2 1
     2    1   30 1
     3    1   31 1
     4    1   32 1
     5    2    7 ar
     6    2    3 ar
     7    3    4 ar
     8    3   33 1
     9    4    5 ar
    10    4   34 1
    11    5    6 ar
    12    5    9 1
    13    6    7 ar
    14    6   35 1
    15    7    8 1
    16    8   36 1
    17    8   37 1
    18    8   38 1
    19    9   29 1
    20    9   10 am
    21   10   11 2
    22   10   12 1
    23   12   13 2
    24   12   27 1
    25   13   14 1
    26   13   39 1
    27   14   18 1
    28   14   15 2
    29   15   16 1
    30   15   40 1
    31   16   17 2
    32   16   41 1
    33   17   18 1
    34   17   19 1
    35   19   24 ar
    36   19   20 ar
    37   20   21 ar
    38   20   42 1
    39   21   22 ar
    40   21   43 1
    41   22   23 ar
    42   22   26 1
    43   23   24 ar
    44   23   25 1
    45   24   44 1
    46   26   45 1
    47   26   46 1
    48   26   47 1
    49   27   28 2
    50   27   29 am
    51   29   48 1
@<TRIPOS>MOLECULE
ZINC17747698
   42    45     0     0     0
SMALL
USER_CHARGES
N-[5-(1H-indol-3-ylmethyl)-1,3,4-thiadiazol-2-yl]-4-methoxy-benzamide
@<TRIPOS>ATOM
      1 C1          2.2837   10.2037    0.0358 C.3       1 <0>         0.0193
      2 O1          0.9372    9.7252    0.0462 O.3       1 <0>        -0.3098
      3 C2          0.7615    8.3795    0.0407 C.ar      1 <0>         0.1625
      4 C3         -0.5229    7.8482    0.0502 C.ar      1 <0>        -0.1574
      5 C4         -0.7055    6.4834    0.0446 C.ar      1 <0>        -0.0115
      6 C5          0.4028    5.6321    0.0290 C.ar      1 <0>        -0.1747
      7 C6          1.6925    6.1703    0.0248 C.ar      1 <0>        -0.0418
      8 C7          1.8664    7.5363    0.0251 C.ar      1 <0>        -0.2158
      9 C8          0.2117    4.1690    0.0229 C.2       1 <0>         0.5632
     10 O2         -0.9111    3.7024    0.0316 O.2       1 <0>        -0.4679
     11 N1          1.2818    3.3497    0.0078 N.am      1 <0>        -0.6253
     12 C9          1.1019    1.9717    0.0021 C.2       1 <0>         0.2965
     13 N2         -0.0150    1.2570    0.0090 N.2       1 <0>        -0.2854
     14 N3          0.0021   -0.0041    0.0020 N.2       1 <0>        -0.2570
     15 C10         1.1272   -0.6908   -0.0124 C.2       1 <0>         0.0823
     16 S1          2.3118    0.6518   -0.0165 S.3       1 <0>        -0.0344
     17 C11         1.3522   -2.1809   -0.0233 C.3       1 <0>         0.0534
     18 C12         1.4135   -2.6693   -1.4476 C.2       1 <0>        -0.1900
     19 C13         0.3966   -3.1761   -2.1624 C.2       1 <0>         0.0767
     20 N4          0.8291   -3.5110   -3.4166 N.pl3     1 <0>        -0.6049
     21 H1          0.1260   -3.9435   -4.1436 H         1 <0>         0.4451
     22 C14         2.1691   -3.2206   -3.5427 C.ar      1 <0>         0.1065
     23 C15         2.5927   -2.6752   -2.3168 C.ar      1 <0>        -0.0984
     24 C16         3.9208   -2.2778   -2.1531 C.ar      1 <0>        -0.0727
     25 C17         4.8032   -2.4179   -3.1871 C.ar      1 <0>        -0.1441
     26 C18         4.3896   -2.9522   -4.3994 C.ar      1 <0>        -0.1003
     27 C19         3.0852   -3.3577   -4.5802 C.ar      1 <0>        -0.1290
     28 H2          2.2820   11.3037    0.0417 H         1 <0>         0.1069
     29 H3          2.7941    9.8427   -0.8692 H         1 <0>         0.0610
     30 H4          2.8114    9.8331    0.9269 H         1 <0>         0.0610
     31 H5         -1.3788    8.5067    0.0623 H         1 <0>         0.1432
     32 H6         -1.7037    6.0713    0.0520 H         1 <0>         0.1476
     33 H7          2.5516    5.5158    0.0172 H         1 <0>         0.1284
     34 H8          2.8628    7.9530    0.0177 H         1 <0>         0.1389
     35 H9          2.2976    3.7718   -0.0000 H         1 <0>         0.4516
     36 H10         2.3000   -2.4123    0.4848 H         1 <0>         0.1029
     37 H11         0.5239   -2.6807    0.5004 H         1 <0>         0.1153
     38 H12        -0.6134   -3.3012   -1.8010 H         1 <0>         0.1738
     39 H13         4.2499   -1.8616   -1.2124 H         1 <0>         0.1179
     40 H14         5.8308   -2.1107   -3.0598 H         1 <0>         0.1222
     41 H15         5.0987   -3.0567   -5.2073 H         1 <0>         0.1248
     42 H16         2.7726   -3.7707   -5.5280 H         1 <0>         0.1196
@<TRIPOS>BOND
     1    1    2 1
     2    1   28 1
     3    1   29 1
     4    1   30 1
     5    2    3 1
     6    3    8 ar
     7    3    4 ar
     8    4    5 ar
     9    4   31 1
    10    5    6 ar
    11    5   32 1
    12    6    7 ar
    13    6    9 1
    14    7    8 ar
    15    7   33 1
    16    8   34 1
    17    9   10 2
    18    9   11 am
    19   11   12 1
    20   11   35 1
    21   12   16 1
    22   12   13 2
    23   13   14 1
    24   14   15 2
    25   15   16 1
    26   15   17 1
    27   17   18 1
    28   17   36 1
    29   17   37 1
    30   18   23 1
    31   18   19 2
    32   19   20 1
    33   19   38 1
    34   20   21 1
    35   20   22 1
    36   22   27 ar
    37   22   23 ar
    38   23   24 ar
    39   24   25 ar
    40   24   39 1
    41   25   26 ar
    42   25   40 1
    43   26   27 ar
    44   26   41 1
    45   27   42 1
@<TRIPOS>MOLECULE
ZINC00820816
   37    39     0     0     0
SMALL
USER_CHARGES
2-iodo-N-(5-phenethyl-1,3,4-thiadiazol-2-yl)benzamide
@<TRIPOS>ATOM
      1 C1          0.0801   -4.7930    1.4185 C.ar      1 <0>        -0.1209
      2 C2          1.2677   -4.0856    1.4115 C.ar      1 <0>        -0.1176
      3 C3          1.2489   -2.7034    1.4187 C.ar      1 <0>        -0.1127
      4 C4          0.0426   -2.0286    1.4333 C.ar      1 <0>        -0.0864
      5 C5         -1.1450   -2.7360    1.4461 C.ar      1 <0>        -0.1153
      6 C6         -1.1263   -4.1182    1.4331 C.ar      1 <0>        -0.1187
      7 C7          0.0221   -0.5218    1.4416 C.3       1 <0>        -0.0755
      8 C8          0.0021   -0.0041    0.0020 C.3       1 <0>        -0.0172
      9 C9         -0.0184    1.5028    0.0103 C.2       1 <0>         0.0714
     10 N1          0.9800    2.3636    0.0054 N.2       1 <0>        -0.2511
     11 N2          0.7917    3.6106    0.0139 N.2       1 <0>        -0.2762
     12 C10        -0.4266    4.1339    0.0284 C.2       1 <0>         0.2949
     13 S1         -1.4057    2.6346    0.0217 S.3       1 <0>        -0.0296
     14 N3         -0.8284    5.4642    0.0390 N.am      1 <0>        -0.6081
     15 C11         0.0941    6.4468    0.0355 C.2       1 <0>         0.5406
     16 O1          1.2776    6.1693    0.0231 O.2       1 <0>        -0.4245
     17 C12        -0.3330    7.8613    0.0468 C.ar      1 <0>        -0.1115
     18 C13        -1.6916    8.1836    0.0553 C.ar      1 <0>        -0.0821
     19 C14        -2.0835    9.5057    0.0712 C.ar      1 <0>        -0.1077
     20 C15        -1.1339   10.5127    0.0676 C.ar      1 <0>        -0.0820
     21 C16         0.2136   10.2013    0.0539 C.ar      1 <0>        -0.0889
     22 C17         0.6201    8.8819    0.0432 C.ar      1 <0>        -0.0576
     23 I1          2.6616    8.4122    0.0211 I         1 <0>         0.0136
     24 H1          0.0947   -5.8729    1.4122 H         1 <0>         0.1217
     25 H2          2.2102   -4.6128    1.4001 H         1 <0>         0.1231
     26 H3          2.1768   -2.1507    1.4133 H         1 <0>         0.1246
     27 H4         -2.0874   -2.2088    1.4619 H         1 <0>         0.1220
     28 H5         -2.0542   -4.6709    1.4382 H         1 <0>         0.1224
     29 H6          0.9118   -0.1491    1.9494 H         1 <0>         0.0838
     30 H7         -0.8680   -0.1733    1.9655 H         1 <0>         0.0781
     31 H8         -0.8875   -0.3767   -0.5057 H         1 <0>         0.0983
     32 H9          0.8922   -0.3525   -0.5218 H         1 <0>         0.1101
     33 H10        -1.7727    5.6856    0.0489 H         1 <0>         0.4255
     34 H11        -2.4339    7.3991    0.0536 H         1 <0>         0.1321
     35 H12        -3.1340    9.7561    0.0815 H         1 <0>         0.1400
     36 H13        -1.4466   11.5464    0.0752 H         1 <0>         0.1404
     37 H14         0.9494   10.9918    0.0511 H         1 <0>         0.1409
@<TRIPOS>BOND
     1    1    6 ar
     2    1    2 ar
     3    1   24 1
     4    2    3 ar
     5    2   25 1
     6    3    4 ar
     7    3   26 1
     8    4    5 ar
     9    4    7 1
    10    5    6 ar
    11    5   27 1
    12    6   28 1
    13    7    8 1
    14    7   29 1
    15    7   30 1
    16    8    9 1
    17    8   31 1
    18    8   32 1
    19    9   13 1
    20    9   10 2
    21   10   11 1
    22   11   12 2
    23   12   13 1
    24   12   14 1
    25   14   15 am
    26   14   33 1
    27   15   16 2
    28   15   17 1
    29   17   22 ar
    30   17   18 ar
    31   18   19 ar
    32   18   34 1
    33   19   20 ar
    34   19   35 1
    35   20   21 ar
    36   20   36 1
    37   21   22 ar
    38   21   37 1
    39   22   23 1
@<TRIPOS>MOLECULE
ZINC13633981
   47    49     0     0     0
SMALL
USER_CHARGES
(4Z)-4-[(4-diethylamino-2-hydroxy-phenyl)methylene]-1-(4-iodophenyl)pyrazolidine-3,5-dione
@<TRIPOS>ATOM
      1 C1         -4.4519    1.8915    0.0336 C.3       1 <0>        -0.1745
      2 C2         -3.7493    2.4001   -1.2268 C.3       1 <0>         0.1119
      3 N1         -2.6379    3.2757   -0.8468 N.pl3     1 <0>        -0.6115
      4 C3         -2.8609    4.7148   -0.6868 C.3       1 <0>         0.1102
      5 C4         -2.6228    5.4195   -2.0238 C.3       1 <0>        -0.1728
      6 C5         -1.3733    2.7417   -0.6382 C.ar      1 <0>         0.2764
      7 C6         -1.1637    1.3707   -0.7966 C.ar      1 <0>        -0.2173
      8 C7          0.0713    0.8335   -0.5898 C.ar      1 <0>         0.0331
      9 C8          1.1464    1.6609   -0.2250 C.ar      1 <0>        -0.2232
     10 C9          0.9388    3.0467   -0.0694 C.ar      1 <0>         0.2106
     11 C10        -0.3212    3.5760   -0.2776 C.ar      1 <0>        -0.2483
     12 O1          1.9687    3.8554    0.2829 O.3       1 <0>        -0.4946
     13 C11         2.4320    1.1061   -0.0152 C.2       1 <0>         0.1606
     14 C12         2.5659   -0.0907    0.6639 C.2       1 <0>        -0.3217
     15 C13         3.7936   -0.8874    0.8428 C.2       1 <0>         0.5770
     16 O2          4.9009   -0.6182    0.4164 O.2       1 <0>        -0.4989
     17 N2          3.4548   -1.9699    1.5683 N.am      1 <0>        -0.5217
     18 N3          2.0956   -1.9449    1.8802 N.am      1 <0>        -0.3579
     19 C14         1.5136   -0.8426    1.3709 C.2       1 <0>         0.5697
     20 O3          0.3424   -0.5286    1.4727 O.2       1 <0>        -0.4756
     21 C15         1.4307   -2.9255    2.6235 C.ar      1 <0>         0.1857
     22 C16         0.0719   -2.8006    2.8822 C.ar      1 <0>        -0.1439
     23 C17        -0.5829   -3.7729    3.6124 C.ar      1 <0>        -0.0485
     24 C18         0.1156   -4.8650    4.0953 C.ar      1 <0>        -0.1243
     25 C19         1.4701   -4.9897    3.8434 C.ar      1 <0>        -0.0501
     26 C20         2.1292   -4.0233    3.1094 C.ar      1 <0>        -0.1554
     27 I1         -0.8800   -6.3331    5.2099 I         1 <0>        -0.0369
     28 H1         -4.8349    2.7384    0.6028 H         1 <0>         0.0573
     29 H2         -5.2787    1.2400   -0.2492 H         1 <0>         0.0677
     30 H3         -3.7425    1.3337    0.6450 H         1 <0>         0.0622
     31 H4         -4.4586    2.9578   -1.8382 H         1 <0>         0.0784
     32 H5         -3.3662    1.5531   -1.7961 H         1 <0>         0.0806
     33 H6         -3.8865    4.8896   -0.3615 H         1 <0>         0.0789
     34 H7         -2.1709    5.1086    0.0595 H         1 <0>         0.0800
     35 H8         -2.7887    6.4902   -1.9047 H         1 <0>         0.0678
     36 H9         -1.5973    5.2447   -2.3490 H         1 <0>         0.0596
     37 H10        -3.3128    5.0257   -2.7700 H         1 <0>         0.0579
     38 H11        -1.9863    0.7313   -1.0810 H         1 <0>         0.1300
     39 H12         0.2248   -0.2287   -0.7108 H         1 <0>         0.1270
     40 H13        -0.4881    4.6365   -0.1599 H         1 <0>         0.1356
     41 H14         2.4611    4.2148   -0.4677 H         1 <0>         0.3990
     42 H15         3.3080    1.6177   -0.3857 H         1 <0>         0.1488
     43 H16         4.0704   -2.6700    1.8365 H         1 <0>         0.4369
     44 H17        -0.4731   -1.9460    2.5092 H         1 <0>         0.1662
     45 H18        -1.6403   -3.6782    3.8106 H         1 <0>         0.1388
     46 H19         2.0127   -5.8436    4.2215 H         1 <0>         0.1376
     47 H20         3.1867   -4.1212    2.9130 H         1 <0>         0.1316
@<TRIPOS>BOND
     1    1    2 1
     2    1   28 1
     3    1   29 1
     4    1   30 1
     5    2    3 1
     6    2   31 1
     7    2   32 1
     8    3    4 1
     9    3    6 1
    10    4    5 1
    11    4   33 1
    12    4   34 1
    13    5   35 1
    14    5   36 1
    15    5   37 1
    16    6   11 ar
    17    6    7 ar
    18    7    8 ar
    19    7   38 1
    20    8    9 ar
    21    8   39 1
    22    9   10 ar
    23    9   13 1
    24   10   11 ar
    25   10   12 1
    26   11   40 1
    27   12   41 1
    28   13   14 2
    29   13   42 1
    30   14   19 1
    31   14   15 1
    32   15   16 2
    33   15   17 am
    34   17   18 1
    35   17   43 1
    36   18   19 am
    37   18   21 1
    38   19   20 2
    39   21   26 ar
    40   21   22 ar
    41   22   23 ar
    42   22   44 1
    43   23   24 ar
    44   23   45 1
    45   24   25 ar
    46   24   27 1
    47   25   26 ar
    48   25   46 1
    49   26   47 1
@<TRIPOS>MOLECULE
ZINC00726017
   32    34     0     0     0
SMALL
USER_CHARGES
4-benzylidene-1-(4-iodophenyl)-pyrazolidine-3,5-dione
@<TRIPOS>ATOM
      1 C1         -5.6102    4.5708    0.3692 C.ar      1 <0>        -0.0857
      2 C2         -5.8723    3.3560   -0.2411 C.ar      1 <0>        -0.1347
      3 C3         -4.8767    2.4102   -0.3586 C.ar      1 <0>        -0.0750
      4 C4         -3.5966    2.6811    0.1418 C.ar      1 <0>        -0.1252
      5 C5         -3.3419    3.9109    0.7626 C.ar      1 <0>        -0.0375
      6 C6         -4.3479    4.8472    0.8661 C.ar      1 <0>        -0.1299
      7 C7         -2.5307    1.6805    0.0219 C.2       1 <0>         0.1302
      8 C8         -1.2404    2.0781   -0.2457 C.2       1 <0>        -0.2962
      9 C9         -0.0216    1.2435   -0.2329 C.2       1 <0>         0.5763
     10 O1          0.0406    0.0552    0.0189 O.2       1 <0>        -0.4909
     11 N1          1.0064    2.0496   -0.5590 N.am      1 <0>        -0.5194
     12 N2          0.5590    3.3518   -0.7803 N.am      1 <0>        -0.3561
     13 C10        -0.7735    3.4322   -0.6048 C.2       1 <0>         0.5669
     14 O2         -1.4615    4.4284   -0.7239 O.2       1 <0>        -0.4696
     15 C11         1.3811    4.4261   -1.1356 C.ar      1 <0>         0.1819
     16 C12         0.8317    5.6855   -1.3381 C.ar      1 <0>        -0.1425
     17 C13         1.6466    6.7454   -1.6842 C.ar      1 <0>        -0.0484
     18 C14         3.0076    6.5514   -1.8389 C.ar      1 <0>        -0.1224
     19 C15         3.5570    5.2969   -1.6435 C.ar      1 <0>        -0.0502
     20 C16         2.7478    4.2344   -1.2922 C.ar      1 <0>        -0.1533
     21 I1          4.2390    8.1606   -2.3711 I         1 <0>        -0.0344
     22 H1         -6.3951    5.3074    0.4578 H         1 <0>         0.1267
     23 H2         -6.8599    3.1488   -0.6260 H         1 <0>         0.1292
     24 H3         -5.0830    1.4630   -0.8346 H         1 <0>         0.1306
     25 H4         -2.3590    4.1262    1.1551 H         1 <0>         0.1257
     26 H5         -4.1521    5.7975    1.3404 H         1 <0>         0.1278
     27 H6         -2.7583    0.6318    0.1436 H         1 <0>         0.1597
     28 H7          1.9306    1.7639   -0.6303 H         1 <0>         0.4393
     29 H8         -0.2313    5.8367   -1.2211 H         1 <0>         0.1662
     30 H9          1.2205    7.7257   -1.8381 H         1 <0>         0.1401
     31 H10         4.6197    5.1485   -1.7654 H         1 <0>         0.1385
     32 H11         3.1773    3.2552   -1.1397 H         1 <0>         0.1321
@<TRIPOS>BOND
     1    1    6 ar
     2    1    2 ar
     3    1   22 1
     4    2    3 ar
     5    2   23 1
     6    3    4 ar
     7    3   24 1
     8    4    5 ar
     9    4    7 1
    10    5    6 ar
    11    5   25 1
    12    6   26 1
    13    7    8 2
    14    7   27 1
    15    8   13 1
    16    8    9 1
    17    9   10 2
    18    9   11 am
    19   11   12 1
    20   11   28 1
    21   12   13 am
    22   12   15 1
    23   13   14 2
    24   15   20 ar
    25   15   16 ar
    26   16   17 ar
    27   16   29 1
    28   17   18 ar
    29   17   30 1
    30   18   19 ar
    31   18   21 1
    32   19   20 ar
    33   19   31 1
    34   20   32 1
@<TRIPOS>MOLECULE
ZINC00828630
   37    39     0     0     0
SMALL
USER_CHARGES
2,4-dichloro-N-(5-phenethyl-1,3,4-thiadiazol-2-yl)-benzamide
@<TRIPOS>ATOM
      1 C1          0.0801   -4.7930    1.4185 C.ar      1 <0>        -0.1208
      2 C2          1.2677   -4.0856    1.4115 C.ar      1 <0>        -0.1176
      3 C3          1.2489   -2.7034    1.4187 C.ar      1 <0>        -0.1127
      4 C4          0.0426   -2.0286    1.4333 C.ar      1 <0>        -0.0866
      5 C5         -1.1450   -2.7360    1.4461 C.ar      1 <0>        -0.1152
      6 C6         -1.1263   -4.1182    1.4331 C.ar      1 <0>        -0.1187
      7 C7          0.0221   -0.5218    1.4416 C.3       1 <0>        -0.0756
      8 C8          0.0021   -0.0041    0.0020 C.3       1 <0>        -0.0176
      9 C9         -0.0184    1.5028    0.0103 C.2       1 <0>         0.0726
     10 N1          0.9800    2.3636    0.0054 N.2       1 <0>        -0.2517
     11 N2          0.7917    3.6106    0.0139 N.2       1 <0>        -0.2775
     12 C10        -0.4266    4.1339    0.0284 C.2       1 <0>         0.2930
     13 S1         -1.4057    2.6346    0.0217 S.3       1 <0>        -0.0254
     14 N3         -0.8284    5.4642    0.0394 N.am      1 <0>        -0.6090
     15 C11         0.0941    6.4468    0.0363 C.2       1 <0>         0.5512
     16 O1          1.2778    6.1693    0.0240 O.2       1 <0>        -0.4329
     17 C12        -0.3327    7.8603    0.0480 C.ar      1 <0>        -0.1278
     18 C13        -1.6918    8.1826    0.0622 C.ar      1 <0>        -0.0606
     19 C14        -2.0841    9.5038    0.0730 C.ar      1 <0>        -0.1118
     20 C15        -1.1339   10.5125    0.0699 C.ar      1 <0>         0.0051
     21 C16         0.2148   10.2012    0.0554 C.ar      1 <0>        -0.1098
     22 C17         0.6213    8.8816    0.0507 C.ar      1 <0>         0.0300
     23 Cl1         2.3130    8.4921    0.0404 Cl        1 <0>        -0.0067
     24 Cl2        -1.6373   12.1739    0.0836 Cl        1 <0>        -0.0397
     25 H1          0.0947   -5.8729    1.4122 H         1 <0>         0.1218
     26 H2          2.2102   -4.6128    1.4001 H         1 <0>         0.1231
     27 H3          2.1768   -2.1507    1.4133 H         1 <0>         0.1246
     28 H4         -2.0874   -2.2088    1.4619 H         1 <0>         0.1221
     29 H5         -2.0542   -4.6709    1.4382 H         1 <0>         0.1225
     30 H6          0.9118   -0.1491    1.9494 H         1 <0>         0.0839
     31 H7         -0.8680   -0.1733    1.9655 H         1 <0>         0.0782
     32 H8         -0.8875   -0.3767   -0.5057 H         1 <0>         0.0987
     33 H9          0.8922   -0.3525   -0.5218 H         1 <0>         0.1104
     34 H10        -1.7727    5.6856    0.0492 H         1 <0>         0.4268
     35 H11        -2.4339    7.3978    0.0651 H         1 <0>         0.1451
     36 H12        -3.1348    9.7536    0.0844 H         1 <0>         0.1521
     37 H13         0.9504   10.9919    0.0526 H         1 <0>         0.1563
@<TRIPOS>BOND
     1    1    6 ar
     2    1    2 ar
     3    1   25 1
     4    2    3 ar
     5    2   26 1
     6    3    4 ar
     7    3   27 1
     8    4    5 ar
     9    4    7 1
    10    5    6 ar
    11    5   28 1
    12    6   29 1
    13    7    8 1
    14    7   30 1
    15    7   31 1
    16    8    9 1
    17    8   32 1
    18    8   33 1
    19    9   13 1
    20    9   10 2
    21   10   11 1
    22   11   12 2
    23   12   13 1
    24   12   14 1
    25   14   15 am
    26   14   34 1
    27   15   16 2
    28   15   17 1
    29   17   22 ar
    30   17   18 ar
    31   18   19 ar
    32   18   35 1
    33   19   20 ar
    34   19   36 1
    35   20   21 ar
    36   20   24 1
    37   21   22 ar
    38   21   37 1
    39   22   23 1
@<TRIPOS>MOLECULE
ZINC34802946
   67    71     0     0     0
SMALL
USER_CHARGES

@<TRIPOS>ATOM
      1 C1         -0.0483    1.5024    0.0098 C.3       1 <0>        -0.1268
      2 C2         -0.0195   -0.0043    0.0016 C.ar      1 <0>        -0.0386
      3 C3         -0.0178   -0.6868   -1.1996 C.ar      1 <0>        -0.1235
      4 C4          0.0085   -2.0667   -1.2158 C.ar      1 <0>        -0.0785
      5 C5          0.0330   -2.7811   -0.0158 C.ar      1 <0>        -0.1428
      6 C6          0.0314   -2.0969    1.1984 C.ar      1 <0>        -0.0380
      7 C7          0.0111   -0.7058    1.2063 C.ar      1 <0>        -0.0517
      8 C8          0.0158    0.0300    2.4946 C.ar      1 <0>        -0.0766
      9 C9          0.9293    1.0770    2.6951 C.ar      1 <0>        -0.0509
     10 C10         0.9551    1.7681    3.8654 C.ar      1 <0>        -0.1204
     11 C11         0.0589    1.4368    4.8939 C.ar      1 <0>         0.2183
     12 C12        -0.8687    0.3799    4.7012 C.ar      1 <0>        -0.2144
     13 C13        -0.8839   -0.3174    3.4865 C.ar      1 <0>        -0.0354
     14 C14        -1.7564    0.0690    5.7490 C.ar      1 <0>         0.2451
     15 N1         -1.6869    0.7718    6.8601 N.ar      1 <0>        -0.5576
     16 C15        -0.8035    1.7573    7.0067 C.ar      1 <0>         0.5740
     17 N2          0.0519    2.0930    6.0606 N.ar      1 <0>        -0.5737
     18 N3         -0.7822    2.4573    8.1995 N.pl3     1 <0>        -0.6964
     19 C16        -1.7195    2.1088    9.2701 C.3       1 <0>         0.1398
     20 C17        -1.4872    3.0285   10.4706 C.3       1 <0>         0.0428
     21 N4         -2.4271    2.6791   11.5442 N.3       1 <0>        -0.5321
     22 C18        -3.8120    2.9741   11.1487 C.3       1 <0>         0.0117
     23 C19        -4.7604    2.5406   12.2697 C.3       1 <0>         0.0630
     24 O1         -4.3910    3.2025   13.4824 O.3       1 <0>        -0.3850
     25 C20        -3.0483    2.9369   13.8974 C.3       1 <0>         0.0630
     26 C21        -2.0826    3.3743   12.7929 C.3       1 <0>         0.0183
     27 C22         0.0602   -4.2590   -0.0337 C.2       1 <0>         0.5622
     28 O2          0.0816   -4.8792    1.0117 O.2       1 <0>        -0.5109
     29 N5          0.0613   -4.9189   -1.2088 N.am      1 <0>        -0.6699
     30 C23         0.1847   -6.3117   -1.2285 C.ar      1 <0>         0.1443
     31 C24         0.8894   -6.9337   -2.2514 C.ar      1 <0>        -0.1118
     32 C25         1.0099   -8.3092   -2.2677 C.ar      1 <0>        -0.0994
     33 C26         0.4298   -9.0675   -1.2671 C.ar      1 <0>        -0.0865
     34 C27        -0.2722   -8.4516   -0.2475 C.ar      1 <0>        -0.1641
     35 C28        -0.3920   -7.0758   -0.2225 C.ar      1 <0>        -0.0722
     36 C29        -0.9025   -9.2820    0.8407 C.3       1 <0>         0.5092
     37 F1         -0.6426  -10.6360    0.6040 F         1 <0>        -0.1761
     38 F2         -0.3653   -8.9135    2.0788 F         1 <0>        -0.1725
     39 F3         -2.2849   -9.0671    0.8497 F         1 <0>        -0.1757
     40 H1          0.9721    1.8854   -0.0029 H         1 <0>         0.0793
     41 H2         -0.5817    1.8604   -0.8708 H         1 <0>         0.0726
     42 H3         -0.5562    1.8513    0.9089 H         1 <0>         0.0756
     43 H4         -0.0375   -0.1384   -2.1297 H         1 <0>         0.1346
     44 H5          0.0097   -2.5949   -2.1579 H         1 <0>         0.1271
     45 H6          0.0504   -2.6442    2.1292 H         1 <0>         0.1408
     46 H7          1.6219    1.3369    1.9082 H         1 <0>         0.1341
     47 H8          1.6644    2.5707    4.0039 H         1 <0>         0.1396
     48 H9         -1.5883   -1.1204    3.3272 H         1 <0>         0.1367
     49 H10        -2.4780   -0.7275    5.6434 H         1 <0>         0.1790
     50 H11        -0.1467    3.1789    8.3270 H         1 <0>         0.4144
     51 H12        -2.7417    2.2301    8.9119 H         1 <0>         0.0688
     52 H13        -1.5600    1.0730    9.5698 H         1 <0>         0.0789
     53 H14        -0.4650    2.9072   10.8288 H         1 <0>         0.0845
     54 H15        -1.6467    4.0643   10.1709 H         1 <0>         0.0436
     55 H16        -3.9204    4.0444   10.9738 H         1 <0>         0.0453
     56 H17        -4.0538    2.4291   10.2363 H         1 <0>         0.0911
     57 H18        -5.7831    2.8094   12.0054 H         1 <0>         0.1000
     58 H19        -4.6911    1.4617   12.4082 H         1 <0>         0.0622
     59 H20        -2.8329    3.4922   14.8102 H         1 <0>         0.1003
     60 H21        -2.9293    1.8694   14.0832 H         1 <0>         0.0619
     61 H22        -1.0621    3.1215   13.0806 H         1 <0>         0.0888
     62 H23        -2.1634    4.4511   12.6442 H         1 <0>         0.0455
     63 H24        -0.0236   -4.4277   -2.0409 H         1 <0>         0.4141
     64 H25         1.3423   -6.3421   -3.0333 H         1 <0>         0.1370
     65 H26         1.5573   -8.7933   -3.0629 H         1 <0>         0.1416
     66 H27         0.5252  -10.1432   -1.2823 H         1 <0>         0.1414
     67 H28        -0.9370   -6.5950    0.5764 H         1 <0>         0.1510
@<TRIPOS>BOND
     1    1    2 1
     2    1   40 1
     3    1   41 1
     4    1   42 1
     5    2    7 ar
     6    2    3 ar
     7    3    4 ar
     8    3   43 1
     9    4    5 ar
    10    4   44 1
    11    5    6 ar
    12    5   27 1
    13    6    7 ar
    14    6   45 1
    15    7    8 1
    16    8   13 ar
    17    8    9 ar
    18    9   10 ar
    19    9   46 1
    20   10   11 ar
    21   10   47 1
    22   11   17 ar
    23   11   12 ar
    24   12   13 ar
    25   12   14 ar
    26   13   48 1
    27   14   15 ar
    28   14   49 1
    29   15   16 ar
    30   16   17 ar
    31   16   18 1
    32   18   19 1
    33   18   50 1
    34   19   20 1
    35   19   51 1
    36   19   52 1
    37   20   21 1
    38   20   53 1
    39   20   54 1
    40   21   26 1
    41   21   22 1
    42   22   23 1
    43   22   55 1
    44   22   56 1
    45   23   24 1
    46   23   57 1
    47   23   58 1
    48   24   25 1
    49   25   26 1
    50   25   59 1
    51   25   60 1
    52   26   61 1
    53   26   62 1
    54   27   28 2
    55   27   29 am
    56   29   30 1
    57   29   63 1
    58   30   35 ar
    59   30   31 ar
    60   31   32 ar
    61   31   64 1
    62   32   33 ar
    63   32   65 1
    64   33   34 ar
    65   33   66 1
    66   34   35 ar
    67   34   36 1
    68   35   67 1
    69   36   37 1
    70   36   38 1
    71   36   39 1
@<TRIPOS>MOLECULE
ZINC34802946
   68    72     0     0     0
SMALL
USER_CHARGES

@<TRIPOS>ATOM
      1 C1         -0.0483    1.5024    0.0098 C.3       1 <0>        -0.1276
      2 C2         -0.0195   -0.0043    0.0016 C.ar      1 <0>        -0.0366
      3 C3         -0.0178   -0.6868   -1.1996 C.ar      1 <0>        -0.1221
      4 C4          0.0085   -2.0667   -1.2158 C.ar      1 <0>        -0.0731
      5 C5          0.0330   -2.7811   -0.0158 C.ar      1 <0>        -0.1410
      6 C6          0.0314   -2.0969    1.1984 C.ar      1 <0>        -0.0362
      7 C7          0.0111   -0.7058    1.2063 C.ar      1 <0>        -0.0635
      8 C8          0.0158    0.0300    2.4946 C.ar      1 <0>        -0.0553
      9 C9          0.9293    1.0770    2.6951 C.ar      1 <0>        -0.0467
     10 C10         0.9551    1.7681    3.8654 C.ar      1 <0>        -0.1170
     11 C11         0.0589    1.4368    4.8939 C.ar      1 <0>         0.2111
     12 C12        -0.8687    0.3799    4.7012 C.ar      1 <0>        -0.2001
     13 C13        -0.8839   -0.3174    3.4865 C.ar      1 <0>        -0.0453
     14 C14        -1.7564    0.0690    5.7490 C.ar      1 <0>         0.2479
     15 N1         -1.6869    0.7718    6.8601 N.ar      1 <0>        -0.5684
     16 C15        -0.8035    1.7573    7.0067 C.ar      1 <0>         0.5623
     17 N2          0.0519    2.0930    6.0606 N.ar      1 <0>        -0.5576
     18 N3         -0.7822    2.4573    8.1995 N.pl3     1 <0>        -0.7040
     19 C16        -1.7195    2.1088    9.2701 C.3       1 <0>         0.1188
     20 C17        -1.4872    3.0285   10.4706 C.3       1 <0>        -0.0230
     21 N4         -2.4271    2.6791   11.5442 N.4       1 <0>        -0.3805
     22 C18        -3.8007    2.9572   11.1027 C.3       1 <0>        -0.0511
     23 C19        -4.7779    2.5921   12.2228 C.3       1 <0>         0.0367
     24 O1         -4.4442    3.3332   13.3998 O.3       1 <0>        -0.3561
     25 C20        -3.1064    3.1140   13.8559 C.3       1 <0>         0.0359
     26 C21        -2.1261    3.4800   12.7388 C.3       1 <0>        -0.0426
     27 C22         0.0602   -4.2590   -0.0337 C.2       1 <0>         0.5618
     28 O2          0.0816   -4.8792    1.0117 O.2       1 <0>        -0.5123
     29 N5          0.0613   -4.9189   -1.2088 N.am      1 <0>        -0.6683
     30 C23         0.1847   -6.3117   -1.2285 C.ar      1 <0>         0.1414
     31 C24         0.8894   -6.9337   -2.2514 C.ar      1 <0>        -0.1102
     32 C25         1.0099   -8.3092   -2.2677 C.ar      1 <0>        -0.0984
     33 C26         0.4298   -9.0675   -1.2671 C.ar      1 <0>        -0.0844
     34 C27        -0.2722   -8.4516   -0.2475 C.ar      1 <0>        -0.1647
     35 C28        -0.3920   -7.0758   -0.2225 C.ar      1 <0>        -0.0721
     36 C29        -0.9025   -9.2820    0.8407 C.3       1 <0>         0.5095
     37 F1         -0.6426  -10.6360    0.6040 F         1 <0>        -0.1749
     38 F2         -0.3653   -8.9135    2.0788 F         1 <0>        -0.1737
     39 F3         -2.2849   -9.0671    0.8497 F         1 <0>        -0.1759
     40 H1          0.9721    1.8854   -0.0029 H         1 <0>         0.0806
     41 H2         -0.5817    1.8604   -0.8708 H         1 <0>         0.0754
     42 H3         -0.5562    1.8513    0.9089 H         1 <0>         0.0730
     43 H4         -0.0375   -0.1384   -2.1297 H         1 <0>         0.1371
     44 H5          0.0097   -2.5949   -2.1579 H         1 <0>         0.1298
     45 H6          0.0504   -2.6442    2.1292 H         1 <0>         0.1405
     46 H7          1.6219    1.3369    1.9082 H         1 <0>         0.1398
     47 H8          1.6644    2.5707    4.0039 H         1 <0>         0.1435
     48 H9         -1.5883   -1.1204    3.3272 H         1 <0>         0.1410
     49 H10        -2.4780   -0.7275    5.6434 H         1 <0>         0.1829
     50 H11        -0.1467    3.1789    8.3270 H         1 <0>         0.4205
     51 H12        -2.7417    2.2301    8.9119 H         1 <0>         0.0871
     52 H13        -1.5600    1.0730    9.5698 H         1 <0>         0.0876
     53 H14        -0.4650    2.9072   10.8288 H         1 <0>         0.1408
     54 H15        -1.6467    4.0643   10.1709 H         1 <0>         0.1388
     55 H16        -3.8989    4.0165   10.8654 H         1 <0>         0.1412
     56 H17        -4.0250    2.3635   10.2165 H         1 <0>         0.1457
     57 H18        -5.7940    2.8378   11.9139 H         1 <0>         0.1434
     58 H19        -4.7086    1.5248   12.4329 H         1 <0>         0.0831
     59 H20        -2.9127    3.7373   14.7289 H         1 <0>         0.1435
     60 H21        -2.9799    2.0645   14.1218 H         1 <0>         0.0826
     61 H22        -1.1073    3.2744   13.0672 H         1 <0>         0.1445
     62 H23        -2.2249    4.5391   12.5009 H         1 <0>         0.1407
     63 H24        -0.0236   -4.4277   -2.0409 H         1 <0>         0.4145
     64 H25         1.3423   -6.3421   -3.0333 H         1 <0>         0.1377
     65 H26         1.5573   -8.7933   -3.0629 H         1 <0>         0.1430
     66 H27         0.5252  -10.1432   -1.2823 H         1 <0>         0.1425
     67 H28        -0.9370   -6.5950    0.5764 H         1 <0>         0.1500
     68 H29        -2.3364    1.6987   11.7648 H         1 <0>         0.4260
@<TRIPOS>BOND
     1    1    2 1
     2    1   40 1
     3    1   41 1
     4    1   42 1
     5    2    7 ar
     6    2    3 ar
     7    3    4 ar
     8    3   43 1
     9    4    5 ar
    10    4   44 1
    11    5    6 ar
    12    5   27 1
    13    6    7 ar
    14    6   45 1
    15    7    8 1
    16    8   13 ar
    17    8    9 ar
    18    9   10 ar
    19    9   46 1
    20   10   11 ar
    21   10   47 1
    22   11   17 ar
    23   11   12 ar
    24   12   13 ar
    25   12   14 ar
    26   13   48 1
    27   14   15 ar
    28   14   49 1
    29   15   16 ar
    30   16   17 ar
    31   16   18 1
    32   18   19 1
    33   18   50 1
    34   19   20 1
    35   19   51 1
    36   19   52 1
    37   20   21 1
    38   20   53 1
    39   20   54 1
    40   21   26 1
    41   21   22 1
    42   21   68 1
    43   22   23 1
    44   22   55 1
    45   22   56 1
    46   23   24 1
    47   23   57 1
    48   23   58 1
    49   24   25 1
    50   25   26 1
    51   25   59 1
    52   25   60 1
    53   26   61 1
    54   26   62 1
    55   27   28 2
    56   27   29 am
    57   29   30 1
    58   29   63 1
    59   30   35 ar
    60   30   31 ar
    61   31   32 ar
    62   31   64 1
    63   32   33 ar
    64   32   65 1
    65   33   34 ar
    66   33   66 1
    67   34   35 ar
    68   34   36 1
    69   35   67 1
    70   36   37 1
    71   36   38 1
    72   36   39 1
@<TRIPOS>MOLECULE
ZINC18230030
   32    35     0     0     0
SMALL
USER_CHARGES

@<TRIPOS>ATOM
      1 C1         -0.0024    1.3636   -0.3852 C.ar      1 <0>        -0.1425
      2 C2          1.1843    2.0764   -0.3355 C.ar      1 <0>        -0.0866
      3 C3          2.3918    1.4233   -0.1939 C.ar      1 <0>        -0.1380
      4 C4          2.4281    0.0365   -0.0988 C.ar      1 <0>         0.1367
      5 C5          1.2250   -0.6816   -0.1490 C.ar      1 <0>        -0.0800
      6 C6          0.0127   -0.0131   -0.2925 C.ar      1 <0>        -0.0826
      7 C7          1.5867   -2.1097   -0.0238 C.2       1 <0>        -0.2056
      8 C8          0.7284   -3.2007   -0.0213 C.2       1 <0>         0.2986
      9 C9         -0.7457   -3.1540    0.0907 C.2       1 <0>         0.1829
     10 N1         -1.5003   -2.0946    0.2062 N.2       1 <0>        -0.2631
     11 O1         -2.9062   -2.2339    0.3026 O.3       1 <0>        -0.3834
     12 C10        -1.1809   -4.5701    0.0427 C.ar      1 <0>        -0.1642
     13 C11        -2.4307   -5.1782    0.1013 C.ar      1 <0>        -0.0259
     14 C12        -2.5280   -6.5532    0.0311 C.ar      1 <0>        -0.1512
     15 C13        -1.3849   -7.3243   -0.0969 C.ar      1 <0>        -0.0586
     16 C14        -0.1407   -6.7311   -0.1555 C.ar      1 <0>        -0.1447
     17 C15        -0.0228   -5.3458   -0.0871 C.ar      1 <0>         0.1647
     18 N2          1.0909   -4.5168   -0.1279 N.pl3     1 <0>        -0.6175
     19 C16         3.0493   -2.1247    0.0967 C.2       1 <0>         0.5684
     20 O2          3.7472   -3.1157    0.2192 O.2       1 <0>        -0.5230
     21 N3          3.4842   -0.8541    0.0471 N.am      1 <0>        -0.6490
     22 H1         -0.9413    1.8865   -0.4922 H         1 <0>         0.1273
     23 H2          1.1645    3.1537   -0.4088 H         1 <0>         0.1294
     24 H3          3.3103    1.9903   -0.1572 H         1 <0>         0.1266
     25 H4         -0.9122   -0.5695   -0.3311 H         1 <0>         0.1639
     26 H5         -3.3798   -1.3948    0.3850 H         1 <0>         0.4132
     27 H6         -3.3218   -4.5764    0.2018 H         1 <0>         0.1385
     28 H7         -3.4969   -7.0283    0.0763 H         1 <0>         0.1358
     29 H8         -1.4681   -8.3998   -0.1510 H         1 <0>         0.1377
     30 H9          0.7438   -7.3428   -0.2549 H         1 <0>         0.1344
     31 H10         2.0048   -4.8291   -0.2181 H         1 <0>         0.4389
     32 H11         4.4164   -0.5923    0.1057 H         1 <0>         0.4189
@<TRIPOS>BOND
     1    1    6 ar
     2    1    2 ar
     3    1   22 1
     4    2    3 ar
     5    2   23 1
     6    3    4 ar
     7    3   24 1
     8    4   21 1
     9    4    5 ar
    10    5    6 ar
    11    5    7 1
    12    6   25 1
    13    7    8 2
    14    7   19 1
    15    8   18 1
    16    8    9 1
    17    9   10 2
    18    9   12 1
    19   10   11 1
    20   11   26 1
    21   12   17 ar
    22   12   13 ar
    23   13   14 ar
    24   13   27 1
    25   14   15 ar
    26   14   28 1
    27   15   16 ar
    28   15   29 1
    29   16   17 ar
    30   16   30 1
    31   17   18 1
    32   18   31 1
    33   19   20 2
    34   19   21 am
    35   21   32 1
@<TRIPOS>MOLECULE
ZINC18230030
   32    35     0     0     0
SMALL
USER_CHARGES

@<TRIPOS>ATOM
      1 C1         -0.0166    1.3748    0.0096 C.ar      1 <0>        -0.1225
      2 C2          1.1716    2.0888    0.0021 C.ar      1 <0>        -0.0962
      3 C3          2.3849    1.4332   -0.0130 C.ar      1 <0>        -0.1155
      4 C4          2.4239    0.0437   -0.0209 C.ar      1 <0>         0.0981
      5 C5          1.2204   -0.6769   -0.0133 C.ar      1 <0>        -0.0528
      6 C6          0.0021   -0.0041    0.0020 C.ar      1 <0>        -0.0805
      7 C7          1.5974   -2.1049   -0.0246 C.2       1 <0>        -0.2093
      8 C8          2.9936   -2.1364   -0.0381 C.2       1 <0>         0.3333
      9 N1          3.4675   -0.8669   -0.0358 N.pl3     1 <0>        -0.5789
     10 H1          4.4078   -0.6287   -0.0438 H         1 <0>         0.4230
     11 O1          3.7505   -3.2537   -0.0509 O.3       1 <0>        -0.4537
     12 C9          0.7262   -3.2100   -0.0222 C.2       1 <0>         0.3448
     13 C10         0.1967   -3.8930    1.1657 C.2       1 <0>        -0.1671
     14 C11        -0.6625   -4.9778    0.6376 C.ar      1 <0>        -0.0626
     15 C12        -1.4332   -5.9613    1.2492 C.ar      1 <0>        -0.0741
     16 C13        -2.1438   -6.8553    0.4745 C.ar      1 <0>        -0.1171
     17 C14        -2.0895   -6.7734   -0.9072 C.ar      1 <0>        -0.1048
     18 C15        -1.3281   -5.8025   -1.5238 C.ar      1 <0>        -0.1132
     19 C16        -0.6049   -4.8915   -0.7591 C.ar      1 <0>         0.0632
     20 N2          0.2180   -3.8346   -1.1211 N.pl3     1 <0>        -0.5424
     21 H2          0.4086   -3.5762   -2.0364 H         1 <0>         0.4251
     22 N3          0.4346   -3.6041    2.4257 N.2       1 <0>        -0.2807
     23 O2         -0.0801   -4.2653    3.3097 O.2       1 <0>         0.0258
     24 H3         -0.9601    1.9001    0.0260 H         1 <0>         0.1313
     25 H4          1.1469    3.1685    0.0078 H         1 <0>         0.1340
     26 H5          3.3046    1.9993   -0.0191 H         1 <0>         0.1285
     27 H6         -0.9243   -0.5592    0.0083 H         1 <0>         0.1229
     28 H7          3.9627   -3.5749   -0.9380 H         1 <0>         0.4047
     29 H8         -1.4750   -6.0251    2.3265 H         1 <0>         0.1455
     30 H9         -2.7428   -7.6202    0.9462 H         1 <0>         0.1335
     31 H10        -2.6482   -7.4764   -1.5072 H         1 <0>         0.1325
     32 H11        -1.2933   -5.7487   -2.6019 H         1 <0>         0.1251
@<TRIPOS>BOND
     1    1    6 ar
     2    1    2 ar
     3    1   24 1
     4    2    3 ar
     5    2   25 1
     6    3    4 ar
     7    3   26 1
     8    4    9 1
     9    4    5 ar
    10    5    6 ar
    11    5    7 1
    12    6   27 1
    13    7    8 2
    14    7   12 1
    15    8    9 1
    16    8   11 1
    17    9   10 1
    18   11   28 1
    19   12   20 1
    20   12   13 2
    21   13   14 1
    22   13   22 1
    23   14   19 ar
    24   14   15 ar
    25   15   16 ar
    26   15   29 1
    27   16   17 ar
    28   16   30 1
    29   17   18 ar
    30   17   31 1
    31   18   19 ar
    32   18   32 1
    33   19   20 1
    34   20   21 1
    35   22   23 2
@<TRIPOS>MOLECULE
ZINC18230030
   32    35     0     0     0
SMALL
USER_CHARGES

@<TRIPOS>ATOM
      1 C1         -0.0166    1.3757    0.0096 C.ar      1 <0>        -0.1357
      2 C2          1.1722    2.0867    0.0021 C.ar      1 <0>        -0.0871
      3 C3          2.3853    1.4289   -0.0135 C.ar      1 <0>        -0.1330
      4 C4          2.4252    0.0389   -0.0214 C.ar      1 <0>         0.1465
      5 C5          1.2200   -0.6774   -0.0133 C.ar      1 <0>        -0.0875
      6 C6          0.0021   -0.0041    0.0020 C.ar      1 <0>        -0.0793
      7 C7          1.5867   -2.1097   -0.0238 C.2       1 <0>        -0.2136
      8 C8          0.7284   -3.2007   -0.0213 C.2       1 <0>         0.3077
      9 C9          1.1246   -4.6257   -0.0260 C.2       1 <0>         0.1435
     10 N1          2.3359   -5.1133   -0.0337 N.2       1 <0>        -0.2047
     11 O1          2.5348   -6.5152   -0.0374 O.3       1 <0>        -0.3879
     12 C10        -0.1511   -5.3804   -0.0197 C.ar      1 <0>        -0.1524
     13 C11        -0.4460   -6.7399   -0.0207 C.ar      1 <0>        -0.0325
     14 C12        -1.7620   -7.1560   -0.0139 C.ar      1 <0>        -0.1476
     15 C13        -2.7850   -6.2226   -0.0067 C.ar      1 <0>        -0.0650
     16 C14        -2.5032   -4.8720   -0.0061 C.ar      1 <0>        -0.1436
     17 C15        -1.1821   -4.4335   -0.0119 C.ar      1 <0>         0.1573
     18 N2         -0.6401   -3.1547   -0.0078 N.pl3     1 <0>        -0.6231
     19 C16         3.0542   -2.1288   -0.0380 C.2       1 <0>         0.5661
     20 O2          3.7569   -3.1240   -0.0505 O.2       1 <0>        -0.4814
     21 N3          3.4872   -0.8566   -0.0360 N.am      1 <0>        -0.6546
     22 H1         -0.9596    1.9020    0.0260 H         1 <0>         0.1299
     23 H2          1.1495    3.1665    0.0081 H         1 <0>         0.1317
     24 H3          3.3053    1.9946   -0.0200 H         1 <0>         0.1287
     25 H4         -0.9244   -0.5591    0.0079 H         1 <0>         0.1145
     26 H5          3.4646   -6.7806   -0.0431 H         1 <0>         0.4151
     27 H6          0.3522   -7.4674   -0.0270 H         1 <0>         0.1376
     28 H7         -1.9942   -8.2107   -0.0147 H         1 <0>         0.1348
     29 H8         -3.8126   -6.5549   -0.0018 H         1 <0>         0.1367
     30 H9         -3.3094   -4.1534   -0.0008 H         1 <0>         0.1326
     31 H10        -1.1620   -2.3371    0.0014 H         1 <0>         0.4278
     32 H11         4.4217   -0.5969   -0.0438 H         1 <0>         0.4186
@<TRIPOS>BOND
     1    1    6 ar
     2    1    2 ar
     3    1   22 1
     4    2    3 ar
     5    2   23 1
     6    3    4 ar
     7    3   24 1
     8    4   21 1
     9    4    5 ar
    10    5    6 ar
    11    5    7 1
    12    6   25 1
    13    7    8 2
    14    7   19 1
    15    8   18 1
    16    8    9 1
    17    9   10 2
    18    9   12 1
    19   10   11 1
    20   11   26 1
    21   12   17 ar
    22   12   13 ar
    23   13   14 ar
    24   13   27 1
    25   14   15 ar
    26   14   28 1
    27   15   16 ar
    28   15   29 1
    29   16   17 ar
    30   16   30 1
    31   17   18 1
    32   18   31 1
    33   19   20 2
    34   19   21 am
    35   21   32 1
@<TRIPOS>MOLECULE
ZINC24811973
   71    76     0     0     0
SMALL
USER_CHARGES
N-(5-chloro-1,3-benzodioxol-4-yl)-7-[2-(4-methylpiperazin-1-yl)ethoxy]-5-tetrahydropyran-4-yloxy-quinazolin-4-amine
@<TRIPOS>ATOM
      1 C1          7.5655    6.2744    4.3229 C.3       1 <0>        -0.0453
      2 N1          6.9185    4.9776    4.0827 N.4       1 <0>        -0.4025
      3 C2          5.4989    5.0194    4.4603 C.3       1 <0>         0.0006
      4 C3          4.8821    3.6316    4.2705 C.3       1 <0>         0.0191
      5 N2          5.0395    3.2159    2.8697 N.3       1 <0>        -0.5340
      6 C4          6.4591    3.1741    2.4921 C.3       1 <0>         0.0256
      7 C5          7.0759    4.5619    2.6820 C.3       1 <0>         0.0003
      8 C6          4.3925    1.9191    2.6296 C.3       1 <0>         0.0546
      9 C7          2.8759    2.1102    2.5640 C.3       1 <0>         0.0573
     10 O1          2.5474    2.9314    1.4415 O.3       1 <0>        -0.2956
     11 C8          1.2320    3.2001    1.2382 C.ar      1 <0>         0.2139
     12 C9          0.2891    2.6820    2.1028 C.ar      1 <0>        -0.2556
     13 C10        -1.0666    2.9521    1.8929 C.ar      1 <0>         0.2617
     14 C11        -1.4550    3.7658    0.7994 C.ar      1 <0>        -0.2443
     15 C12        -0.4786    4.2833   -0.0680 C.ar      1 <0>         0.2316
     16 C13         0.8507    3.9969    0.1584 C.ar      1 <0>        -0.2679
     17 O2         -0.8412    5.0596   -1.1206 O.3       1 <0>        -0.3196
     18 C14         0.2045    5.5149   -1.9816 C.3       1 <0>         0.0868
     19 C15         0.8408    6.7773   -1.3918 C.3       1 <0>        -0.1819
     20 C16         1.9040    7.3033   -2.3597 C.3       1 <0>         0.0642
     21 O3          1.3058    7.5588   -3.6321 O.3       1 <0>        -0.3754
     22 C17         0.7375    6.4035   -4.2522 C.3       1 <0>         0.0639
     23 C18        -0.3741    5.8427   -3.3615 C.3       1 <0>        -0.1585
     24 C19        -2.8318    4.0257    0.6163 C.ar      1 <0>         0.5015
     25 N3         -3.6910    3.4986    1.4806 N.ar      1 <0>        -0.5890
     26 C20        -3.2828    2.7482    2.4909 C.ar      1 <0>         0.3723
     27 N4         -2.0187    2.4733    2.7099 N.ar      1 <0>        -0.5672
     28 N5         -3.2714    4.8066   -0.4322 N.pl3     1 <0>        -0.6413
     29 C21        -4.6269    5.1462   -0.5324 C.ar      1 <0>         0.1713
     30 C22        -5.5908    4.1480   -0.6043 C.ar      1 <0>        -0.0138
     31 C23        -6.9287    4.4835   -0.6963 C.ar      1 <0>        -0.0868
     32 C24        -7.3118    5.8118   -0.7302 C.ar      1 <0>        -0.0893
     33 C25        -6.3565    6.8144   -0.6652 C.ar      1 <0>         0.0501
     34 C26        -5.0093    6.4829   -0.5658 C.ar      1 <0>         0.0316
     35 O4         -4.2778    7.6354   -0.5173 O.3       1 <0>        -0.3024
     36 C27        -5.1574    8.6689   -0.9986 C.3       1 <0>         0.2077
     37 O5         -6.4715    8.1749   -0.6789 O.3       1 <0>        -0.2967
     38 Cl1        -5.1153    2.4788   -0.5700 Cl        1 <0>        -0.0325
     39 H1          7.4326    6.5608    5.3766 H         1 <0>         0.1247
     40 H2          7.1092    7.0374    3.6751 H         1 <0>         0.1198
     41 H3          8.6392    6.1959    4.0968 H         1 <0>         0.1251
     42 H4          5.4086    5.3208    5.5143 H         1 <0>         0.1365
     43 H5          4.9716    5.7461    3.8247 H         1 <0>         0.1349
     44 H6          5.3914    2.9111    4.9273 H         1 <0>         0.0633
     45 H7          3.8126    3.6677    4.5254 H         1 <0>         0.1226
     46 H8          6.9863    2.4474    3.1277 H         1 <0>         0.0617
     47 H9          6.5495    2.8728    1.4380 H         1 <0>         0.1248
     48 H10         6.5668    5.2834    2.0260 H         1 <0>         0.1350
     49 H11         8.1456    4.5267    2.4279 H         1 <0>         0.1366
     50 H12         4.7510    1.5012    1.6773 H         1 <0>         0.1011
     51 H13         4.6399    1.2285    3.4493 H         1 <0>         0.0750
     52 H14         2.3872    1.1305    2.4572 H         1 <0>         0.0821
     53 H15         2.5271    2.5951    3.4877 H         1 <0>         0.0690
     54 H16         0.5969    2.0668    2.9354 H         1 <0>         0.1422
     55 H17         1.6040    4.3933   -0.5062 H         1 <0>         0.1435
     56 H18         0.9260    4.6862   -2.0334 H         1 <0>         0.0874
     57 H19         0.0655    7.5433   -1.2427 H         1 <0>         0.0903
     58 H20         1.3079    6.5354   -0.4257 H         1 <0>         0.0834
     59 H21         2.3326    8.2352   -1.9624 H         1 <0>         0.1028
     60 H22         2.7001    6.5528   -2.4731 H         1 <0>         0.0539
     61 H23         0.3189    6.6811   -5.2308 H         1 <0>         0.1103
     62 H24         1.5176    5.6403   -4.3903 H         1 <0>         0.0577
     63 H25        -0.7839    4.9277   -3.8140 H         1 <0>         0.0906
     64 H26        -1.1747    6.5895   -3.2554 H         1 <0>         0.0897
     65 H27        -4.0231    2.3437    3.1652 H         1 <0>         0.1966
     66 H28        -2.5577    5.1627   -1.1897 H         1 <0>         0.4524
     67 H29        -7.6766    3.7060   -0.7472 H         1 <0>         0.1549
     68 H30        -8.3579    6.0688   -0.8071 H         1 <0>         0.1504
     69 H31        -4.9302    9.6134   -0.4826 H         1 <0>         0.1369
     70 H32        -5.0128    8.7986   -2.0813 H         1 <0>         0.0896
     71 H33         7.4170    4.2298    4.7170 H         1 <0>         0.4406
@<TRIPOS>BOND
     1    1    2 1
     2    1   39 1
     3    1   40 1
     4    1   41 1
     5    2    7 1
     6    2    3 1
     7    2   71 1
     8    3    4 1
     9    3   42 1
    10    3   43 1
    11    4    5 1
    12    4   44 1
    13    4   45 1
    14    5    6 1
    15    5    8 1
    16    6    7 1
    17    6   46 1
    18    6   47 1
    19    7   48 1
    20    7   49 1
    21    8    9 1
    22    8   50 1
    23    8   51 1
    24    9   10 1
    25    9   52 1
    26    9   53 1
    27   10   11 1
    28   11   16 ar
    29   11   12 ar
    30   12   13 ar
    31   12   54 1
    32   13   27 ar
    33   13   14 ar
    34   14   15 ar
    35   14   24 ar
    36   15   16 ar
    37   15   17 1
    38   16   55 1
    39   17   18 1
    40   18   23 1
    41   18   19 1
    42   18   56 1
    43   19   20 1
    44   19   57 1
    45   19   58 1
    46   20   21 1
    47   20   59 1
    48   20   60 1
    49   21   22 1
    50   22   23 1
    51   22   61 1
    52   22   62 1
    53   23   63 1
    54   23   64 1
    55   24   25 ar
    56   24   28 1
    57   25   26 ar
    58   26   27 ar
    59   26   65 1
    60   28   29 1
    61   28   66 1
    62   29   34 ar
    63   29   30 ar
    64   30   31 ar
    65   30   38 1
    66   31   32 ar
    67   31   67 1
    68   32   33 ar
    69   32   68 1
    70   33   37 1
    71   33   34 ar
    72   34   35 1
    73   35   36 1
    74   36   37 1
    75   36   69 1
    76   36   70 1
@<TRIPOS>MOLECULE
ZINC24811973
   71    76     0     0     0
SMALL
USER_CHARGES
N-(5-chloro-1,3-benzodioxol-4-yl)-7-[2-(4-methylpiperazin-1-yl)ethoxy]-5-tetrahydropyran-4-yloxy-quinazolin-4-amine
@<TRIPOS>ATOM
      1 C1          7.5655    6.2744    4.3229 C.3       1 <0>         0.0170
      2 N1          6.9185    4.9776    4.0827 N.3       1 <0>        -0.5430
      3 C2          5.4989    5.0194    4.4603 C.3       1 <0>         0.0239
      4 C3          4.8821    3.6316    4.2705 C.3       1 <0>        -0.0046
      5 N2          5.0395    3.2159    2.8697 N.4       1 <0>        -0.4045
      6 C4          6.4591    3.1741    2.4921 C.3       1 <0>         0.0008
      7 C5          7.0759    4.5619    2.6820 C.3       1 <0>         0.0231
      8 C6          4.3925    1.9191    2.6296 C.3       1 <0>         0.0022
      9 C7          2.8759    2.1102    2.5640 C.3       1 <0>         0.0216
     10 O1          2.5474    2.9314    1.4415 O.3       1 <0>        -0.3251
     11 C8          1.2320    3.2001    1.2382 C.ar      1 <0>         0.2059
     12 C9          0.2891    2.6820    2.1028 C.ar      1 <0>        -0.2460
     13 C10        -1.0666    2.9521    1.8929 C.ar      1 <0>         0.2625
     14 C11        -1.4550    3.7658    0.7994 C.ar      1 <0>        -0.2415
     15 C12        -0.4786    4.2833   -0.0680 C.ar      1 <0>         0.2396
     16 C13         0.8507    3.9969    0.1584 C.ar      1 <0>        -0.2718
     17 O2         -0.8412    5.0596   -1.1206 O.3       1 <0>        -0.3174
     18 C14         0.2045    5.5149   -1.9816 C.3       1 <0>         0.0868
     19 C15         0.8408    6.7773   -1.3918 C.3       1 <0>        -0.1825
     20 C16         1.9040    7.3033   -2.3597 C.3       1 <0>         0.0637
     21 O3          1.3058    7.5588   -3.6321 O.3       1 <0>        -0.3736
     22 C17         0.7375    6.4035   -4.2522 C.3       1 <0>         0.0637
     23 C18        -0.3741    5.8427   -3.3615 C.3       1 <0>        -0.1592
     24 C19        -2.8318    4.0257    0.6163 C.ar      1 <0>         0.5024
     25 N3         -3.6910    3.4986    1.4806 N.ar      1 <0>        -0.5847
     26 C20        -3.2828    2.7482    2.4909 C.ar      1 <0>         0.3779
     27 N4         -2.0187    2.4733    2.7099 N.ar      1 <0>        -0.5668
     28 N5         -3.2714    4.8066   -0.4322 N.pl3     1 <0>        -0.6379
     29 C21        -4.6269    5.1462   -0.5324 C.ar      1 <0>         0.1670
     30 C22        -5.5908    4.1480   -0.6043 C.ar      1 <0>        -0.0135
     31 C23        -6.9287    4.4835   -0.6963 C.ar      1 <0>        -0.0861
     32 C24        -7.3118    5.8118   -0.7302 C.ar      1 <0>        -0.0874
     33 C25        -6.3565    6.8144   -0.6652 C.ar      1 <0>         0.0512
     34 C26        -5.0093    6.4829   -0.5658 C.ar      1 <0>         0.0329
     35 O4         -4.2778    7.6354   -0.5173 O.3       1 <0>        -0.3029
     36 C27        -5.1574    8.6689   -0.9986 C.3       1 <0>         0.2078
     37 O5         -6.4715    8.1749   -0.6789 O.3       1 <0>        -0.2957
     38 Cl1        -5.1153    2.4788   -0.5700 Cl        1 <0>        -0.0332
     39 H1          7.4326    6.5608    5.3766 H         1 <0>         0.0847
     40 H2          7.1092    7.0374    3.6751 H         1 <0>         0.0397
     41 H3          8.6392    6.1959    4.0968 H         1 <0>         0.0853
     42 H4          5.4086    5.3208    5.5143 H         1 <0>         0.1247
     43 H5          4.9716    5.7461    3.8247 H         1 <0>         0.0605
     44 H6          5.3914    2.9111    4.9273 H         1 <0>         0.1387
     45 H7          3.8126    3.6677    4.5254 H         1 <0>         0.1343
     46 H8          6.9863    2.4474    3.1277 H         1 <0>         0.1371
     47 H9          6.5495    2.8728    1.4380 H         1 <0>         0.1373
     48 H10         6.5668    5.2834    2.0260 H         1 <0>         0.0606
     49 H11         8.1456    4.5267    2.4279 H         1 <0>         0.1249
     50 H12         4.7510    1.5012    1.6773 H         1 <0>         0.1442
     51 H13         4.6399    1.2285    3.4493 H         1 <0>         0.1512
     52 H14         2.3872    1.1305    2.4572 H         1 <0>         0.1174
     53 H15         2.5271    2.5951    3.4877 H         1 <0>         0.0921
     54 H16         0.5969    2.0668    2.9354 H         1 <0>         0.1449
     55 H17         1.6040    4.3933   -0.5062 H         1 <0>         0.1457
     56 H18         0.9260    4.6862   -2.0334 H         1 <0>         0.0870
     57 H19         0.0655    7.5433   -1.2427 H         1 <0>         0.0923
     58 H20         1.3079    6.5354   -0.4257 H         1 <0>         0.0820
     59 H21         2.3326    8.2352   -1.9624 H         1 <0>         0.1045
     60 H22         2.7001    6.5528   -2.4731 H         1 <0>         0.0533
     61 H23         0.3189    6.6811   -5.2308 H         1 <0>         0.1117
     62 H24         1.5176    5.6403   -4.3903 H         1 <0>         0.0578
     63 H25        -0.7839    4.9277   -3.8140 H         1 <0>         0.0914
     64 H26        -1.1747    6.5895   -3.2554 H         1 <0>         0.0911
     65 H27        -4.0231    2.3437    3.1652 H         1 <0>         0.1996
     66 H28        -2.5577    5.1627   -1.1897 H         1 <0>         0.4528
     67 H29        -7.6766    3.7060   -0.7472 H         1 <0>         0.1558
     68 H30        -8.3579    6.0688   -0.8071 H         1 <0>         0.1515
     69 H31        -4.9302    9.6134   -0.4826 H         1 <0>         0.1379
     70 H32        -5.0128    8.7986   -2.0813 H         1 <0>         0.0905
     71 H33         4.5411    3.9636    2.2353 H         1 <0>         0.4448
@<TRIPOS>BOND
     1    1    2 1
     2    1   39 1
     3    1   40 1
     4    1   41 1
     5    2    7 1
     6    2    3 1
     7    3    4 1
     8    3   42 1
     9    3   43 1
    10    4    5 1
    11    4   44 1
    12    4   45 1
    13    5    6 1
    14    5    8 1
    15    5   71 1
    16    6    7 1
    17    6   46 1
    18    6   47 1
    19    7   48 1
    20    7   49 1
    21    8    9 1
    22    8   50 1
    23    8   51 1
    24    9   10 1
    25    9   52 1
    26    9   53 1
    27   10   11 1
    28   11   16 ar
    29   11   12 ar
    30   12   13 ar
    31   12   54 1
    32   13   27 ar
    33   13   14 ar
    34   14   15 ar
    35   14   24 ar
    36   15   16 ar
    37   15   17 1
    38   16   55 1
    39   17   18 1
    40   18   23 1
    41   18   19 1
    42   18   56 1
    43   19   20 1
    44   19   57 1
    45   19   58 1
    46   20   21 1
    47   20   59 1
    48   20   60 1
    49   21   22 1
    50   22   23 1
    51   22   61 1
    52   22   62 1
    53   23   63 1
    54   23   64 1
    55   24   25 ar
    56   24   28 1
    57   25   26 ar
    58   26   27 ar
    59   26   65 1
    60   28   29 1
    61   28   66 1
    62   29   34 ar
    63   29   30 ar
    64   30   31 ar
    65   30   38 1
    66   31   32 ar
    67   31   67 1
    68   32   33 ar
    69   32   68 1
    70   33   37 1
    71   33   34 ar
    72   34   35 1
    73   35   36 1
    74   36   37 1
    75   36   69 1
    76   36   70 1
@<TRIPOS>MOLECULE
ZINC24811973
   70    75     0     0     0
SMALL
USER_CHARGES
N-(5-chloro-1,3-benzodioxol-4-yl)-7-[2-(4-methylpiperazin-1-yl)ethoxy]-5-tetrahydropyran-4-yloxy-quinazolin-4-amine
@<TRIPOS>ATOM
      1 C1          7.5655    6.2744    4.3229 C.3       1 <0>         0.0226
      2 N1          6.9185    4.9776    4.0827 N.3       1 <0>        -0.5457
      3 C2          5.4989    5.0194    4.4603 C.3       1 <0>         0.0556
      4 C3          4.8821    3.6316    4.2705 C.3       1 <0>         0.0522
      5 N2          5.0395    3.2159    2.8697 N.3       1 <0>        -0.5333
      6 C4          6.4591    3.1741    2.4921 C.3       1 <0>         0.0571
      7 C5          7.0759    4.5619    2.6820 C.3       1 <0>         0.0553
      8 C6          4.3925    1.9191    2.6296 C.3       1 <0>         0.0535
      9 C7          2.8759    2.1102    2.5640 C.3       1 <0>         0.0608
     10 O1          2.5474    2.9314    1.4415 O.3       1 <0>        -0.2892
     11 C8          1.2320    3.2001    1.2382 C.ar      1 <0>         0.2205
     12 C9          0.2891    2.6820    2.1028 C.ar      1 <0>        -0.2568
     13 C10        -1.0666    2.9521    1.8929 C.ar      1 <0>         0.2601
     14 C11        -1.4550    3.7658    0.7994 C.ar      1 <0>        -0.2438
     15 C12        -0.4786    4.2833   -0.0680 C.ar      1 <0>         0.2247
     16 C13         0.8507    3.9969    0.1584 C.ar      1 <0>        -0.2620
     17 O2         -0.8412    5.0596   -1.1206 O.3       1 <0>        -0.3213
     18 C14         0.2045    5.5149   -1.9816 C.3       1 <0>         0.0860
     19 C15         0.8408    6.7773   -1.3918 C.3       1 <0>        -0.1829
     20 C16         1.9040    7.3033   -2.3597 C.3       1 <0>         0.0632
     21 O3          1.3058    7.5588   -3.6321 O.3       1 <0>        -0.3771
     22 C17         0.7375    6.4035   -4.2522 C.3       1 <0>         0.0639
     23 C18        -0.3741    5.8427   -3.3615 C.3       1 <0>        -0.1562
     24 C19        -2.8318    4.0257    0.6163 C.ar      1 <0>         0.5004
     25 N3         -3.6910    3.4986    1.4806 N.ar      1 <0>        -0.5929
     26 C20        -3.2828    2.7482    2.4909 C.ar      1 <0>         0.3659
     27 N4         -2.0187    2.4733    2.7099 N.ar      1 <0>        -0.5638
     28 N5         -3.2714    4.8066   -0.4322 N.pl3     1 <0>        -0.6450
     29 C21        -4.6269    5.1462   -0.5324 C.ar      1 <0>         0.1769
     30 C22        -5.5908    4.1480   -0.6043 C.ar      1 <0>        -0.0142
     31 C23        -6.9287    4.4835   -0.6963 C.ar      1 <0>        -0.0884
     32 C24        -7.3118    5.8118   -0.7302 C.ar      1 <0>        -0.0924
     33 C25        -6.3565    6.8144   -0.6652 C.ar      1 <0>         0.0485
     34 C26        -5.0093    6.4829   -0.5658 C.ar      1 <0>         0.0310
     35 O4         -4.2778    7.6354   -0.5173 O.3       1 <0>        -0.3005
     36 C27        -5.1574    8.6689   -0.9986 C.3       1 <0>         0.2076
     37 O5         -6.4715    8.1749   -0.6789 O.3       1 <0>        -0.2984
     38 Cl1        -5.1153    2.4788   -0.5700 Cl        1 <0>        -0.0322
     39 H1          7.4326    6.5608    5.3766 H         1 <0>         0.0697
     40 H2          7.1092    7.0374    3.6751 H         1 <0>         0.0269
     41 H3          8.6392    6.1959    4.0968 H         1 <0>         0.0702
     42 H4          5.4086    5.3208    5.5143 H         1 <0>         0.0806
     43 H5          4.9716    5.7461    3.8247 H         1 <0>         0.0432
     44 H6          5.3914    2.9111    4.9273 H         1 <0>         0.0453
     45 H7          3.8126    3.6677    4.5254 H         1 <0>         0.0800
     46 H8          6.9863    2.4474    3.1277 H         1 <0>         0.0439
     47 H9          6.5495    2.8728    1.4380 H         1 <0>         0.0822
     48 H10         6.5668    5.2834    2.0260 H         1 <0>         0.0435
     49 H11         8.1456    4.5267    2.4279 H         1 <0>         0.0809
     50 H12         4.7510    1.5012    1.6773 H         1 <0>         0.0884
     51 H13         4.6399    1.2285    3.4493 H         1 <0>         0.0645
     52 H14         2.3872    1.1305    2.4572 H         1 <0>         0.0740
     53 H15         2.5271    2.5951    3.4877 H         1 <0>         0.0694
     54 H16         0.5969    2.0668    2.9354 H         1 <0>         0.1439
     55 H17         1.6040    4.3933   -0.5062 H         1 <0>         0.1444
     56 H18         0.9260    4.6862   -2.0334 H         1 <0>         0.0882
     57 H19         0.0655    7.5433   -1.2427 H         1 <0>         0.0888
     58 H20         1.3079    6.5354   -0.4257 H         1 <0>         0.0870
     59 H21         2.3326    8.2352   -1.9624 H         1 <0>         0.1042
     60 H22         2.7001    6.5528   -2.4731 H         1 <0>         0.0567
     61 H23         0.3189    6.6811   -5.2308 H         1 <0>         0.1074
     62 H24         1.5176    5.6403   -4.3903 H         1 <0>         0.0576
     63 H25        -0.7839    4.9277   -3.8140 H         1 <0>         0.0886
     64 H26        -1.1747    6.5895   -3.2554 H         1 <0>         0.0878
     65 H27        -4.0231    2.3437    3.1652 H         1 <0>         0.1941
     66 H28        -2.5577    5.1627   -1.1897 H         1 <0>         0.4526
     67 H29        -7.6766    3.7060   -0.7472 H         1 <0>         0.1532
     68 H30        -8.3579    6.0688   -0.8071 H         1 <0>         0.1483
     69 H31        -4.9302    9.6134   -0.4826 H         1 <0>         0.1363
     70 H32        -5.0128    8.7986   -2.0813 H         1 <0>         0.0886
@<TRIPOS>BOND
     1    1    2 1
     2    1   39 1
     3    1   40 1
     4    1   41 1
     5    2    7 1
     6    2    3 1
     7    3    4 1
     8    3   42 1
     9    3   43 1
    10    4    5 1
    11    4   44 1
    12    4   45 1
    13    5    6 1
    14    5    8 1
    15    6    7 1
    16    6   46 1
    17    6   47 1
    18    7   48 1
    19    7   49 1
    20    8    9 1
    21    8   50 1
    22    8   51 1
    23    9   10 1
    24    9   52 1
    25    9   53 1
    26   10   11 1
    27   11   16 ar
    28   11   12 ar
    29   12   13 ar
    30   12   54 1
    31   13   27 ar
    32   13   14 ar
    33   14   15 ar
    34   14   24 ar
    35   15   16 ar
    36   15   17 1
    37   16   55 1
    38   17   18 1
    39   18   23 1
    40   18   19 1
    41   18   56 1
    42   19   20 1
    43   19   57 1
    44   19   58 1
    45   20   21 1
    46   20   59 1
    47   20   60 1
    48   21   22 1
    49   22   23 1
    50   22   61 1
    51   22   62 1
    52   23   63 1
    53   23   64 1
    54   24   25 ar
    55   24   28 1
    56   25   26 ar
    57   26   27 ar
    58   26   65 1
    59   28   29 1
    60   28   66 1
    61   29   34 ar
    62   29   30 ar
    63   30   31 ar
    64   30   38 1
    65   31   32 ar
    66   31   67 1
    67   32   33 ar
    68   32   68 1
    69   33   37 1
    70   33   34 ar
    71   34   35 1
    72   35   36 1
    73   36   37 1
    74   36   69 1
    75   36   70 1
@<TRIPOS>MOLECULE
ZINC37858297
   30    32     0     0     0
SMALL
USER_CHARGES

@<TRIPOS>ATOM
      1 C1         -0.0184    1.5028    0.0103 C.3       1 <0>        -0.1062
      2 C2          0.0021   -0.0041    0.0020 C.ar      1 <0>        -0.0780
      3 C3          0.0057   -0.6781   -1.1782 C.ar      1 <0>        -0.0377
      4 C4          0.0246   -2.0820   -1.2063 C.ar      1 <0>        -0.0537
      5 C5          0.0400   -2.8097   -0.0304 C.ar      1 <0>        -0.0170
      6 C6          0.0365   -2.1336    1.1980 C.ar      1 <0>        -0.0347
      7 C7          0.0232   -0.7135    1.2135 C.ar      1 <0>         0.1995
      8 N1          0.0254   -0.0847    2.3954 N.ar      1 <0>        -0.5152
      9 C8          0.0453   -0.8027    3.5038 C.ar      1 <0>         0.5043
     10 N2          0.0631   -2.1372    3.4710 N.ar      1 <0>        -0.2971
     11 N3          0.0509   -2.7937    2.3618 N.ar      1 <0>        -0.0980
     12 N4          0.0481   -0.1568    4.7273 N.pl3     1 <0>        -0.8063
     13 C9          0.0276   -2.7909   -2.5090 C.ar      1 <0>        -0.0355
     14 C10        -1.0690   -2.6881   -3.3647 C.ar      1 <0>        -0.0128
     15 C11        -1.0601   -3.3508   -4.5767 C.ar      1 <0>        -0.1040
     16 C12         0.0332   -4.1150   -4.9423 C.ar      1 <0>        -0.0875
     17 C13         1.1237   -4.2210   -4.0982 C.ar      1 <0>        -0.1036
     18 C14         1.1294   -3.5585   -2.8860 C.ar      1 <0>        -0.0131
     19 Cl1         2.5022   -3.6864   -1.8312 Cl        1 <0>        -0.0454
     20 Cl2        -2.4423   -1.7298   -2.9073 Cl        1 <0>        -0.0458
     21 H1          1.0042    1.8801    0.0026 H         1 <0>         0.0752
     22 H2         -0.5455    1.8639   -0.8728 H         1 <0>         0.0711
     23 H3         -0.5286    1.8543    0.9071 H         1 <0>         0.0790
     24 H4         -0.0065   -0.1267   -2.1068 H         1 <0>         0.1410
     25 H5          0.0541   -3.8892   -0.0579 H         1 <0>         0.1468
     26 H6          0.0356    0.8124    4.7641 H         1 <0>         0.4186
     27 H7          0.0626   -0.6732    5.5483 H         1 <0>         0.4206
     28 H8         -1.9088   -3.2723   -5.2400 H         1 <0>         0.1447
     29 H9          0.0352   -4.6316   -5.8908 H         1 <0>         0.1460
     30 H10         1.9742   -4.8195   -4.3891 H         1 <0>         0.1448
@<TRIPOS>BOND
     1    1    2 1
     2    1   21 1
     3    1   22 1
     4    1   23 1
     5    2    7 ar
     6    2    3 ar
     7    3    4 ar
     8    3   24 1
     9    4    5 ar
    10    4   13 1
    11    5    6 ar
    12    5   25 1
    13    6   11 ar
    14    6    7 ar
    15    7    8 ar
    16    8    9 ar
    17    9   10 ar
    18    9   12 1
    19   10   11 ar
    20   12   26 1
    21   12   27 1
    22   13   18 ar
    23   13   14 ar
    24   14   15 ar
    25   14   20 1
    26   15   16 ar
    27   15   28 1
    28   16   17 ar
    29   16   29 1
    30   17   18 ar
    31   17   30 1
    32   18   19 1
@<TRIPOS>MOLECULE
ZINC34637143
   68    71     0     0     0
SMALL
USER_CHARGES

@<TRIPOS>ATOM
      1 C1          1.2556   -9.3717   -4.5606 C.3       1 <0>        -0.1880
      2 C2          0.6912   -7.9954   -4.9188 C.3       1 <0>        -0.0172
      3 N1          1.0324   -7.6735   -6.3110 N.4       1 <0>        -0.3881
      4 C3          0.3565   -8.6171   -7.2115 C.3       1 <0>        -0.0155
      5 C4          0.8387   -8.3880   -8.6453 C.3       1 <0>        -0.1896
      6 C5          0.5956   -6.3050   -6.6183 C.3       1 <0>        -0.0063
      7 C6          1.4023   -5.3118   -5.7795 C.3       1 <0>         0.0266
      8 O1          2.7811   -5.3872   -6.1474 O.3       1 <0>        -0.3244
      9 C7          3.6537   -4.6336   -5.4280 C.ar      1 <0>         0.1383
     10 C8          3.1920   -3.8421   -4.3852 C.ar      1 <0>        -0.2218
     11 C9          4.0779   -3.0753   -3.6528 C.ar      1 <0>        -0.0522
     12 C10         5.4258   -3.0940   -3.9553 C.ar      1 <0>        -0.1681
     13 C11         5.8936   -3.8841   -4.9977 C.ar      1 <0>         0.2072
     14 C12         5.0056   -4.6592   -5.7313 C.ar      1 <0>        -0.1460
     15 N2          7.2573   -3.9025   -5.3046 N.pl3     1 <0>        -0.6284
     16 C13         7.6694   -4.0578   -6.6171 C.ar      1 <0>         0.4866
     17 N3          8.9581   -4.1884   -6.8777 N.ar      1 <0>        -0.4957
     18 C14         9.3524   -4.3383   -8.1478 C.ar      1 <0>         0.1879
     19 C15        10.7079   -4.4821   -8.4862 C.ar      1 <0>        -0.0725
     20 C16        11.0690   -4.6326   -9.7875 C.ar      1 <0>        -0.0472
     21 C17        10.1027   -4.6467  -10.8068 C.ar      1 <0>        -0.0167
     22 C18         8.7604   -4.5071  -10.5065 C.ar      1 <0>        -0.0482
     23 C19         8.3661   -4.3511   -9.1697 C.ar      1 <0>        -0.0173
     24 N4          7.0796   -4.2134   -8.8296 N.ar      1 <0>        -0.1082
     25 N5          6.7553   -4.0776   -7.5895 N.ar      1 <0>        -0.2863
     26 C20        10.5264   -4.8126  -12.2187 C.ar      1 <0>        -0.0687
     27 C21        11.3073   -3.8358  -12.8339 C.ar      1 <0>        -0.0594
     28 C22        11.6990   -3.9956  -14.1476 C.ar      1 <0>        -0.1241
     29 C23        11.3179   -5.1225  -14.8535 C.ar      1 <0>        -0.1001
     30 C24        10.5424   -6.0949  -14.2481 C.ar      1 <0>        -0.1252
     31 C25        10.1498   -5.9484  -12.9332 C.ar      1 <0>        -0.0614
     32 C26         9.3105   -7.0118  -12.2729 C.3       1 <0>        -0.1186
     33 C27        11.7229   -2.6074  -12.0663 C.3       1 <0>        -0.1207
     34 C28        11.7603   -4.4691   -7.4077 C.3       1 <0>        -0.1099
     35 H1          0.8269  -10.1238   -5.2229 H         1 <0>         0.0813
     36 H2          2.3394   -9.3612   -4.6760 H         1 <0>         0.0805
     37 H3          1.0024   -9.6105   -3.5277 H         1 <0>         0.1067
     38 H4         -0.3926   -8.0059   -4.8035 H         1 <0>         0.1313
     39 H5          1.1199   -7.2433   -4.2565 H         1 <0>         0.1283
     40 H6          0.5889   -9.6381   -6.9087 H         1 <0>         0.1331
     41 H7         -0.7208   -8.4593   -7.1609 H         1 <0>         0.1299
     42 H8          0.6564   -7.3514   -8.9287 H         1 <0>         0.0806
     43 H9          1.9062   -8.5994   -8.7078 H         1 <0>         0.0816
     44 H10         0.2971   -9.0501   -9.3209 H         1 <0>         0.1065
     45 H11         0.7565   -6.1014   -7.6769 H         1 <0>         0.1447
     46 H12        -0.4641   -6.2009   -6.3852 H         1 <0>         0.1495
     47 H13         1.0334   -4.3017   -5.9580 H         1 <0>         0.1105
     48 H14         1.2943   -5.5566   -4.7229 H         1 <0>         0.0864
     49 H15         2.1389   -3.8253   -4.1463 H         1 <0>         0.1287
     50 H16         3.7159   -2.4599   -2.8425 H         1 <0>         0.1370
     51 H17         6.1161   -2.4937   -3.3812 H         1 <0>         0.1350
     52 H18         5.3671   -5.2776   -6.5396 H         1 <0>         0.1428
     53 H19         7.9147   -3.8064   -4.5979 H         1 <0>         0.4312
     54 H20        12.1130   -4.7423  -10.0414 H         1 <0>         0.1453
     55 H21         8.0219   -4.5181  -11.2945 H         1 <0>         0.1480
     56 H22        12.3039   -3.2392  -14.6254 H         1 <0>         0.1271
     57 H23        11.6267   -5.2434  -15.8813 H         1 <0>         0.1265
     58 H24        10.2472   -6.9724  -14.8042 H         1 <0>         0.1261
     59 H25         8.2547   -6.7886  -12.4262 H         1 <0>         0.0724
     60 H26         9.5440   -7.9825  -12.7104 H         1 <0>         0.0703
     61 H27         9.5260   -7.0334  -11.2046 H         1 <0>         0.0647
     62 H28        12.6742   -2.7947  -11.5683 H         1 <0>         0.0750
     63 H29        11.8317   -1.7688  -12.7540 H         1 <0>         0.0718
     64 H30        10.9633   -2.3702  -11.3214 H         1 <0>         0.0655
     65 H31        11.9296   -5.4858   -7.0529 H         1 <0>         0.0773
     66 H32        12.6891   -4.0658   -7.8112 H         1 <0>         0.0747
     67 H33        11.4236   -3.8464   -6.5789 H         1 <0>         0.0795
     68 H34         2.0309   -7.7443   -6.4375 H         1 <0>         0.4295
@<TRIPOS>BOND
     1    1    2 1
     2    1   35 1
     3    1   36 1
     4    1   37 1
     5    2    3 1
     6    2   38 1
     7    2   39 1
     8    3    4 1
     9    3    6 1
    10    3   68 1
    11    4    5 1
    12    4   40 1
    13    4   41 1
    14    5   42 1
    15    5   43 1
    16    5   44 1
    17    6    7 1
    18    6   45 1
    19    6   46 1
    20    7    8 1
    21    7   47 1
    22    7   48 1
    23    8    9 1
    24    9   14 ar
    25    9   10 ar
    26   10   11 ar
    27   10   49 1
    28   11   12 ar
    29   11   50 1
    30   12   13 ar
    31   12   51 1
    32   13   14 ar
    33   13   15 1
    34   14   52 1
    35   15   16 1
    36   15   53 1
    37   16   25 ar
    38   16   17 ar
    39   17   18 ar
    40   18   23 ar
    41   18   19 ar
    42   19   20 ar
    43   19   34 1
    44   20   21 ar
    45   20   54 1
    46   21   22 ar
    47   21   26 1
    48   22   23 ar
    49   22   55 1
    50   23   24 ar
    51   24   25 ar
    52   26   31 ar
    53   26   27 ar
    54   27   28 ar
    55   27   33 1
    56   28   29 ar
    57   28   56 1
    58   29   30 ar
    59   29   57 1
    60   30   31 ar
    61   30   58 1
    62   31   32 1
    63   32   59 1
    64   32   60 1
    65   32   61 1
    66   33   62 1
    67   33   63 1
    68   33   64 1
    69   34   65 1
    70   34   66 1
    71   34   67 1
@<TRIPOS>MOLECULE
ZINC37858319
   36    38     0     0     0
SMALL
USER_CHARGES

@<TRIPOS>ATOM
      1 C1         -0.0184    1.5028    0.0103 C.3       1 <0>        -0.1251
      2 C2          0.0021   -0.0041    0.0020 C.ar      1 <0>        -0.0603
      3 C3          0.0058   -0.6888   -1.1962 C.ar      1 <0>        -0.1257
      4 C4          0.0246   -2.0720   -1.2053 C.ar      1 <0>        -0.1039
      5 C5          0.0402   -2.7765   -0.0150 C.ar      1 <0>        -0.1262
      6 C6          0.0371   -2.1022    1.1891 C.ar      1 <0>        -0.0613
      7 C7          0.0231   -0.7086    1.2043 C.ar      1 <0>        -0.0613
      8 C8          0.0249    0.0219    2.4953 C.ar      1 <0>        -0.0322
      9 C9          1.1425   -0.0642    3.3419 C.ar      1 <0>        -0.0480
     10 C10         1.1702    0.5953    4.5297 C.ar      1 <0>        -0.0783
     11 C11         0.0706    1.3754    4.9233 C.ar      1 <0>         0.1933
     12 C12        -1.0651    1.4702    4.0758 C.ar      1 <0>        -0.0326
     13 C13        -1.0710    0.7856    2.8515 C.ar      1 <0>        -0.0410
     14 N1         -2.1034    2.2179    4.4658 N.ar      1 <0>        -0.1025
     15 N2         -2.0593    2.8367    5.5956 N.ar      1 <0>        -0.2974
     16 C14        -1.0002    2.7587    6.4042 C.ar      1 <0>         0.5017
     17 N3          0.0611    2.0397    6.0852 N.ar      1 <0>        -0.5144
     18 N4         -1.0142    3.4469    7.6043 N.pl3     1 <0>        -0.8074
     19 C15         2.3788    0.4893    5.4236 C.3       1 <0>        -0.1068
     20 C16         0.0540   -2.8712    2.4851 C.3       1 <0>        -0.1193
     21 H1          1.0042    1.8801    0.0026 H         1 <0>         0.0726
     22 H2         -0.5455    1.8639   -0.8728 H         1 <0>         0.0704
     23 H3         -0.5286    1.8543    0.9071 H         1 <0>         0.0707
     24 H4         -0.0063   -0.1438   -2.1285 H         1 <0>         0.1250
     25 H5          0.0267   -2.6038   -2.1453 H         1 <0>         0.1243
     26 H6          0.0544   -3.8564   -0.0280 H         1 <0>         0.1249
     27 H7          1.9910   -0.6628    3.0450 H         1 <0>         0.1409
     28 H8         -1.9257    0.8517    2.1946 H         1 <0>         0.1471
     29 H9         -1.7878    3.9782    7.8496 H         1 <0>         0.4204
     30 H10        -0.2505    3.3980    8.2003 H         1 <0>         0.4183
     31 H11         3.0849    1.2817    5.1753 H         1 <0>         0.0747
     32 H12         2.0709    0.5900    6.4643 H         1 <0>         0.0785
     33 H13         2.8547   -0.4804    5.2777 H         1 <0>         0.0708
     34 H14         1.0857   -3.0426    2.7924 H         1 <0>         0.0734
     35 H15        -0.4638   -2.2982    3.2543 H         1 <0>         0.0671
     36 H16        -0.4475   -3.8288    2.3459 H         1 <0>         0.0695
@<TRIPOS>BOND
     1    1    2 1
     2    1   21 1
     3    1   22 1
     4    1   23 1
     5    2    7 ar
     6    2    3 ar
     7    3    4 ar
     8    3   24 1
     9    4    5 ar
    10    4   25 1
    11    5    6 ar
    12    5   26 1
    13    6    7 ar
    14    6   20 1
    15    7    8 1
    16    8   13 ar
    17    8    9 ar
    18    9   10 ar
    19    9   27 1
    20   10   11 ar
    21   10   19 1
    22   11   17 ar
    23   11   12 ar
    24   12   13 ar
    25   12   14 ar
    26   13   28 1
    27   14   15 ar
    28   15   16 ar
    29   16   17 ar
    30   16   18 1
    31   18   29 1
    32   18   30 1
    33   19   31 1
    34   19   32 1
    35   19   33 1
    36   20   34 1
    37   20   35 1
    38   20   36 1
@<TRIPOS>MOLECULE
ZINC37858318
   31    33     0     0     0
SMALL
USER_CHARGES

@<TRIPOS>ATOM
      1 C1         -0.0184    1.5028    0.0103 C.3       1 <0>        -0.1068
      2 C2          0.0021   -0.0041    0.0020 C.ar      1 <0>        -0.0781
      3 C3          0.0058   -0.6781   -1.1783 C.ar      1 <0>        -0.0412
      4 C4          0.0252   -2.0820   -1.2063 C.ar      1 <0>        -0.0491
      5 C5          0.0410   -2.8096   -0.0305 C.ar      1 <0>        -0.0295
      6 C6          0.0375   -2.1335    1.1979 C.ar      1 <0>        -0.0360
      7 C7          0.0232   -0.7135    1.2135 C.ar      1 <0>         0.1985
      8 N1          0.0249   -0.0848    2.3954 N.ar      1 <0>        -0.5148
      9 C8          0.0447   -0.8028    3.5038 C.ar      1 <0>         0.5041
     10 N2          0.0635   -2.1373    3.4709 N.ar      1 <0>        -0.2972
     11 N3          0.0519   -2.7937    2.3617 N.ar      1 <0>        -0.0999
     12 N4          0.0465   -0.1569    4.7272 N.pl3     1 <0>        -0.8062
     13 C9          0.0283   -2.7909   -2.5092 C.ar      1 <0>        -0.0232
     14 C10         0.9606   -3.7964   -2.7554 C.ar      1 <0>        -0.1189
     15 C11         0.9581   -4.4549   -3.9736 C.ar      1 <0>         0.1172
     16 C12         0.0284   -4.1132   -4.9464 C.ar      1 <0>        -0.1279
     17 C13        -0.8973   -3.1160   -4.7039 C.ar      1 <0>        -0.0889
     18 C14        -0.9059   -2.4569   -3.4895 C.ar      1 <0>        -0.0346
     19 Cl1        -2.0746   -1.2095   -3.1866 Cl        1 <0>        -0.0548
     20 O1          1.8667   -5.4360   -4.2172 O.3       1 <0>        -0.4944
     21 H1          1.0042    1.8801    0.0026 H         1 <0>         0.0756
     22 H2         -0.5455    1.8639   -0.8728 H         1 <0>         0.0711
     23 H3         -0.5286    1.8543    0.9071 H         1 <0>         0.0790
     24 H4         -0.0068   -0.1267   -2.1068 H         1 <0>         0.1428
     25 H5          0.0556   -3.8891   -0.0581 H         1 <0>         0.1488
     26 H6          0.0333    0.8123    4.7641 H         1 <0>         0.4188
     27 H7          0.0610   -0.6733    5.5482 H         1 <0>         0.4207
     28 H8          1.6837   -4.0613   -1.9983 H         1 <0>         0.1429
     29 H9          0.0287   -4.6280   -5.8958 H         1 <0>         0.1418
     30 H10        -1.6181   -2.8537   -5.4642 H         1 <0>         0.1432
     31 H11         1.5689   -6.3200   -3.9622 H         1 <0>         0.3968
@<TRIPOS>BOND
     1    1    2 1
     2    1   21 1
     3    1   22 1
     4    1   23 1
     5    2    7 ar
     6    2    3 ar
     7    3    4 ar
     8    3   24 1
     9    4    5 ar
    10    4   13 1
    11    5    6 ar
    12    5   25 1
    13    6   11 ar
    14    6    7 ar
    15    7    8 ar
    16    8    9 ar
    17    9   10 ar
    18    9   12 1
    19   10   11 ar
    20   12   26 1
    21   12   27 1
    22   13   18 ar
    23   13   14 ar
    24   14   15 ar
    25   14   28 1
    26   15   16 ar
    27   15   20 1
    28   16   17 ar
    29   16   29 1
    30   17   18 ar
    31   17   30 1
    32   18   19 1
    33   20   31 1
@<TRIPOS>MOLECULE
ZINC37858310
   68    71     0     0     0
SMALL
USER_CHARGES

@<TRIPOS>ATOM
      1 C1          3.3166   -2.5163    4.9736 C.3       1 <0>        -0.1868
      2 C2          3.2568   -1.4074    3.9211 C.3       1 <0>        -0.0181
      3 N1          2.1827   -1.6996    2.9625 N.4       1 <0>        -0.3873
      4 C3          0.8847   -1.6383    3.6477 C.3       1 <0>        -0.0149
      5 C4         -0.2203   -2.0831    2.6876 C.3       1 <0>        -0.1885
      6 C5          2.2113   -0.7089    1.8782 C.3       1 <0>        -0.0052
      7 C6          3.5120   -0.8569    1.0863 C.3       1 <0>         0.0255
      8 O1          3.5317   -2.1294    0.4363 O.3       1 <0>        -0.3275
      9 C7          4.6269   -2.4220   -0.3148 C.ar      1 <0>         0.0943
     10 C8          5.6621   -1.5045   -0.4180 C.ar      1 <0>        -0.1753
     11 C9          6.7745   -1.8008   -1.1806 C.ar      1 <0>        -0.0776
     12 C10         6.8567   -3.0179   -1.8443 C.ar      1 <0>         0.1449
     13 C11         5.8200   -3.9359   -1.7405 C.ar      1 <0>        -0.1051
     14 C12         4.7107   -3.6403   -0.9729 C.ar      1 <0>        -0.1157
     15 N2          7.9841   -3.3190   -2.6181 N.pl3     1 <0>        -0.6287
     16 C13         9.2286   -2.8438   -2.2421 C.ar      1 <0>         0.4883
     17 N3         10.2625   -3.0394   -3.0412 N.ar      1 <0>        -0.4977
     18 C14        11.4639   -2.5779   -2.6742 C.ar      1 <0>         0.1893
     19 C15        12.5992   -2.7550   -3.4819 C.ar      1 <0>        -0.0736
     20 C16        13.8022   -2.2716   -3.0751 C.ar      1 <0>        -0.0467
     21 C17        13.9302   -1.5931   -1.8519 C.ar      1 <0>        -0.0182
     22 C18        12.8318   -1.4024   -1.0342 C.ar      1 <0>        -0.0470
     23 C19        11.5808   -1.8934   -1.4353 C.ar      1 <0>        -0.0185
     24 N4         10.4892   -1.7331   -0.6786 N.ar      1 <0>        -0.1077
     25 N5          9.3554   -2.1937   -1.0832 N.ar      1 <0>        -0.2913
     26 C20        15.2562   -1.0767   -1.4333 C.ar      1 <0>        -0.0682
     27 C21        16.2993   -1.9619   -1.1670 C.ar      1 <0>        -0.0602
     28 C22        17.5309   -1.4759   -0.7778 C.ar      1 <0>        -0.1248
     29 C23        17.7312   -0.1130   -0.6519 C.ar      1 <0>        -0.1005
     30 C24        16.6996    0.7703   -0.9150 C.ar      1 <0>        -0.1251
     31 C25        15.4654    0.2957   -1.3104 C.ar      1 <0>        -0.0604
     32 C26        14.3445    1.2595   -1.6031 C.3       1 <0>        -0.1196
     33 C27        16.0824   -3.4470   -1.3032 C.3       1 <0>        -0.1201
     34 C28        12.4834   -3.4805   -4.7977 C.3       1 <0>        -0.1094
     35 H1          3.4100   -3.4827    4.4782 H         1 <0>         0.0803
     36 H2          4.1778   -2.3557    5.6221 H         1 <0>         0.1065
     37 H3          2.4045   -2.5005    5.5702 H         1 <0>         0.0812
     38 H4          3.0583   -0.4533    4.4095 H         1 <0>         0.1311
     39 H5          4.2096   -1.3547    3.3943 H         1 <0>         0.1292
     40 H6          0.9001   -2.2985    4.5148 H         1 <0>         0.1328
     41 H7          0.6935   -0.6156    3.9730 H         1 <0>         0.1298
     42 H8          0.0244   -3.0647    2.2817 H         1 <0>         0.0809
     43 H9         -1.1676   -2.1376    3.2241 H         1 <0>         0.1061
     44 H10        -0.3051   -1.3639    1.8729 H         1 <0>         0.0803
     45 H11         1.3616   -0.8714    1.2150 H         1 <0>         0.1436
     46 H12         2.1555    0.2942    2.3010 H         1 <0>         0.1486
     47 H13         3.5742   -0.0661    0.3387 H         1 <0>         0.1087
     48 H14         4.3613   -0.7826    1.7654 H         1 <0>         0.0865
     49 H15         5.5978   -0.5579    0.0980 H         1 <0>         0.1310
     50 H16         7.5802   -1.0862   -1.2611 H         1 <0>         0.1409
     51 H17         5.8831   -4.8826   -2.2564 H         1 <0>         0.1400
     52 H18         3.9064   -4.3561   -0.8882 H         1 <0>         0.1381
     53 H19         7.8930   -3.8606   -3.4176 H         1 <0>         0.4289
     54 H20        14.6716   -2.4112   -3.7005 H         1 <0>         0.1450
     55 H21        12.9363   -0.8803   -0.0946 H         1 <0>         0.1481
     56 H22        18.3398   -2.1609   -0.5708 H         1 <0>         0.1267
     57 H23        18.6966    0.2630   -0.3468 H         1 <0>         0.1262
     58 H24        16.8616    1.8334   -0.8151 H         1 <0>         0.1263
     59 H25        13.7801    1.4485   -0.6899 H         1 <0>         0.0733
     60 H26        14.7588    2.1966   -1.9748 H         1 <0>         0.0708
     61 H27        13.6837    0.8303   -2.3563 H         1 <0>         0.0652
     62 H28        16.3219   -3.7574   -2.3202 H         1 <0>         0.0747
     63 H29        16.7280   -3.9743   -0.6008 H         1 <0>         0.0712
     64 H30        15.0406   -3.6834   -1.0870 H         1 <0>         0.0653
     65 H31        12.2574   -2.7651   -5.5884 H         1 <0>         0.0773
     66 H32        13.4251   -3.9824   -5.0200 H         1 <0>         0.0742
     67 H33        11.6839   -4.2188   -4.7364 H         1 <0>         0.0790
     68 H34         2.3169   -2.6228    2.5781 H         1 <0>         0.4293
@<TRIPOS>BOND
     1    1    2 1
     2    1   35 1
     3    1   36 1
     4    1   37 1
     5    2    3 1
     6    2   38 1
     7    2   39 1
     8    3    4 1
     9    3    6 1
    10    3   68 1
    11    4    5 1
    12    4   40 1
    13    4   41 1
    14    5   42 1
    15    5   43 1
    16    5   44 1
    17    6    7 1
    18    6   45 1
    19    6   46 1
    20    7    8 1
    21    7   47 1
    22    7   48 1
    23    8    9 1
    24    9   14 ar
    25    9   10 ar
    26   10   11 ar
    27   10   49 1
    28   11   12 ar
    29   11   50 1
    30   12   13 ar
    31   12   15 1
    32   13   14 ar
    33   13   51 1
    34   14   52 1
    35   15   16 1
    36   15   53 1
    37   16   25 ar
    38   16   17 ar
    39   17   18 ar
    40   18   23 ar
    41   18   19 ar
    42   19   20 ar
    43   19   34 1
    44   20   21 ar
    45   20   54 1
    46   21   22 ar
    47   21   26 1
    48   22   23 ar
    49   22   55 1
    50   23   24 ar
    51   24   25 ar
    52   26   31 ar
    53   26   27 ar
    54   27   28 ar
    55   27   33 1
    56   28   29 ar
    57   28   56 1
    58   29   30 ar
    59   29   57 1
    60   30   31 ar
    61   30   58 1
    62   31   32 1
    63   32   59 1
    64   32   60 1
    65   32   61 1
    66   33   62 1
    67   33   63 1
    68   33   64 1
    69   34   65 1
    70   34   66 1
    71   34   67 1
@<TRIPOS>MOLECULE
ZINC14965294
   63    67     0     0     0
SMALL
USER_CHARGES
4-[[2-[[4-chloro-3-[[(2S)-1-methylpyrrolidin-2-yl]methoxy]phenyl]amino]-1,3-benzoxazol-5-yl]oxy]-N-methyl-pyridine-2-carboxamide
@<TRIPOS>ATOM
      1 C1        -13.7281    0.6446    5.1022 C.3       1 <0>         0.0839
      2 N1        -12.2870    0.5892    4.8445 N.am      1 <0>        -0.7127
      3 C2        -11.8065    0.9193    3.6293 C.2       1 <0>         0.5702
      4 O1        -12.5687    1.2629    2.7475 O.2       1 <0>        -0.5245
      5 C3        -10.3489    0.8632    3.3687 C.ar      1 <0>         0.1155
      6 C4         -9.8593    1.2108    2.1139 C.ar      1 <0>        -0.1328
      7 C5         -8.4874    1.1472    1.8837 C.ar      1 <0>         0.1579
      8 C6         -7.6590    0.7469    2.9288 C.ar      1 <0>        -0.2285
      9 C7         -8.2201    0.4224    4.1506 C.ar      1 <0>         0.1389
     10 N2         -9.5215    0.4868    4.3368 N.ar      1 <0>        -0.4773
     11 O2         -7.9699    1.4727    0.6718 O.3       1 <0>        -0.2394
     12 C8         -6.6170    1.4887    0.5390 C.ar      1 <0>         0.0926
     13 C9         -5.9388    2.7028    0.5025 C.ar      1 <0>        -0.0970
     14 C10        -4.5659    2.7320    0.3685 C.ar      1 <0>        -0.0616
     15 C11        -3.8548    1.5472    0.2683 C.ar      1 <0>         0.0039
     16 C12        -4.5323    0.3193    0.3039 C.ar      1 <0>         0.0682
     17 C13        -5.9209    0.2985    0.4402 C.ar      1 <0>        -0.0835
     18 N3         -3.5863   -0.6518    0.1813 N.2       1 <0>        -0.5055
     19 C14        -2.4114   -0.0836    0.0855 C.2       1 <0>         0.4915
     20 O3         -2.5403    1.2540    0.1319 O.3       1 <0>        -0.2175
     21 N4         -1.2172   -0.7574   -0.0492 N.pl3     1 <0>        -0.6094
     22 C15        -0.0087   -0.0545   -0.0052 C.ar      1 <0>         0.2115
     23 C16         0.0728    1.1455    0.6901 C.ar      1 <0>        -0.1617
     24 C17         1.2661    1.8401    0.7333 C.ar      1 <0>        -0.0313
     25 C18         2.3820    1.3433    0.0850 C.ar      1 <0>        -0.0837
     26 C19         2.3058    0.1443   -0.6114 C.ar      1 <0>         0.1596
     27 C20         1.1101   -0.5549   -0.6566 C.ar      1 <0>        -0.2268
     28 O4          3.4031   -0.3429   -1.2486 O.3       1 <0>        -0.3096
     29 C21         3.2520   -1.5812   -1.9457 C.3       1 <0>         0.0375
     30 C22         4.5828   -1.9666   -2.5949 C.3       1 <0>         0.0329
     31 H1          4.9619   -1.1434   -3.2005 H         1 <0>         0.1534
     32 C23         4.4135   -3.2359   -3.4573 C.3       1 <0>        -0.1411
     33 C24         5.7173   -4.0349   -3.2546 C.3       1 <0>        -0.1483
     34 C25         6.5647   -3.1813   -2.2869 C.3       1 <0>        -0.0069
     35 C26         6.2123   -1.1603   -0.9752 C.3       1 <0>        -0.0397
     36 Cl1         3.8796    2.2194    0.1418 Cl        1 <0>        -0.0465
     37 H2        -14.0865    1.6619    4.9448 H         1 <0>         0.0645
     38 H3        -14.2452   -0.0321    4.4218 H         1 <0>         0.0644
     39 H4        -13.9249    0.3453    6.1316 H         1 <0>         0.0810
     40 H5        -11.6787    0.3149    5.5484 H         1 <0>         0.4138
     41 H6        -10.5332    1.5213    1.3292 H         1 <0>         0.1610
     42 H7         -6.5898    0.6909    2.7871 H         1 <0>         0.1446
     43 H8         -7.5811    0.1111    4.9637 H         1 <0>         0.1696
     44 H9         -6.4904    3.6281    0.5796 H         1 <0>         0.1566
     45 H10        -4.0459    3.6782    0.3412 H         1 <0>         0.1500
     46 H11        -6.4492   -0.6430    0.4687 H         1 <0>         0.1485
     47 H12        -1.2145   -1.7193   -0.1745 H         1 <0>         0.4450
     48 H13        -0.7985    1.5378    1.1935 H         1 <0>         0.1477
     49 H14         1.3276    2.7728    1.2742 H         1 <0>         0.1543
     50 H15         1.0489   -1.4874   -1.1980 H         1 <0>         0.1445
     51 H16         2.9515   -2.3590   -1.2437 H         1 <0>         0.0895
     52 H17         2.4893   -1.4733   -2.7168 H         1 <0>         0.1131
     53 H18         3.5568   -3.8156   -3.1135 H         1 <0>         0.1030
     54 H19         4.2933   -2.9673   -4.5068 H         1 <0>         0.1171
     55 H20         5.5007   -5.0069   -2.8115 H         1 <0>         0.1022
     56 H21         6.2362   -4.1601   -4.2050 H         1 <0>         0.1137
     57 H22         7.1090   -3.8213   -1.5925 H         1 <0>         0.1399
     58 H23         7.2575   -2.5503   -2.8437 H         1 <0>         0.1341
     59 H24         5.4523   -0.5277   -0.5165 H         1 <0>         0.1326
     60 H25         6.9334   -1.4688   -0.2183 H         1 <0>         0.1248
     61 H26         6.7246   -0.6026   -1.7592 H         1 <0>         0.1192
     62 N5          5.5663   -2.3627   -1.5897 N.4       1 <0>        -0.3946
     63 H27         5.1116   -2.9146   -0.8528 H         1 <0>         0.4280
@<TRIPOS>BOND
     1    1    2 1
     2    1   37 1
     3    1   38 1
     4    1   39 1
     5    2    3 am
     6    2   40 1
     7    3    4 2
     8    3    5 1
     9    5   10 ar
    10    5    6 ar
    11    6    7 ar
    12    6   41 1
    13    7    8 ar
    14    7   11 1
    15    8    9 ar
    16    8   42 1
    17    9   10 ar
    18    9   43 1
    19   11   12 1
    20   12   17 ar
    21   12   13 ar
    22   13   14 ar
    23   13   44 1
    24   14   15 ar
    25   14   45 1
    26   15   20 1
    27   15   16 ar
    28   16   17 ar
    29   16   18 1
    30   17   46 1
    31   18   19 2
    32   19   20 1
    33   19   21 1
    34   21   22 1
    35   21   47 1
    36   22   27 ar
    37   22   23 ar
    38   23   24 ar
    39   23   48 1
    40   24   25 ar
    41   24   49 1
    42   25   26 ar
    43   25   36 1
    44   26   27 ar
    45   26   28 1
    46   27   50 1
    47   28   29 1
    48   29   30 1
    49   29   51 1
    50   29   52 1
    51   30   31 1
    52   30   32 1
    53   30   62 1
    54   32   33 1
    55   32   53 1
    56   32   54 1
    57   33   34 1
    58   33   55 1
    59   33   56 1
    60   34   57 1
    61   34   58 1
    62   34   62 1
    63   35   59 1
    64   35   60 1
    65   35   61 1
    66   35   62 1
    67   62   63 1
@<TRIPOS>MOLECULE
ZINC00582575
   52    54     0     0     0
SMALL
USER_CHARGES

@<TRIPOS>ATOM
      1 C1          0.4280   -0.4909    1.8513 C.3       1 <0>        -0.1353
      2 C2         -0.1373    0.3043    0.6728 C.3       1 <0>        -0.0998
      3 C3          0.1219    1.7960    0.8928 C.3       1 <0>        -0.1438
      4 C4          0.5445   -0.1465   -0.6206 C.3       1 <0>         0.1707
      5 H1          1.6116    0.0682   -0.5626 H         1 <0>         0.1020
      6 C5         -0.0633    0.6053   -1.8064 C.3       1 <0>         0.0638
      7 O1         -1.4784    0.4070   -1.8214 O.3       1 <0>        -0.5678
      8 N1          0.3453   -1.5866   -0.8014 N.pl3     1 <0>        -0.6843
      9 C6          1.2038   -2.4865   -0.1915 C.ar      1 <0>         0.6278
     10 N2          2.1960   -2.0197    0.5559 N.ar      1 <0>        -0.6013
     11 C7          3.0454   -2.8423    1.1611 C.ar      1 <0>         0.5297
     12 C8          2.8737   -4.2277    0.9949 C.ar      1 <0>        -0.1465
     13 C9          1.8096   -4.6754    0.1948 C.ar      1 <0>         0.3495
     14 N3          1.0032   -3.7820   -0.3699 N.ar      1 <0>        -0.6072
     15 N4          1.8776   -6.0456    0.2064 N.pl3     1 <0>        -0.4700
     16 C10         2.9424   -6.3955    0.9844 C.2       1 <0>         0.2415
     17 N5          3.5251   -5.3277    1.4458 N.2       1 <0>        -0.4572
     18 C11         0.9729   -6.9645   -0.4890 C.3       1 <0>         0.1340
     19 C12         1.7722   -7.8175   -1.4761 C.3       1 <0>        -0.1629
     20 C13         0.2864   -7.8742    0.5318 C.3       1 <0>        -0.1632
     21 N6          4.0779   -2.3459    1.9386 N.pl3     1 <0>        -0.6355
     22 C14         4.2903   -0.9669    2.0207 C.ar      1 <0>         0.1742
     23 C15         4.0436   -0.1577    0.9185 C.ar      1 <0>        -0.1100
     24 C16         4.2538    1.2045    1.0024 C.ar      1 <0>        -0.0884
     25 C17         4.7100    1.7642    2.1819 C.ar      1 <0>        -0.1271
     26 C18         4.9569    0.9617    3.2819 C.ar      1 <0>        -0.0129
     27 C19         4.7429   -0.4020    3.2058 C.ar      1 <0>        -0.1416
     28 Cl1         5.5294    1.6687    4.7604 Cl        1 <0>        -0.0669
     29 H2          0.2433   -1.5536    1.6946 H         1 <0>         0.0430
     30 H3          1.5012   -0.3158    1.9263 H         1 <0>         0.0707
     31 H4         -0.0578   -0.1697    2.7727 H         1 <0>         0.0403
     32 H5         -1.2106    0.1292    0.5978 H         1 <0>         0.0766
     33 H6          1.1945    1.9872    0.8596 H         1 <0>         0.0559
     34 H7         -0.3739    2.3703    0.1101 H         1 <0>         0.0538
     35 H8         -0.2703    2.0934    1.8654 H         1 <0>         0.0560
     36 H9          0.1535    1.6693   -1.7118 H         1 <0>         0.0658
     37 H10         0.3663    0.2281   -2.7345 H         1 <0>         0.0519
     38 H11        -1.9308    0.8561   -2.5484 H         1 <0>         0.3823
     39 H12        -0.3878   -1.9099   -1.3481 H         1 <0>         0.4179
     40 H13         3.2553   -7.4091    1.1873 H         1 <0>         0.2164
     41 H14         0.2195   -6.3923   -1.0303 H         1 <0>         0.1069
     42 H15         2.5256   -8.3897   -0.9348 H         1 <0>         0.0660
     43 H16         1.0991   -8.5011   -1.9935 H         1 <0>         0.0802
     44 H17         2.2613   -7.1693   -2.2033 H         1 <0>         0.0632
     45 H18        -0.2830   -7.2665    1.2351 H         1 <0>         0.0634
     46 H19        -0.3867   -8.5579    0.0144 H         1 <0>         0.0803
     47 H20         1.0399   -8.4464    1.0731 H         1 <0>         0.0660
     48 H21         4.6539   -2.9553    2.4263 H         1 <0>         0.4297
     49 H22         3.6881   -0.5939   -0.0033 H         1 <0>         0.1411
     50 H23         4.0621    1.8335    0.1457 H         1 <0>         0.1337
     51 H24         4.8742    2.8298    2.2445 H         1 <0>         0.1331
     52 H25         4.9317   -1.0277    4.0656 H         1 <0>         0.1347
@<TRIPOS>BOND
     1    1    2 1
     2    1   29 1
     3    1   30 1
     4    1   31 1
     5    2    3 1
     6    2    4 1
     7    2   32 1
     8    3   33 1
     9    3   34 1
    10    3   35 1
    11    4    5 1
    12    4    6 1
    13    4    8 1
    14    6    7 1
    15    6   36 1
    16    6   37 1
    17    7   38 1
    18    8    9 1
    19    8   39 1
    20    9   14 ar
    21    9   10 ar
    22   10   11 ar
    23   11   12 ar
    24   11   21 1
    25   12   17 1
    26   12   13 ar
    27   13   14 ar
    28   13   15 1
    29   15   16 1
    30   15   18 1
    31   16   17 2
    32   16   40 1
    33   18   19 1
    34   18   20 1
    35   18   41 1
    36   19   42 1
    37   19   43 1
    38   19   44 1
    39   20   45 1
    40   20   46 1
    41   20   47 1
    42   21   22 1
    43   21   48 1
    44   22   27 ar
    45   22   23 ar
    46   23   24 ar
    47   23   49 1
    48   24   25 ar
    49   24   50 1
    50   25   26 ar
    51   25   51 1
    52   26   27 ar
    53   26   28 1
    54   27   52 1
@<TRIPOS>MOLECULE
ZINC03834198
   55    58     0     0     0
SMALL
USER_CHARGES

@<TRIPOS>ATOM
      1 C1          2.2102    1.3214   -1.5438 C.3       1 <0>        -0.0473
      2 N1          2.0302   -0.1310   -1.4177 N.4       1 <0>        -0.3861
      3 C2          2.8485   -0.8135   -2.4272 C.3       1 <0>        -0.0039
      4 C3          2.6029   -2.3220   -2.3537 C.3       1 <0>        -0.1426
      5 C4          2.9828   -2.8281   -0.9591 C.3       1 <0>        -0.0980
      6 C5          2.1768   -2.0570    0.0901 C.3       1 <0>        -0.1436
      7 C6          2.4382   -0.5583   -0.0740 C.3       1 <0>        -0.0065
      8 C7          2.6653   -4.3210   -0.8526 C.3       1 <0>         0.0553
      9 O1          3.1265   -4.8175    0.4056 O.3       1 <0>        -0.2959
     10 C8          2.9210   -6.1358    0.6612 C.ar      1 <0>         0.1621
     11 C9          2.2972   -6.9233   -0.2811 C.ar      1 <0>        -0.1791
     12 C10         2.0867   -8.2816   -0.0149 C.ar      1 <0>         0.2018
     13 C11         2.5192   -8.8246    1.2204 C.ar      1 <0>        -0.1784
     14 C12         3.1508   -8.0026    2.1612 C.ar      1 <0>        -0.1424
     15 C13         3.3512   -6.6812    1.8787 C.ar      1 <0>         0.1099
     16 O2          3.9702   -5.8850    2.7909 O.3       1 <0>        -0.3030
     17 C14         4.3854   -6.4992    4.0125 C.3       1 <0>         0.0198
     18 C15         2.2930  -10.2009    1.4605 C.ar      1 <0>         0.4667
     19 N2          1.6881  -10.9114    0.5174 N.ar      1 <0>        -0.5768
     20 C16         1.3012  -10.3606   -0.6222 C.ar      1 <0>         0.3478
     21 N3          1.4842   -9.0917   -0.8996 N.ar      1 <0>        -0.5414
     22 N4          2.6915  -10.7885    2.6441 N.pl3     1 <0>        -0.6296
     23 C17         2.5831  -12.1741    2.8088 C.ar      1 <0>         0.1376
     24 C18         2.4560  -12.9987    1.6992 C.ar      1 <0>        -0.1039
     25 C19         2.3491  -14.3660    1.8644 C.ar      1 <0>        -0.0732
     26 C20         2.3685  -14.9152    3.1341 C.ar      1 <0>        -0.0857
     27 C21         2.4949  -14.0974    4.2430 C.ar      1 <0>        -0.1007
     28 C22         2.6081  -12.7284    4.0841 C.ar      1 <0>         0.0686
     29 F1          2.7372  -11.9301    5.1664 F         1 <0>        -0.1332
     30 Br1         2.2212  -16.7875    3.3546 Br        1 <0>        -0.0295
     31 H1          3.2589    1.5727   -1.3848 H         1 <0>         0.1219
     32 H2          1.9075    1.6398   -2.5414 H         1 <0>         0.1242
     33 H3          1.5979    1.8295   -0.7989 H         1 <0>         0.1242
     34 H4          2.5792   -0.4499   -3.4189 H         1 <0>         0.1343
     35 H5          3.9024   -0.6078   -2.2397 H         1 <0>         0.1306
     36 H6          1.5493   -2.5288   -2.5414 H         1 <0>         0.0934
     37 H7          3.2127   -2.8271   -3.1028 H         1 <0>         0.1176
     38 H8          4.0478   -2.6678   -0.7908 H         1 <0>         0.1030
     39 H9          1.1143   -2.2583   -0.0469 H         1 <0>         0.0893
     40 H10         2.4820   -2.3726    1.0878 H         1 <0>         0.1210
     41 H11         3.5008   -0.3580    0.0634 H         1 <0>         0.1299
     42 H12         1.8660   -0.0063    0.6716 H         1 <0>         0.1325
     43 H13         1.5883   -4.4698   -0.9292 H         1 <0>         0.0742
     44 H14         3.1645   -4.8571   -1.6597 H         1 <0>         0.0787
     45 H15         1.9724   -6.4960   -1.2182 H         1 <0>         0.1540
     46 H16         3.4818   -8.4122    3.1042 H         1 <0>         0.1414
     47 H17         4.8638   -5.7549    4.6491 H         1 <0>         0.1093
     48 H18         3.5165   -6.9116    4.5254 H         1 <0>         0.0597
     49 H19         5.0925   -7.2996    3.7947 H         1 <0>         0.0600
     50 H20         0.8133  -10.9840   -1.3569 H         1 <0>         0.2036
     51 H21         3.0467  -10.2411    3.3618 H         1 <0>         0.4241
     52 H22         2.4404  -12.5714    0.7074 H         1 <0>         0.1818
     53 H23         2.2499  -15.0072    1.0010 H         1 <0>         0.1463
     54 H24         2.5094  -14.5289    5.2329 H         1 <0>         0.1515
     55 H25         1.0589   -0.3624   -1.5626 H         1 <0>         0.4246
@<TRIPOS>BOND
     1    1    2 1
     2    1   31 1
     3    1   32 1
     4    1   33 1
     5    2    7 1
     6    2    3 1
     7    2   55 1
     8    3    4 1
     9    3   34 1
    10    3   35 1
    11    4    5 1
    12    4   36 1
    13    4   37 1
    14    5    6 1
    15    5    8 1
    16    5   38 1
    17    6    7 1
    18    6   39 1
    19    6   40 1
    20    7   41 1
    21    7   42 1
    22    8    9 1
    23    8   43 1
    24    8   44 1
    25    9   10 1
    26   10   15 ar
    27   10   11 ar
    28   11   12 ar
    29   11   45 1
    30   12   21 ar
    31   12   13 ar
    32   13   14 ar
    33   13   18 ar
    34   14   15 ar
    35   14   46 1
    36   15   16 1
    37   16   17 1
    38   17   47 1
    39   17   48 1
    40   17   49 1
    41   18   19 ar
    42   18   22 1
    43   19   20 ar
    44   20   21 ar
    45   20   50 1
    46   22   23 1
    47   22   51 1
    48   23   28 ar
    49   23   24 ar
    50   24   25 ar
    51   24   52 1
    52   25   26 ar
    53   25   53 1
    54   26   27 ar
    55   26   30 1
    56   27   28 ar
    57   27   54 1
    58   28   29 1
@<TRIPOS>MOLECULE
ZINC09366804
   35    37     0     0     0
SMALL
USER_CHARGES
N-[5-[(4-bromophenyl)methylsulfanyl]-1,3,4-thiadiazol-2-yl]-2-chloro-benzamide
@<TRIPOS>ATOM
      1 C1          1.3399  -12.7112   -2.8041 C.ar      1 <0>        -0.1209
      2 C2          1.3609  -13.6154   -1.7562 C.ar      1 <0>        -0.0726
      3 C3          1.3673  -13.1678   -0.4480 C.ar      1 <0>        -0.1173
      4 C4          1.3523  -11.8130   -0.1784 C.ar      1 <0>         0.0186
      5 C5          1.3310  -10.8954   -1.2318 C.ar      1 <0>        -0.1319
      6 C6          1.3193  -11.3560   -2.5501 C.ar      1 <0>        -0.0745
      7 C7          1.3149   -9.4449   -0.9523 C.2       1 <0>         0.5506
      8 O1          1.3201   -9.0471    0.1966 O.2       1 <0>        -0.4374
      9 N1          1.2944   -8.5626   -1.9709 N.am      1 <0>        -0.6091
     10 C8          1.2792   -7.1961   -1.7076 C.2       1 <0>         0.2866
     11 N2          1.2809   -6.5528   -0.5514 N.2       1 <0>        -0.2685
     12 N3          1.2647   -5.2933   -0.4872 N.2       1 <0>        -0.2557
     13 C9          1.2450   -4.5366   -1.5748 C.2       1 <0>         0.0101
     14 S1          1.2428   -5.8069   -2.8367 S.3       1 <0>         0.0457
     15 S2          1.2203   -2.7820   -1.7337 S.3       1 <0>         0.0623
     16 C10         1.2283   -2.1860   -0.0204 C.3       1 <0>        -0.0750
     17 C11         1.2084   -0.6791   -0.0127 C.ar      1 <0>        -0.0691
     18 C12         0.0021   -0.0041    0.0020 C.ar      1 <0>        -0.0910
     19 C13        -0.0167    1.3780    0.0096 C.ar      1 <0>        -0.0898
     20 C14         1.1718    2.0856    0.0021 C.ar      1 <0>        -0.0810
     21 C15         2.3786    1.4097   -0.0135 C.ar      1 <0>        -0.0898
     22 C16         2.3964    0.0277   -0.0207 C.ar      1 <0>        -0.0909
     23 Br1         1.1469    3.9764    0.0125 Br        1 <0>        -0.0438
     24 Cl1         1.3592  -11.2522    1.4645 Cl        1 <0>        -0.0218
     25 H1          1.3350  -13.0682   -3.8234 H         1 <0>         0.1406
     26 H2          1.3720  -14.6757   -1.9615 H         1 <0>         0.1419
     27 H3          1.3837  -13.8789    0.3648 H         1 <0>         0.1453
     28 H4          1.2981  -10.6522   -3.3690 H         1 <0>         0.1344
     29 H5          1.2903   -8.8800   -2.8875 H         1 <0>         0.4268
     30 H6          2.1278   -2.5401    0.4832 H         1 <0>         0.1124
     31 H7          0.3480   -2.5637    0.4997 H         1 <0>         0.1123
     32 H8         -0.9258   -0.5567    0.0079 H         1 <0>         0.1379
     33 H9         -0.9592    1.9053    0.0170 H         1 <0>         0.1382
     34 H10         3.3068    1.9618   -0.0194 H         1 <0>         0.1382
     35 H11         3.3386   -0.5001   -0.0321 H         1 <0>         0.1380
@<TRIPOS>BOND
     1    1    6 ar
     2    1    2 ar
     3    1   25 1
     4    2    3 ar
     5    2   26 1
     6    3    4 ar
     7    3   27 1
     8    4    5 ar
     9    4   24 1
    10    5    6 ar
    11    5    7 1
    12    6   28 1
    13    7    8 2
    14    7    9 am
    15    9   10 1
    16    9   29 1
    17   10   14 1
    18   10   11 2
    19   11   12 1
    20   12   13 2
    21   13   14 1
    22   13   15 1
    23   15   16 1
    24   16   17 1
    25   16   30 1
    26   16   31 1
    27   17   22 ar
    28   17   18 ar
    29   18   19 ar
    30   18   32 1
    31   19   20 ar
    32   19   33 1
    33   20   21 ar
    34   20   23 1
    35   21   22 ar
    36   21   34 1
    37   22   35 1
@<TRIPOS>MOLECULE
ZINC06219294
   35    37     0     0     0
SMALL
USER_CHARGES
4-chloro-N-[5-[(4-fluorophenyl)methylsulfanyl]-1,3,4-thiadiazol-2-yl]-benzamide
@<TRIPOS>ATOM
      1 C1          2.2675  -11.6011   -1.2855 C.ar      1 <0>        -0.0668
      2 C2          2.5515  -12.9536   -1.2976 C.ar      1 <0>        -0.1532
      3 C3          2.7031  -13.6393   -0.1044 C.ar      1 <0>         0.1117
      4 C4          2.5753  -12.9680    1.0998 C.ar      1 <0>        -0.1531
      5 C5          2.2965  -11.6144    1.1094 C.ar      1 <0>        -0.0668
      6 C6          2.1453  -10.9308   -0.0826 C.ar      1 <0>        -0.0969
      7 C7          1.8409   -9.4549   -0.0708 C.3       1 <0>        -0.0707
      8 S1          3.3936   -8.5171   -0.0802 S.3       1 <0>         0.0606
      9 C8          2.8747   -6.8333   -0.0650 C.2       1 <0>         0.0122
     10 N1          1.6540   -6.3181   -0.0505 N.2       1 <0>        -0.2571
     11 N2          1.4559   -5.0726   -0.0409 N.2       1 <0>        -0.2686
     12 C9          2.4539   -4.2038   -0.0449 C.2       1 <0>         0.2822
     13 S2          3.8462   -5.3292   -0.0717 S.3       1 <0>         0.0483
     14 N3          2.4285   -2.8123   -0.0367 N.am      1 <0>        -0.6088
     15 C10         1.2492   -2.1599   -0.0219 C.2       1 <0>         0.5588
     16 O1          0.2076   -2.7870   -0.0158 O.2       1 <0>        -0.4574
     17 C11         1.2223   -0.6828   -0.0133 C.ar      1 <0>        -0.1322
     18 C12         0.0021   -0.0041    0.0020 C.ar      1 <0>        -0.0381
     19 C13        -0.0166    1.3747    0.0096 C.ar      1 <0>        -0.1144
     20 C14         1.1717    2.0863    0.0021 C.ar      1 <0>        -0.0054
     21 C15         2.3853    1.4187   -0.0131 C.ar      1 <0>        -0.1149
     22 C16         2.4169    0.0401   -0.0208 C.ar      1 <0>        -0.0728
     23 Cl1         1.1400    3.8220    0.0111 Cl        1 <0>        -0.0526
     24 F1          2.9761  -14.9624   -0.1150 F         1 <0>        -0.1354
     25 H1          2.1451  -11.0669   -2.2160 H         1 <0>         0.1390
     26 H2          2.6510  -13.4763   -2.2375 H         1 <0>         0.1411
     27 H3          2.6937  -13.5018    2.0311 H         1 <0>         0.1411
     28 H4          2.1971  -11.0904    2.0485 H         1 <0>         0.1390
     29 H5          1.2729   -9.2083    0.8263 H         1 <0>         0.1116
     30 H6          1.2556   -9.1976   -0.9535 H         1 <0>         0.1115
     31 H7          3.2595   -2.3121   -0.0416 H         1 <0>         0.4284
     32 H8         -0.9251   -0.5578    0.0082 H         1 <0>         0.1512
     33 H9         -0.9598    1.9008    0.0169 H         1 <0>         0.1469
     34 H10         3.3085    1.9789   -0.0185 H         1 <0>         0.1455
     35 H11         3.3637   -0.4793   -0.0322 H         1 <0>         0.1361
@<TRIPOS>BOND
     1    1    6 ar
     2    1    2 ar
     3    1   25 1
     4    2    3 ar
     5    2   26 1
     6    3    4 ar
     7    3   24 1
     8    4    5 ar
     9    4   27 1
    10    5    6 ar
    11    5   28 1
    12    6    7 1
    13    7    8 1
    14    7   29 1
    15    7   30 1
    16    8    9 1
    17    9   13 1
    18    9   10 2
    19   10   11 1
    20   11   12 2
    21   12   13 1
    22   12   14 1
    23   14   15 am
    24   14   31 1
    25   15   16 2
    26   15   17 1
    27   17   22 ar
    28   17   18 ar
    29   18   19 ar
    30   18   32 1
    31   19   20 ar
    32   19   33 1
    33   20   21 ar
    34   20   23 1
    35   21   22 ar
    36   21   34 1
    37   22   35 1
@<TRIPOS>MOLECULE
ZINC09366812
   35    37     0     0     0
SMALL
USER_CHARGES
N-[5-[(4-bromophenyl)methylsulfanyl]-1,3,4-thiadiazol-2-yl]-4-fluoro-benzamide
@<TRIPOS>ATOM
      1 C1          2.2631  -11.6016   -1.2857 C.ar      1 <0>        -0.0909
      2 C2          2.5464  -12.9544   -1.2973 C.ar      1 <0>        -0.0898
      3 C3          2.6973  -13.6394   -0.1051 C.ar      1 <0>        -0.0809
      4 C4          2.5696  -12.9691    1.0982 C.ar      1 <0>        -0.0898
      5 C5          2.2915  -11.6153    1.1087 C.ar      1 <0>        -0.0909
      6 C6          2.1408  -10.9311   -0.0830 C.ar      1 <0>        -0.0695
      7 C7          1.8370   -9.4550   -0.0710 C.3       1 <0>        -0.0751
      8 S1          3.3902   -8.5179   -0.0800 S.3       1 <0>         0.0636
      9 C8          2.8721   -6.8339   -0.0646 C.2       1 <0>         0.0110
     10 N1          1.6516   -6.3182   -0.0503 N.2       1 <0>        -0.2566
     11 N2          1.4541   -5.0726   -0.0410 N.2       1 <0>        -0.2688
     12 C9          2.4524   -4.2042   -0.0450 C.2       1 <0>         0.2832
     13 S2          3.8443   -5.3303   -0.0719 S.3       1 <0>         0.0488
     14 N3          2.4276   -2.8127   -0.0368 N.am      1 <0>        -0.6091
     15 C10         1.2487   -2.1598   -0.0220 C.2       1 <0>         0.5603
     16 O1          0.2067   -2.7864   -0.0158 O.2       1 <0>        -0.4588
     17 C11         1.2224   -0.6833   -0.0133 C.ar      1 <0>        -0.1485
     18 C12         0.0021   -0.0041    0.0020 C.ar      1 <0>        -0.0209
     19 C13        -0.0166    1.3741    0.0096 C.ar      1 <0>        -0.1582
     20 C14         1.1731    2.0862    0.0021 C.ar      1 <0>         0.1356
     21 C15         2.3874    1.4170   -0.0132 C.ar      1 <0>        -0.1585
     22 C16         2.4178    0.0391   -0.0209 C.ar      1 <0>        -0.0554
     23 F1          1.1491    3.4370    0.0096 F         1 <0>        -0.1287
     24 Br1         3.0785  -15.4915   -0.1202 Br        1 <0>        -0.0436
     25 H1          2.1412  -11.0675   -2.2165 H         1 <0>         0.1380
     26 H2          2.6464  -13.4772   -2.2370 H         1 <0>         0.1383
     27 H3          2.6877  -13.5035    2.0292 H         1 <0>         0.1383
     28 H4          2.1921  -11.0918    2.0481 H         1 <0>         0.1380
     29 H5          1.2690   -9.2083    0.8259 H         1 <0>         0.1125
     30 H6          1.2521   -9.1973   -0.9539 H         1 <0>         0.1125
     31 H7          3.2589   -2.3128   -0.0418 H         1 <0>         0.4283
     32 H8         -0.9252   -0.5577    0.0083 H         1 <0>         0.1519
     33 H9         -0.9597    1.9003    0.0169 H         1 <0>         0.1491
     34 H10         3.3112    1.9766   -0.0187 H         1 <0>         0.1478
     35 H11         3.3642   -0.4812   -0.0324 H         1 <0>         0.1368
@<TRIPOS>BOND
     1    1    6 ar
     2    1    2 ar
     3    1   25 1
     4    2    3 ar
     5    2   26 1
     6    3    4 ar
     7    3   24 1
     8    4    5 ar
     9    4   27 1
    10    5    6 ar
    11    5   28 1
    12    6    7 1
    13    7    8 1
    14    7   29 1
    15    7   30 1
    16    8    9 1
    17    9   13 1
    18    9   10 2
    19   10   11 1
    20   11   12 2
    21   12   13 1
    22   12   14 1
    23   14   15 am
    24   14   31 1
    25   15   16 2
    26   15   17 1
    27   17   22 ar
    28   17   18 ar
    29   18   19 ar
    30   18   32 1
    31   19   20 ar
    32   19   33 1
    33   20   21 ar
    34   20   23 1
    35   21   22 ar
    36   21   34 1
    37   22   35 1
@<TRIPOS>MOLECULE
ZINC04078304
   35    37     0     0     0
SMALL
USER_CHARGES
4-chloro-N-[5-[(3-fluorophenyl)methylsulfanyl]-1,3,4-thiadiazol-2-yl]-benzamide
@<TRIPOS>ATOM
      1 C1          2.5747  -12.9687    1.0997 C.ar      1 <0>        -0.0881
      2 C2          2.2958  -11.6145    1.1088 C.ar      1 <0>        -0.1078
      3 C3          2.1453  -10.9308   -0.0830 C.ar      1 <0>        -0.0559
      4 C4          2.2683  -11.6013   -1.2854 C.ar      1 <0>        -0.1334
      5 C5          2.5528  -12.9562   -1.2958 C.ar      1 <0>         0.1011
      6 C6          2.7033  -13.6401   -0.1011 C.ar      1 <0>        -0.1423
      7 F1          2.6782  -13.6116   -2.4705 F         1 <0>        -0.1354
      8 C7          1.8408   -9.4549   -0.0714 C.3       1 <0>        -0.0741
      9 S1          3.3936   -8.5171   -0.0800 S.3       1 <0>         0.0645
     10 C8          2.8747   -6.8333   -0.0652 C.2       1 <0>         0.0112
     11 N1          1.6540   -6.3181   -0.0506 N.2       1 <0>        -0.2567
     12 N2          1.4559   -5.0726   -0.0410 N.2       1 <0>        -0.2685
     13 C9          2.4539   -4.2038   -0.0450 C.2       1 <0>         0.2824
     14 S2          3.8462   -5.3292   -0.0719 S.3       1 <0>         0.0498
     15 N3          2.4285   -2.8123   -0.0368 N.am      1 <0>        -0.6087
     16 C10         1.2492   -2.1599   -0.0220 C.2       1 <0>         0.5588
     17 O1          0.2076   -2.7870   -0.0158 O.2       1 <0>        -0.4573
     18 C11         1.2223   -0.6828   -0.0133 C.ar      1 <0>        -0.1321
     19 C12         0.0021   -0.0041    0.0020 C.ar      1 <0>        -0.0381
     20 C13        -0.0166    1.3747    0.0096 C.ar      1 <0>        -0.1144
     21 C14         1.1717    2.0863    0.0021 C.ar      1 <0>        -0.0054
     22 C15         2.3853    1.4187   -0.0132 C.ar      1 <0>        -0.1149
     23 C16         2.4169    0.0401   -0.0209 C.ar      1 <0>        -0.0728
     24 Cl1         1.1400    3.8220    0.0118 Cl        1 <0>        -0.0526
     25 H1          2.6917  -13.5020    2.0315 H         1 <0>         0.1391
     26 H2          2.1951  -11.0906    2.0478 H         1 <0>         0.1360
     27 H3          2.1466  -11.0677   -2.2165 H         1 <0>         0.1410
     28 H4          2.9208  -14.6980   -0.1080 H         1 <0>         0.1396
     29 H5          1.2723   -9.2082    0.8252 H         1 <0>         0.1143
     30 H6          1.2561   -9.1976   -0.9546 H         1 <0>         0.1125
     31 H7          3.2595   -2.3121   -0.0418 H         1 <0>         0.4285
     32 H8         -0.9251   -0.5578    0.0083 H         1 <0>         0.1512
     33 H9         -0.9598    1.9008    0.0169 H         1 <0>         0.1469
     34 H10         3.3085    1.9789   -0.0187 H         1 <0>         0.1456
     35 H11         3.3637   -0.4793   -0.0324 H         1 <0>         0.1362
@<TRIPOS>BOND
     1    1    6 ar
     2    1    2 ar
     3    1   25 1
     4    2    3 ar
     5    2   26 1
     6    3    4 ar
     7    3    8 1
     8    4    5 ar
     9    4   27 1
    10    5    6 ar
    11    5    7 1
    12    6   28 1
    13    8    9 1
    14    8   29 1
    15    8   30 1
    16    9   10 1
    17   10   14 1
    18   10   11 2
    19   11   12 1
    20   12   13 2
    21   13   14 1
    22   13   15 1
    23   15   16 am
    24   15   31 1
    25   16   17 2
    26   16   18 1
    27   18   23 ar
    28   18   19 ar
    29   19   20 ar
    30   19   32 1
    31   20   21 ar
    32   20   33 1
    33   21   22 ar
    34   21   24 1
    35   22   23 ar
    36   22   34 1
    37   23   35 1
