@<TRIPOS>MOLECULE
ZINC28567957
   19    19     0     0     0
SMALL
USER_CHARGES
1-(4-hydroxyphenyl)prop-2-en-1-one
@<TRIPOS>ATOM
      1 C1          2.5559   -4.2051   -0.0441 C.2       1 <0>        -0.0937
      2 C2          2.5335   -2.8737   -0.0372 C.2       1 <0>        -0.2414
      3 C3          1.2482   -2.1602   -0.0210 C.2       1 <0>         0.4252
      4 O1          0.2050   -2.7862   -0.0140 O.2       1 <0>        -0.4637
      5 C4          1.2234   -0.6846   -0.0133 C.ar      1 <0>        -0.2106
      6 C5          0.0021   -0.0041    0.0020 C.ar      1 <0>        -0.0182
      7 C6         -0.0166    1.3724    0.0096 C.ar      1 <0>        -0.1768
      8 C7          1.1768    2.0859    0.0020 C.ar      1 <0>         0.1905
      9 C8          2.3934    1.4131   -0.0133 C.ar      1 <0>        -0.2304
     10 C9          2.4211    0.0367   -0.0210 C.ar      1 <0>        -0.0292
     11 O2          1.1539    3.4426    0.0091 O.3       1 <0>        -0.5043
     12 H1          3.5176   -4.7389   -0.0562 H         1 <0>         0.1191
     13 H2          1.6127   -4.7711   -0.0377 H         1 <0>         0.1166
     14 H3          3.4767   -2.3077   -0.0436 H         1 <0>         0.1331
     15 H4         -0.9253   -0.5575    0.0083 H         1 <0>         0.1402
     16 H5         -0.9596    1.8989    0.0169 H         1 <0>         0.1358
     17 H6          3.3181    1.9710   -0.0192 H         1 <0>         0.1339
     18 H7          3.3666   -0.4851   -0.0325 H         1 <0>         0.1346
     19 H8          2.0971    4.0086    0.0031 H         1 <0>         0.4393
@<TRIPOS>BOND
     1    1    2 2
     2    1   12 1
     3    1   13 1
     4    2    3 1
     5    2   14 1
     6    3    4 2
     7    3    5 1
     8    5   10 ar
     9    5    6 ar
    10    6    7 ar
    11    6   15 1
    12    7    8 ar
    13    7   16 1
    14    8    9 ar
    15    8   11 1
    16    9   10 ar
    17    9   17 1
    18   10   18 1
    19   11   19 1
@<TRIPOS>MOLECULE
ZINC28567957
   18    18     0     0     0
SMALL
USER_CHARGES
1-(4-hydroxyphenyl)prop-2-en-1-one
@<TRIPOS>ATOM
      1 C1          2.5559   -4.2051   -0.0441 C.2       1 <0>        -0.1321
      2 C2          2.5335   -2.8737   -0.0372 C.2       1 <0>        -0.2133
      3 C3          1.2482   -2.1602   -0.0210 C.2       1 <0>         0.4243
      4 O1          0.2050   -2.7862   -0.0140 O.2       1 <0>        -0.5077
      5 C4          1.2234   -0.6846   -0.0133 C.ar      1 <0>        -0.3164
      6 C5          0.0021   -0.0041    0.0020 C.ar      1 <0>        -0.0087
      7 C6         -0.0166    1.3724    0.0096 C.ar      1 <0>        -0.2793
      8 C7          1.1768    2.0859    0.0020 C.ar      1 <0>         0.2950
      9 C8          2.3934    1.4131   -0.0133 C.ar      1 <0>        -0.2779
     10 C9          2.4211    0.0367   -0.0210 C.ar      1 <0>        -0.0217
     11 O2          1.1539    3.4426    0.0091 O.3       1 <0>        -0.7133
     12 H1          3.5176   -4.7389   -0.0562 H         1 <0>         0.1068
     13 H2          1.6127   -4.7711   -0.0377 H         1 <0>         0.1099
     14 H3          3.4767   -2.3077   -0.0436 H         1 <0>         0.1271
     15 H4         -0.9253   -0.5575    0.0083 H         1 <0>         0.1040
     16 H5         -0.9596    1.8989    0.0169 H         1 <0>         0.1007
     17 H6          3.3181    1.9710   -0.0192 H         1 <0>         0.1008
     18 H7          3.3666   -0.4851   -0.0325 H         1 <0>         0.1016
@<TRIPOS>BOND
     1    1    2 2
     2    1   12 1
     3    1   13 1
     4    2    3 1
     5    2   14 1
     6    3    4 2
     7    3    5 1
     8    5   10 ar
     9    5    6 ar
    10    6    7 ar
    11    6   15 1
    12    7    8 ar
    13    7   16 1
    14    8    9 ar
    15    8   11 1
    16    9   10 ar
    17    9   17 1
    18   10   18 1
