@<TRIPOS>MOLECULE
ZINC26815863
   57    59     0     0     0
SMALL
USER_CHARGES
1-[3-[(5-bromo-2-pyridyl)-[(3,4-dichlorophenyl)methyl]amino]propyl]-3-[3-(1H-imidazol-4-yl)propyl]thiourea
@<TRIPOS>ATOM
      1 C1          2.5606    4.0507    2.2802 C.ar      1 <0>        -0.0881
      2 C2          2.6377    4.3986    3.6160 C.ar      1 <0>        -0.0972
      3 C3          3.8721    4.5502    4.2209 C.ar      1 <0>        -0.0265
      4 C4          5.0304    4.3481    3.4892 C.ar      1 <0>        -0.0311
      5 C5          4.9514    3.9950    2.1543 C.ar      1 <0>        -0.0826
      6 C6          3.7166    3.8439    1.5512 C.ar      1 <0>        -0.0971
      7 C7          3.6309    3.4596    0.0966 C.3       1 <0>         0.1603
      8 N1          3.5940    1.9998   -0.0215 N.pl3     1 <0>        -0.5957
      9 C8          4.8422    1.2433   -0.1481 C.3       1 <0>         0.1282
     10 C9          5.2026    1.0980   -1.6279 C.3       1 <0>        -0.1466
     11 C10         6.5062    0.3079   -1.7601 C.3       1 <0>         0.1315
     12 N2          6.8513    0.1688   -3.1770 N.pl3     1 <0>        -0.6974
     13 C11         7.9676   -0.4953   -3.5366 C.2       1 <0>         0.5671
     14 S1          8.9823   -1.1762   -2.3376 S.2       1 <0>        -0.6560
     15 N3          8.2851   -0.6233   -4.8402 N.pl3     1 <0>        -0.6948
     16 C12         9.4986   -1.3452   -5.2311 C.3       1 <0>         0.1258
     17 C13         9.6236   -1.3444   -6.7559 C.3       1 <0>        -0.1220
     18 C14        10.8908   -2.0982   -7.1642 C.3       1 <0>        -0.0298
     19 C15        11.0140   -2.0974   -8.6661 C.2       1 <0>        -0.0025
     20 C16        12.0747   -1.6629   -9.3729 C.2       1 <0>        -0.0634
     21 N4         11.7698   -1.8420  -10.6953 N.pl3     1 <0>        -0.5824
     22 H1         12.4953   -1.5551  -11.4708 H         1 <0>         0.4484
     23 C17        10.5324   -2.3802  -10.7505 C.2       1 <0>         0.1945
     24 N5         10.0887   -2.5348   -9.5330 N.2       1 <0>        -0.4923
     25 C18         2.3742    1.3323   -0.0135 C.ar      1 <0>         0.4181
     26 C19         1.1895    2.0616    0.0018 C.ar      1 <0>        -0.2373
     27 C20        -0.0168    1.3853    0.0097 C.ar      1 <0>        -0.0029
     28 C21         0.0021   -0.0041    0.0020 C.ar      1 <0>        -0.2061
     29 C22         1.2153   -0.6637   -0.0131 C.ar      1 <0>         0.1876
     30 N6          2.3509    0.0087   -0.0203 N.ar      1 <0>        -0.5278
     31 Br1        -1.6167   -0.9815    0.0128 Br        1 <0>        -0.0406
     32 Cl1         6.5807    4.5374    4.2471 Cl        1 <0>        -0.0421
     33 Cl2         3.9696    4.9929    5.8967 Cl        1 <0>        -0.0436
     34 H2          1.5965    3.9365    1.8070 H         1 <0>         0.1378
     35 H3          1.7340    4.5560    4.1860 H         1 <0>         0.1446
     36 H4          5.8542    3.8376    1.5830 H         1 <0>         0.1427
     37 H5          2.7168    3.8862   -0.3421 H         1 <0>         0.0964
     38 H6          4.5101    3.8486   -0.4379 H         1 <0>         0.0990
     39 H7          5.6492    1.7772    0.3751 H         1 <0>         0.0797
     40 H8          4.7133    0.2459    0.2976 H         1 <0>         0.0982
     41 H9          4.3956    0.5642   -2.1511 H         1 <0>         0.0744
     42 H10         5.3315    2.0954   -2.0736 H         1 <0>         0.0685
     43 H11         7.3132    0.8418   -1.2368 H         1 <0>         0.0855
     44 H12         6.3773   -0.6895   -1.3145 H         1 <0>         0.0884
     45 H13         6.1994    0.6064   -3.9474 H         1 <0>         0.4148
     46 H14         7.6332   -0.1858   -5.6106 H         1 <0>         0.4158
     47 H15        10.3771   -0.8508   -4.7909 H         1 <0>         0.0849
     48 H16         9.4413   -2.3821   -4.8684 H         1 <0>         0.0864
     49 H17         8.7450   -1.8388   -7.1961 H         1 <0>         0.0769
     50 H18         9.6809   -0.3075   -7.1186 H         1 <0>         0.0653
     51 H19        11.7694   -1.6039   -6.7240 H         1 <0>         0.0792
     52 H20        10.8335   -3.1351   -6.8016 H         1 <0>         0.0797
     53 H21        12.9899   -1.2517   -8.9733 H         1 <0>         0.1745
     54 H22        10.0000   -2.6430  -11.6527 H         1 <0>         0.2051
     55 H23         1.2116    3.1414    0.0070 H         1 <0>         0.1398
     56 H24        -0.9523    1.9248    0.0170 H         1 <0>         0.1427
     57 H25         1.2350   -1.7435   -0.0195 H         1 <0>         0.1643
@<TRIPOS>BOND
     1    1    6 ar
     2    1    2 ar
     3    1   34 1
     4    2    3 ar
     5    2   35 1
     6    3    4 ar
     7    3   33 1
     8    4    5 ar
     9    4   32 1
    10    5    6 ar
    11    5   36 1
    12    6    7 1
    13    7    8 1
    14    7   37 1
    15    7   38 1
    16    8    9 1
    17    8   25 1
    18    9   10 1
    19    9   39 1
    20    9   40 1
    21   10   11 1
    22   10   41 1
    23   10   42 1
    24   11   12 1
    25   11   43 1
    26   11   44 1
    27   12   13 1
    28   12   45 1
    29   13   14 2
    30   13   15 1
    31   15   16 1
    32   15   46 1
    33   16   17 1
    34   16   47 1
    35   16   48 1
    36   17   18 1
    37   17   49 1
    38   17   50 1
    39   18   19 1
    40   18   51 1
    41   18   52 1
    42   19   24 1
    43   19   20 2
    44   20   21 1
    45   20   53 1
    46   21   22 1
    47   21   23 1
    48   23   24 2
    49   23   54 1
    50   25   30 ar
    51   25   26 ar
    52   26   27 ar
    53   26   55 1
    54   27   28 ar
    55   27   56 1
    56   28   29 ar
    57   28   31 1
    58   29   30 ar
    59   29   57 1
@<TRIPOS>MOLECULE
ZINC26815863
   58    60     0     0     0
SMALL
USER_CHARGES
1-[3-[(5-bromo-2-pyridyl)-[(3,4-dichlorophenyl)methyl]amino]propyl]-3-[3-(1H-imidazol-4-yl)propyl]thiourea
@<TRIPOS>ATOM
      1 C1          2.5606    4.0507    2.2802 C.ar      1 <0>        -0.0878
      2 C2          2.6377    4.3986    3.6160 C.ar      1 <0>        -0.0963
      3 C3          3.8721    4.5502    4.2209 C.ar      1 <0>        -0.0257
      4 C4          5.0304    4.3481    3.4892 C.ar      1 <0>        -0.0315
      5 C5          4.9514    3.9950    2.1543 C.ar      1 <0>        -0.0834
      6 C6          3.7166    3.8439    1.5512 C.ar      1 <0>        -0.0997
      7 C7          3.6309    3.4596    0.0966 C.3       1 <0>         0.1615
      8 N1          3.5940    1.9998   -0.0215 N.pl3     1 <0>        -0.5966
      9 C8          4.8422    1.2433   -0.1481 C.3       1 <0>         0.1283
     10 C9          5.2026    1.0980   -1.6279 C.3       1 <0>        -0.1467
     11 C10         6.5062    0.3079   -1.7601 C.3       1 <0>         0.1280
     12 N2          6.8513    0.1688   -3.1770 N.pl3     1 <0>        -0.6899
     13 C11         7.9676   -0.4953   -3.5366 C.2       1 <0>         0.5635
     14 S1          8.9823   -1.1762   -2.3376 S.2       1 <0>        -0.6389
     15 N3          8.2851   -0.6233   -4.8402 N.pl3     1 <0>        -0.7062
     16 C12         9.4986   -1.3452   -5.2311 C.3       1 <0>         0.1275
     17 C13         9.6236   -1.3444   -6.7559 C.3       1 <0>        -0.1358
     18 C14        10.8908   -2.0982   -7.1642 C.3       1 <0>        -0.0622
     19 C15        11.0140   -2.0974   -8.6661 C.2       1 <0>         0.0237
     20 C16        12.0747   -1.6629   -9.3729 C.2       1 <0>         0.0189
     21 N4         11.7698   -1.8420  -10.6953 N.pl3     1 <0>        -0.5298
     22 H1         12.4953   -1.5551  -11.4708 H         1 <0>         0.5073
     23 C17        10.5324   -2.3802  -10.7505 C.cat     1 <0>         0.3197
     24 N5         10.0887   -2.5348   -9.5330 N.pl3     1 <0>        -0.4977
     25 C18         2.3742    1.3323   -0.0135 C.ar      1 <0>         0.4164
     26 C19         1.1895    2.0616    0.0018 C.ar      1 <0>        -0.2358
     27 C20        -0.0168    1.3853    0.0097 C.ar      1 <0>        -0.0025
     28 C21         0.0021   -0.0041    0.0020 C.ar      1 <0>        -0.2048
     29 C22         1.2153   -0.6637   -0.0131 C.ar      1 <0>         0.1859
     30 N6          2.3509    0.0087   -0.0203 N.ar      1 <0>        -0.5294
     31 Br1        -1.6167   -0.9815    0.0128 Br        1 <0>        -0.0375
     32 Cl1         6.5807    4.5374    4.2471 Cl        1 <0>        -0.0414
     33 Cl2         3.9696    4.9929    5.8967 Cl        1 <0>        -0.0405
     34 H2          1.5965    3.9365    1.8070 H         1 <0>         0.1377
     35 H3          1.7340    4.5560    4.1860 H         1 <0>         0.1456
     36 H4          5.8542    3.8376    1.5830 H         1 <0>         0.1413
     37 H5          2.7168    3.8862   -0.3421 H         1 <0>         0.0966
     38 H6          4.5101    3.8486   -0.4379 H         1 <0>         0.0977
     39 H7          5.6492    1.7772    0.3751 H         1 <0>         0.0800
     40 H8          4.7133    0.2459    0.2976 H         1 <0>         0.0982
     41 H9          4.3956    0.5642   -2.1511 H         1 <0>         0.0746
     42 H10         5.3315    2.0954   -2.0736 H         1 <0>         0.0690
     43 H11         7.3132    0.8418   -1.2368 H         1 <0>         0.0888
     44 H12         6.3773   -0.6895   -1.3145 H         1 <0>         0.0915
     45 H13         6.1994    0.6064   -3.9474 H         1 <0>         0.4158
     46 H14         7.6332   -0.1858   -5.6106 H         1 <0>         0.4133
     47 H15        10.3771   -0.8508   -4.7909 H         1 <0>         0.0916
     48 H16         9.4413   -2.3821   -4.8684 H         1 <0>         0.0903
     49 H17         8.7450   -1.8388   -7.1961 H         1 <0>         0.0686
     50 H18         9.6809   -0.3075   -7.1186 H         1 <0>         0.0806
     51 H19        11.7694   -1.6039   -6.7240 H         1 <0>         0.1182
     52 H20        10.8335   -3.1351   -6.8016 H         1 <0>         0.1085
     53 H21        12.9899   -1.2517   -8.9733 H         1 <0>         0.2217
     54 H22        10.0000   -2.6430  -11.6527 H         1 <0>         0.2597
     55 H23         1.2116    3.1414    0.0070 H         1 <0>         0.1404
     56 H24        -0.9523    1.9248    0.0170 H         1 <0>         0.1439
     57 H25         1.2350   -1.7435   -0.0195 H         1 <0>         0.1643
     58 H26         9.1366   -2.9422   -9.1622 H         1 <0>         0.5013
@<TRIPOS>BOND
     1    1    6 ar
     2    1    2 ar
     3    1   34 1
     4    2    3 ar
     5    2   35 1
     6    3    4 ar
     7    3   33 1
     8    4    5 ar
     9    4   32 1
    10    5    6 ar
    11    5   36 1
    12    6    7 1
    13    7    8 1
    14    7   37 1
    15    7   38 1
    16    8    9 1
    17    8   25 1
    18    9   10 1
    19    9   39 1
    20    9   40 1
    21   10   11 1
    22   10   41 1
    23   10   42 1
    24   11   12 1
    25   11   43 1
    26   11   44 1
    27   12   13 1
    28   12   45 1
    29   13   14 2
    30   13   15 1
    31   15   16 1
    32   15   46 1
    33   16   17 1
    34   16   47 1
    35   16   48 1
    36   17   18 1
    37   17   49 1
    38   17   50 1
    39   18   19 1
    40   18   51 1
    41   18   52 1
    42   19   24 1
    43   19   20 2
    44   20   21 1
    45   20   53 1
    46   21   22 1
    47   21   23 1
    48   23   24 2
    49   23   54 1
    50   24   58 1
    51   25   30 ar
    52   25   26 ar
    53   26   27 ar
    54   26   55 1
    55   27   28 ar
    56   27   56 1
    57   28   29 ar
    58   28   31 1
    59   29   30 ar
    60   29   57 1
@<TRIPOS>MOLECULE
ZINC14953618
   65    67     0     0     0
SMALL
USER_CHARGES

@<TRIPOS>ATOM
      1 C1         -1.5264    1.3779    0.0140 C.3       1 <0>         0.0323
      2 O1         -1.3986   -0.0454    0.0100 O.3       1 <0>        -0.3542
      3 C2         -0.6371   -0.5861   -0.9541 C.2       1 <0>         0.4411
      4 O2         -0.0968    0.1253   -1.7676 O.2       1 <0>        -0.4855
      5 C3         -0.4559   -2.0807   -1.0217 C.3       1 <0>         0.1605
      6 H1         -1.4266   -2.5587   -1.1537 H         1 <0>         0.1309
      7 C4          0.1843   -2.5761    0.2766 C.3       1 <0>        -0.1209
      8 C5          0.2541   -4.1044    0.2599 C.3       1 <0>        -0.1334
      9 C6          0.8943   -4.5999    1.5582 C.3       1 <0>         0.0925
     10 N1          0.9612   -6.0633    1.5423 N.pl3     1 <0>        -0.6946
     11 C7          1.4991   -6.7350    2.6056 C.cat     1 <0>         0.7421
     12 N2          1.5599   -8.0654    2.5911 N.pl3     1 <0>        -0.7946
     13 N3          1.9619   -6.0585    3.6555 N.pl3     1 <0>        -0.7931
     14 N4          0.4118   -2.4167   -2.1533 N.am      1 <0>        -0.7199
     15 C8         -0.1127   -2.5542   -3.3871 C.2       1 <0>         0.5205
     16 O3         -1.3031   -2.3998   -3.5607 O.2       1 <0>        -0.5225
     17 C9          0.7798   -2.8998   -4.5511 C.3       1 <0>        -0.1379
     18 C10        -0.0596   -2.9957   -5.8267 C.3       1 <0>        -0.0992
     19 C11         0.8466   -3.3466   -7.0084 C.3       1 <0>        -0.0477
     20 C12         0.0055   -3.5591   -8.2407 C.2       1 <0>        -0.1448
     21 C13        -0.2917   -2.5674   -9.2727 C.ar      1 <0>        -0.0490
     22 C14         0.0609   -1.2258   -9.4554 C.ar      1 <0>        -0.1139
     23 C15        -0.3934   -0.5462  -10.5639 C.ar      1 <0>         0.1052
     24 C16        -1.1991   -1.1861  -11.4992 C.ar      1 <0>        -0.1665
     25 C17        -1.5552   -2.5081  -11.3330 C.ar      1 <0>         0.1234
     26 C18        -1.1064   -3.2144  -10.2195 C.ar      1 <0>         0.0613
     27 N5         -1.2896   -4.5119   -9.7881 N.pl3     1 <0>        -0.5770
     28 H2         -1.8118   -5.1854  -10.2512 H         1 <0>         0.4222
     29 C19        -0.6148   -4.7085   -8.6059 C.2       1 <0>         0.1374
     30 C20        -0.5745   -5.9777   -7.8477 C.ar      1 <0>        -0.0354
     31 C21         0.6427   -6.4786   -7.3842 C.ar      1 <0>        -0.0922
     32 C22         0.6734   -7.6632   -6.6775 C.ar      1 <0>        -0.1186
     33 C23        -0.4990   -8.3540   -6.4281 C.ar      1 <0>        -0.1108
     34 C24        -1.7091   -7.8627   -6.8849 C.ar      1 <0>        -0.1156
     35 C25        -1.7542   -6.6764   -7.5878 C.ar      1 <0>        -0.1021
     36 F1         -2.3389   -3.1175  -12.2493 F         1 <0>        -0.1319
     37 F2         -0.0547    0.7494  -10.7432 F         1 <0>        -0.1305
     38 H3         -0.5417    1.8308    0.1300 H         1 <0>         0.0627
     39 H4         -1.9684    1.7057   -0.9269 H         1 <0>         0.0640
     40 H5         -2.1664    1.6829    0.8418 H         1 <0>         0.1070
     41 H6          1.1909   -2.1673    0.3644 H         1 <0>         0.0859
     42 H7         -0.4160   -2.2491    1.1256 H         1 <0>         0.1043
     43 H8         -0.7525   -4.5132    0.1721 H         1 <0>         0.0898
     44 H9          0.8545   -4.4315   -0.5891 H         1 <0>         0.0873
     45 H10         1.9009   -4.1911    1.6461 H         1 <0>         0.0945
     46 H11         0.2940   -4.2728    2.4072 H         1 <0>         0.0960
     47 H12         0.6241   -6.5559    0.7777 H         1 <0>         0.4364
     48 H13         1.2228   -8.5581    1.8265 H         1 <0>         0.4412
     49 H14         1.9176   -5.0896    3.6661 H         1 <0>         0.4400
     50 H15         2.3433   -6.5348    4.4095 H         1 <0>         0.4410
     51 H16         1.3638   -2.5402   -2.0145 H         1 <0>         0.4066
     52 H17         1.5365   -2.1245   -4.6716 H         1 <0>         0.0999
     53 H18         1.2669   -3.8568   -4.3639 H         1 <0>         0.0953
     54 H19        -0.8162   -3.7710   -5.7063 H         1 <0>         0.0712
     55 H20        -0.5467   -2.0387   -6.0139 H         1 <0>         0.0735
     56 H21         1.5478   -2.5306   -7.1834 H         1 <0>         0.0768
     57 H22         1.3994   -4.2589   -6.7841 H         1 <0>         0.0758
     58 H23         0.6860   -0.7255   -8.7306 H         1 <0>         0.1436
     59 H24        -1.5498   -0.6425  -12.3641 H         1 <0>         0.1544
     60 H25         1.5586   -5.9405   -7.5786 H         1 <0>         0.1312
     61 H26         1.6148   -8.0522   -6.3186 H         1 <0>         0.1274
     62 H27        -0.4695   -9.2810   -5.8748 H         1 <0>         0.1245
     63 H28        -2.6208   -8.4068   -6.6869 H         1 <0>         0.1273
     64 H29        -2.6999   -6.2914   -7.9396 H         1 <0>         0.1234
     65 H30         1.9413   -8.5417    3.3451 H         1 <0>         0.4414
@<TRIPOS>BOND
     1    1    2 1
     2    1   38 1
     3    1   39 1
     4    1   40 1
     5    2    3 1
     6    3    4 2
     7    3    5 1
     8    5    6 1
     9    5    7 1
    10    5   14 1
    11    7    8 1
    12    7   41 1
    13    7   42 1
    14    8    9 1
    15    8   43 1
    16    8   44 1
    17    9   10 1
    18    9   45 1
    19    9   46 1
    20   10   11 1
    21   10   47 1
    22   11   12 2
    23   11   13 1
    24   12   48 1
    25   12   65 1
    26   13   49 1
    27   13   50 1
    28   14   15 am
    29   14   51 1
    30   15   16 2
    31   15   17 1
    32   17   18 1
    33   17   52 1
    34   17   53 1
    35   18   19 1
    36   18   54 1
    37   18   55 1
    38   19   20 1
    39   19   56 1
    40   19   57 1
    41   20   29 2
    42   20   21 1
    43   21   26 ar
    44   21   22 ar
    45   22   23 ar
    46   22   58 1
    47   23   24 ar
    48   23   37 1
    49   24   25 ar
    50   24   59 1
    51   25   26 ar
    52   25   36 1
    53   26   27 1
    54   27   28 1
    55   27   29 1
    56   29   30 1
    57   30   35 ar
    58   30   31 ar
    59   31   32 ar
    60   31   60 1
    61   32   33 ar
    62   32   61 1
    63   33   34 ar
    64   33   62 1
    65   34   35 ar
    66   34   63 1
    67   35   64 1
