@<TRIPOS>MOLECULE
ZINC01705403
   54    55     0     0     0
SMALL
USER_CHARGES
4-[6-(4-amidinophenoxy)hexoxy]benzamidine
@<TRIPOS>ATOM
      1 C1          4.8032    0.3323   -0.0406 C.ar      1 <0>        -0.0190
      2 C2          3.9848    1.4408   -0.0268 C.ar      1 <0>        -0.1488
      3 C3          4.5384    2.7150   -0.0253 C.ar      1 <0>         0.2043
      4 C4          5.9181    2.8765   -0.0377 C.ar      1 <0>        -0.2120
      5 C5          6.7425    1.7724   -0.0515 C.ar      1 <0>        -0.0098
      6 C6          6.1898    0.4909   -0.0531 C.ar      1 <0>        -0.2029
      7 C7          7.0717   -0.6967   -0.0674 C.cat     1 <0>         0.6025
      8 N1          8.4406   -0.5384   -0.0797 N.pl3     1 <0>        -0.7845
      9 O1          3.7290    3.8050   -0.0116 O.3       1 <0>        -0.2970
     10 C8          4.3644    5.0850   -0.0108 C.3       1 <0>         0.0506
     11 C9          3.2993    6.1832    0.0054 C.3       1 <0>        -0.1220
     12 C10         3.9797    7.5535    0.0062 C.3       1 <0>        -0.1166
     13 C11         2.9145    8.6517    0.0223 C.3       1 <0>        -0.1166
     14 C12         3.5949   10.0222    0.0232 C.3       1 <0>        -0.1220
     15 C13         2.5297   11.1204    0.0394 C.3       1 <0>         0.0506
     16 O2          3.1652   12.4003    0.0401 O.3       1 <0>        -0.2970
     17 C14         2.3558   13.4904    0.0538 C.ar      1 <0>         0.2043
     18 C15         0.9759   13.3289    0.0604 C.ar      1 <0>        -0.2120
     19 C16         0.1516   14.4328    0.0792 C.ar      1 <0>        -0.0098
     20 C17         0.7043   15.7144    0.0808 C.ar      1 <0>        -0.2030
     21 C18         2.0910   15.8729    0.0688 C.ar      1 <0>        -0.0189
     22 C19         2.9094   14.7646    0.0553 C.ar      1 <0>        -0.1488
     23 C20        -0.1775   16.9021    0.0957 C.cat     1 <0>         0.6025
     24 N2         -1.5465   16.7437    0.1076 N.pl3     1 <0>        -0.7845
     25 H1          4.3722   -0.6580   -0.0414 H         1 <0>         0.1437
     26 H2          2.9117    1.3189   -0.0217 H         1 <0>         0.1568
     27 H3          6.3451    3.8685   -0.0369 H         1 <0>         0.1512
     28 H4          7.8150    1.8988   -0.0608 H         1 <0>         0.1407
     29 H5          7.0491   -2.7332   -0.0773 H         1 <0>         0.4443
     30 H6          8.8259    0.3519   -0.0791 H         1 <0>         0.4412
     31 H7          9.0189   -1.3171   -0.0892 H         1 <0>         0.4314
     32 H8          4.9948    5.1771    0.8736 H         1 <0>         0.0738
     33 H9          4.9776    5.1866   -0.9062 H         1 <0>         0.0737
     34 H10         2.6690    6.0910   -0.8791 H         1 <0>         0.0800
     35 H11         2.6861    6.0814    0.9008 H         1 <0>         0.0800
     36 H12         4.6100    7.6457    0.8907 H         1 <0>         0.0711
     37 H13         4.5928    7.6553   -0.8891 H         1 <0>         0.0711
     38 H14         2.2841    8.5596   -0.8621 H         1 <0>         0.0711
     39 H15         2.3012    8.5500    0.9178 H         1 <0>         0.0711
     40 H16         4.2252   10.1143    0.9077 H         1 <0>         0.0800
     41 H17         4.2080   10.1239   -0.8722 H         1 <0>         0.0800
     42 H18         1.8993   11.0283   -0.8451 H         1 <0>         0.0737
     43 H19         1.9165   11.0186    0.9347 H         1 <0>         0.0738
     44 H20         0.5490   12.3369    0.0547 H         1 <0>         0.1512
     45 H21        -0.9210   14.3065    0.0885 H         1 <0>         0.1407
     46 H22         2.5219   16.8633    0.0703 H         1 <0>         0.1436
     47 H23         3.9824   14.8864    0.0464 H         1 <0>         0.1568
     48 H24        -0.1550   18.9384    0.1069 H         1 <0>         0.4443
     49 H25        -1.9317   15.8535    0.1061 H         1 <0>         0.4412
     50 H26        -2.1247   17.5224    0.1173 H         1 <0>         0.4313
     51 N3          6.4838   -1.8841   -0.0676 N.pl3     1 <0>        -0.7629
     52 H27         5.4592   -1.9496   -0.0580 H         1 <0>         0.4590
     53 N4          0.4104   18.0894    0.0968 N.pl3     1 <0>        -0.7628
     54 H28         1.4350   18.1549    0.0876 H         1 <0>         0.4590
@<TRIPOS>BOND
     1    1    6 ar
     2    1    2 ar
     3    1   25 1
     4    2    3 ar
     5    2   26 1
     6    3    4 ar
     7    3    9 1
     8    4    5 ar
     9    4   27 1
    10    5    6 ar
    11    5   28 1
    12    6    7 1
    13    7    8 1
    14    7   51 2
    15    8   30 1
    16    8   31 1
    17    9   10 1
    18   10   11 1
    19   10   32 1
    20   10   33 1
    21   11   12 1
    22   11   34 1
    23   11   35 1
    24   12   13 1
    25   12   36 1
    26   12   37 1
    27   13   14 1
    28   13   38 1
    29   13   39 1
    30   14   15 1
    31   14   40 1
    32   14   41 1
    33   15   16 1
    34   15   42 1
    35   15   43 1
    36   16   17 1
    37   17   22 ar
    38   17   18 ar
    39   18   19 ar
    40   18   44 1
    41   19   20 ar
    42   19   45 1
    43   20   21 ar
    44   20   23 1
    45   21   22 ar
    46   21   46 1
    47   22   47 1
    48   23   24 1
    49   23   53 2
    50   24   49 1
    51   24   50 1
    52   29   51 1
    53   48   53 1
    54   51   52 1
    55   53   54 1
@<TRIPOS>MOLECULE
ZINC01665651
   45    46     0     0     0
SMALL
USER_CHARGES
4-[3-(4-amidino-2-bromo-phenoxy)propoxy]-3-bromo-benzamidine
@<TRIPOS>ATOM
      1 C1         -2.4793   -0.7812    0.0177 C.ar      1 <0>         0.0005
      2 C2         -1.1100   -0.6255    0.0107 C.ar      1 <0>        -0.2031
      3 C3         -0.5539    0.6472    0.0118 C.ar      1 <0>         0.2244
      4 C4         -1.3757    1.7682    0.0248 C.ar      1 <0>        -0.1336
      5 C5         -2.7463    1.6196    0.0369 C.ar      1 <0>         0.0061
      6 C6         -3.3078    0.3418    0.0362 C.ar      1 <0>        -0.1915
      7 C7         -4.7779    0.1782    0.0491 C.cat     1 <0>         0.6043
      8 N1         -5.3307   -1.0842    0.0484 N.pl3     1 <0>        -0.7807
      9 Br1        -0.6132    3.4986    0.0257 Br        1 <0>         0.0159
     10 O1          0.7957    0.7968   -0.0006 O.3       1 <0>        -0.2793
     11 C8          1.5806   -0.3972   -0.0142 C.3       1 <0>         0.0556
     12 C9          3.0661   -0.0310   -0.0267 C.3       1 <0>        -0.1262
     13 C10         3.9065   -1.3094   -0.0413 C.3       1 <0>         0.0556
     14 O2          5.2940   -0.9672   -0.0529 O.3       1 <0>        -0.2793
     15 C11         6.1821   -1.9943   -0.0667 C.ar      1 <0>         0.2244
     16 C12         5.7247   -3.3058   -0.0689 C.ar      1 <0>        -0.2017
     17 C13         6.6231   -4.3507   -0.0833 C.ar      1 <0>        -0.0045
     18 C14         7.9942   -4.0903   -0.0957 C.ar      1 <0>        -0.1917
     19 C15         8.4510   -2.7715   -0.0934 C.ar      1 <0>         0.0112
     20 C16         7.5468   -1.7308   -0.0843 C.ar      1 <0>        -0.1349
     21 Br2         8.1637    0.0568   -0.0884 Br        1 <0>         0.0155
     22 C17         8.9612   -5.2097   -0.1108 C.cat     1 <0>         0.6045
     23 N2         10.3148   -4.9508   -0.1229 N.pl3     1 <0>        -0.7786
     24 H1         -2.9107   -1.7712    0.0127 H         1 <0>         0.1484
     25 H2         -0.4685   -1.4943   -0.0004 H         1 <0>         0.1590
     26 H3         -3.3846    2.4908    0.0464 H         1 <0>         0.1526
     27 H4         -6.5257    1.2234    0.0700 H         1 <0>         0.4475
     28 H5         -4.7559   -1.8655    0.0396 H         1 <0>         0.4414
     29 H6         -6.2948   -1.1915    0.0569 H         1 <0>         0.4338
     30 H7          1.3595   -0.9877    0.8749 H         1 <0>         0.0806
     31 H8          1.3423   -0.9785   -0.9048 H         1 <0>         0.0806
     32 H9          3.2873    0.5595   -0.9158 H         1 <0>         0.0991
     33 H10         3.3045    0.5504    0.8641 H         1 <0>         0.0991
     34 H11         3.6853   -1.8997    0.8479 H         1 <0>         0.0806
     35 H12         3.6683   -1.8907   -0.9319 H         1 <0>         0.0806
     36 H13         4.6637   -3.5069   -0.0598 H         1 <0>         0.1594
     37 H14         6.2666   -5.3701   -0.0854 H         1 <0>         0.1469
     38 H15         9.5113   -2.5664   -0.1034 H         1 <0>         0.1544
     39 H16         9.0888   -7.2423   -0.1218 H         1 <0>         0.4471
     40 H17        10.6333   -4.0347   -0.1217 H         1 <0>         0.4431
     41 H18        10.9488   -5.6848   -0.1328 H         1 <0>         0.4341
     42 N3         -5.5074    1.2841    0.0608 N.pl3     1 <0>        -0.7586
     43 H19        -5.0479    2.2023    0.0607 H         1 <0>         0.4599
     44 N4          8.4624   -6.4371   -0.1118 N.pl3     1 <0>        -0.7607
     45 H20         7.4454   -6.5780   -0.1025 H         1 <0>         0.4581
@<TRIPOS>BOND
     1    1    6 ar
     2    1    2 ar
     3    1   24 1
     4    2    3 ar
     5    2   25 1
     6    3    4 ar
     7    3   10 1
     8    4    5 ar
     9    4    9 1
    10    5    6 ar
    11    5   26 1
    12    6    7 1
    13    7    8 1
    14    7   42 2
    15    8   28 1
    16    8   29 1
    17   10   11 1
    18   11   12 1
    19   11   30 1
    20   11   31 1
    21   12   13 1
    22   12   32 1
    23   12   33 1
    24   13   14 1
    25   13   34 1
    26   13   35 1
    27   14   15 1
    28   15   20 ar
    29   15   16 ar
    30   16   17 ar
    31   16   36 1
    32   17   18 ar
    33   17   37 1
    34   18   19 ar
    35   18   22 1
    36   19   20 ar
    37   19   38 1
    38   20   21 1
    39   22   23 1
    40   22   44 2
    41   23   40 1
    42   23   41 1
    43   27   42 1
    44   39   44 1
    45   42   43 1
    46   44   45 1
@<TRIPOS>MOLECULE
ZINC01530775
   51    52     0     0     0
SMALL
USER_CHARGES

@<TRIPOS>ATOM
      1 C1         -0.0169    1.3924    0.0097 C.ar      1 <0>        -0.0145
      2 C2          1.1675    2.0955    0.0022 C.ar      1 <0>        -0.1494
      3 C3          2.3802    1.4171   -0.0135 C.ar      1 <0>         0.2053
      4 C4          2.4031    0.0276   -0.0217 C.ar      1 <0>        -0.2123
      5 C5          1.2228   -0.6824   -0.0138 C.ar      1 <0>        -0.0111
      6 C6          0.0021   -0.0041    0.0020 C.ar      1 <0>        -0.2020
      7 C7         -1.2662   -0.7620    0.0105 C.cat     1 <0>         0.6035
      8 N1         -1.2462   -2.0942    0.0032 N.pl3     1 <0>        -0.7664
      9 N2         -2.4299   -0.1132    0.0256 N.pl3     1 <0>        -0.7643
     10 O1          3.5453    2.1133   -0.0214 O.3       1 <0>        -0.2957
     11 C8          4.7553    1.3532   -0.0374 C.3       1 <0>         0.0514
     12 C9          5.9545    2.3033   -0.0443 C.3       1 <0>        -0.1221
     13 C10         7.2499    1.4894   -0.0615 C.3       1 <0>        -0.1133
     14 C11         8.4491    2.4396   -0.0683 C.3       1 <0>        -0.1221
     15 C12         9.7445    1.6257   -0.0855 C.3       1 <0>         0.0514
     16 O2         10.8646    2.5131   -0.0919 O.3       1 <0>        -0.2957
     17 C13        12.0985    1.9479   -0.1072 C.ar      1 <0>         0.2053
     18 C14        12.2269    0.5642   -0.1216 C.ar      1 <0>        -0.2124
     19 C15        13.4774   -0.0130   -0.1367 C.ar      1 <0>        -0.0111
     20 C16        14.6171    0.7942   -0.1379 C.ar      1 <0>        -0.2020
     21 C17        14.4841    2.1844   -0.1239 C.ar      1 <0>        -0.0146
     22 C18        13.2303    2.7544   -0.1141 C.ar      1 <0>        -0.1493
     23 C19        15.9604    0.1789   -0.1536 C.cat     1 <0>         0.6035
     24 N3         17.0466    0.9505   -0.1548 N.pl3     1 <0>        -0.7642
     25 N4         16.0854   -1.1476   -0.1666 N.pl3     1 <0>        -0.7664
     26 H1         -0.9589    1.9203    0.0260 H         1 <0>         0.1455
     27 H2          1.1536    3.1754    0.0081 H         1 <0>         0.1574
     28 H3          3.3474   -0.4962   -0.0346 H         1 <0>         0.1509
     29 H4          1.2413   -1.7622   -0.0204 H         1 <0>         0.1404
     30 H5         -0.3991   -2.5665   -0.0077 H         1 <0>         0.4422
     31 H6         -2.4445    0.8567    0.0309 H         1 <0>         0.4437
     32 H7         -3.2626   -0.6108    0.0312 H         1 <0>         0.4338
     33 H8          4.7984    0.7200    0.8488 H         1 <0>         0.0738
     34 H9          4.7807    0.7296   -0.9311 H         1 <0>         0.0738
     35 H10         5.9113    2.9365   -0.9305 H         1 <0>         0.0832
     36 H11         5.9290    2.9269    0.8494 H         1 <0>         0.0832
     37 H12         7.2930    0.8563    0.8247 H         1 <0>         0.0727
     38 H13         7.2753    0.8658   -0.9551 H         1 <0>         0.0727
     39 H14         8.4060    3.0727   -0.9545 H         1 <0>         0.0832
     40 H15         8.4236    3.0632    0.8253 H         1 <0>         0.0832
     41 H16         9.7877    0.9925    0.8007 H         1 <0>         0.0738
     42 H17         9.7700    1.0021   -0.9792 H         1 <0>         0.0738
     43 H18        11.3451   -0.0593   -0.1207 H         1 <0>         0.1509
     44 H19        13.5764   -1.0884   -0.1472 H         1 <0>         0.1404
     45 H20        15.3632    2.8117   -0.1244 H         1 <0>         0.1455
     46 H21        13.1265    3.8294   -0.1073 H         1 <0>         0.1574
     47 H22        16.9556    1.9162   -0.1453 H         1 <0>         0.4437
     48 H23        15.2946   -1.7093   -0.1657 H         1 <0>         0.4422
     49 H24        16.9672   -1.5515   -0.1768 H         1 <0>         0.4336
     50 H25        -2.0789   -2.5918    0.0088 H         1 <0>         0.4337
     51 H26        17.9285    0.5466   -0.1650 H         1 <0>         0.4338
@<TRIPOS>BOND
     1    1    6 ar
     2    1    2 ar
     3    1   26 1
     4    2    3 ar
     5    2   27 1
     6    3    4 ar
     7    3   10 1
     8    4    5 ar
     9    4   28 1
    10    5    6 ar
    11    5   29 1
    12    6    7 1
    13    7    8 2
    14    7    9 1
    15    8   30 1
    16    8   50 1
    17    9   31 1
    18    9   32 1
    19   10   11 1
    20   11   12 1
    21   11   33 1
    22   11   34 1
    23   12   13 1
    24   12   35 1
    25   12   36 1
    26   13   14 1
    27   13   37 1
    28   13   38 1
    29   14   15 1
    30   14   39 1
    31   14   40 1
    32   15   16 1
    33   15   41 1
    34   15   42 1
    35   16   17 1
    36   17   22 ar
    37   17   18 ar
    38   18   19 ar
    39   18   43 1
    40   19   20 ar
    41   19   44 1
    42   20   21 ar
    43   20   23 1
    44   21   22 ar
    45   21   45 1
    46   22   46 1
    47   23   24 2
    48   23   25 1
    49   24   47 1
    50   24   51 1
    51   25   48 1
    52   25   49 1
