@<TRIPOS>MOLECULE
ZINC58631551
   38    40     0     0     0
SMALL
USER_CHARGES

@<TRIPOS>ATOM
      1 C1         -0.0184    1.5028    0.0103 C.3       1 <0>        -0.0741
      2 C2          0.0021   -0.0041    0.0020 C.2       1 <0>         0.0868
      3 C3          0.0080   -0.8148   -1.1361 C.2       1 <0>        -0.2704
      4 C4          0.0283   -2.1125   -0.7242 C.2       1 <0>         0.3120
      5 N1          0.0349   -2.1091    0.6338 N.pl3     1 <0>        -0.4958
      6 H1          0.0487   -2.8914    1.2071 H         1 <0>         0.4354
      7 N2          0.0230   -0.7746    1.0591 N.2       1 <0>        -0.2858
      8 N3          0.0394   -3.2378   -1.5456 N.pl3     1 <0>        -0.6217
      9 C5          0.0298   -3.0899   -2.9246 C.ar      1 <0>         0.4936
     10 C6          0.0351   -4.2117   -3.7582 C.ar      1 <0>        -0.2532
     11 C7          0.0252   -4.0159   -5.1259 C.ar      1 <0>         0.2431
     12 N4          0.0110   -2.7797   -5.6037 N.ar      1 <0>        -0.5797
     13 C8          0.0064   -1.7350   -4.7896 C.ar      1 <0>         0.6095
     14 N5          0.0100   -1.8793   -3.4729 N.ar      1 <0>        -0.5867
     15 N6         -0.0080   -0.4597   -5.3285 N.pl3     1 <0>        -0.6801
     16 C9         -0.0178   -0.2789   -6.7823 C.3       1 <0>         0.2337
     17 H2          0.5760   -1.0641   -7.2501 H         1 <0>         0.1249
     18 C10        -1.4571   -0.3534   -7.2958 C.3       1 <0>        -0.1578
     19 C11         0.5688    1.0663   -7.1252 C.ar      1 <0>         0.2983
     20 N7          0.1994    2.1226   -6.4292 N.ar      1 <0>        -0.4844
     21 C12         0.6928    3.3201   -6.7002 C.ar      1 <0>         0.1324
     22 C13         1.6106    3.4535   -7.7331 C.ar      1 <0>        -0.0007
     23 C14         1.9743    2.3171   -8.4426 C.ar      1 <0>         0.1321
     24 N8          1.4411    1.1529   -8.1092 N.ar      1 <0>        -0.4782
     25 F1          2.1365    4.6594   -8.0405 F         1 <0>        -0.1143
     26 Cl1         0.0542   -5.8140   -3.0905 Cl        1 <0>        -0.0482
     27 H3          1.0042    1.8801    0.0026 H         1 <0>         0.0774
     28 H4         -0.5455    1.8639   -0.8728 H         1 <0>         0.0795
     29 H5         -0.5286    1.8543    0.9071 H         1 <0>         0.0730
     30 H6         -0.0022   -0.4728   -2.1605 H         1 <0>         0.1820
     31 H7          0.0539   -4.1247   -1.1531 H         1 <0>         0.4249
     32 H8          0.0292   -4.8611   -5.7983 H         1 <0>         0.1817
     33 H9         -0.0115    0.3141   -4.7435 H         1 <0>         0.4227
     34 H10        -2.0509    0.4319   -6.8279 H         1 <0>         0.0662
     35 H11        -1.4644   -0.2189   -8.3774 H         1 <0>         0.0715
     36 H12        -1.8814   -1.3263   -7.0478 H         1 <0>         0.0782
     37 H13         0.3855    4.1817   -6.1261 H         1 <0>         0.1860
     38 H14         2.6853    2.3817   -9.2530 H         1 <0>         0.1860
@<TRIPOS>BOND
     1    1    2 1
     2    1   27 1
     3    1   28 1
     4    1   29 1
     5    2    7 2
     6    2    3 1
     7    3    4 2
     8    3   30 1
     9    4    5 1
    10    4    8 1
    11    5    6 1
    12    5    7 1
    13    8    9 1
    14    8   31 1
    15    9   14 ar
    16    9   10 ar
    17   10   11 ar
    18   10   26 1
    19   11   12 ar
    20   11   32 1
    21   12   13 ar
    22   13   14 ar
    23   13   15 1
    24   15   16 1
    25   15   33 1
    26   16   17 1
    27   16   18 1
    28   16   19 1
    29   18   34 1
    30   18   35 1
    31   18   36 1
    32   19   24 ar
    33   19   20 ar
    34   20   21 ar
    35   21   22 ar
    36   21   37 1
    37   22   23 ar
    38   22   25 1
    39   23   24 ar
    40   23   38 1
@<TRIPOS>MOLECULE
ZINC03874496
   29    30     0     0     0
SMALL
USER_CHARGES

@<TRIPOS>ATOM
      1 C1          0.0648    1.2424   -0.6206 C.ar      1 <0>        -0.0221
      2 C2          1.2502    1.9519   -0.6188 C.ar      1 <0>        -0.1227
      3 C3          2.3815    1.4095   -0.0244 C.ar      1 <0>         0.2190
      4 C4          2.3172    0.1532    0.5673 C.ar      1 <0>        -0.0788
      5 C5          1.1283   -0.5509    0.5618 C.ar      1 <0>        -0.0202
      6 C6          0.0037   -0.0068   -0.0315 C.ar      1 <0>        -0.0611
      7 N1         -1.2685   -0.7635   -0.0352 N.pl3     1 <0>         0.0361
      8 O1         -2.2526   -0.2891   -0.5531 O.2       1 <0>        -0.1507
      9 O2         -1.3236   -1.8560    0.4796 O.3       1 <0>        -0.1541
     10 Cl1         3.7288   -0.5303    1.3116 Cl        1 <0>        -0.0309
     11 N2          3.5835    2.1253   -0.0212 N.am      1 <0>        -0.6659
     12 C7          3.5675    3.4697   -0.1160 C.2       1 <0>         0.5690
     13 O3          2.5087    4.0676   -0.1029 O.2       1 <0>        -0.4815
     14 C8          4.8344    4.2157   -0.2357 C.ar      1 <0>        -0.1651
     15 C9          6.0529    3.5323   -0.2570 C.ar      1 <0>        -0.0601
     16 C10         7.2335    4.2358   -0.3691 C.ar      1 <0>        -0.0539
     17 C11         7.2169    5.6191   -0.4608 C.ar      1 <0>        -0.0563
     18 C12         6.0194    6.3058   -0.4409 C.ar      1 <0>        -0.1399
     19 C13         4.8223    5.6136   -0.3345 C.ar      1 <0>         0.1862
     20 O4          3.6447    6.2873   -0.3205 O.3       1 <0>        -0.4738
     21 Cl2         8.7470    3.3859   -0.3949 Cl        1 <0>        -0.0500
     22 H1         -0.8165    1.6661   -1.0791 H         1 <0>         0.1660
     23 H2          1.2969    2.9276   -1.0796 H         1 <0>         0.1789
     24 H3          1.0772   -1.5270    1.0212 H         1 <0>         0.1692
     25 H4          4.4284    1.6541    0.0492 H         1 <0>         0.4185
     26 H5          6.0700    2.4548   -0.1854 H         1 <0>         0.1395
     27 H6          8.1461    6.1626   -0.5479 H         1 <0>         0.1488
     28 H7          6.0146    7.3835   -0.5124 H         1 <0>         0.1525
     29 H8          3.3496    6.5452    0.5635 H         1 <0>         0.4032
@<TRIPOS>BOND
     1    1    6 ar
     2    1    2 ar
     3    1   22 1
     4    2    3 ar
     5    2   23 1
     6    3    4 ar
     7    3   11 1
     8    4    5 ar
     9    4   10 1
    10    5    6 ar
    11    5   24 1
    12    6    7 1
    13    7    8 2
    14    7    9 1
    15   11   12 am
    16   11   25 1
    17   12   13 2
    18   12   14 1
    19   14   19 ar
    20   14   15 ar
    21   15   16 ar
    22   15   26 1
    23   16   17 ar
    24   16   21 1
    25   17   18 ar
    26   17   27 1
    27   18   19 ar
    28   18   28 1
    29   19   20 1
    30   20   29 1
