@<TRIPOS>MOLECULE
ZINC03814434
   62    69     0     0     0
SMALL
USER_CHARGES

@<TRIPOS>ATOM
      1 C1         -0.1295    1.5952   -0.2973 C.3       1 <0>        -0.1687
      2 C2         -0.0862    0.0696   -0.1900 C.3       1 <0>         0.3342
      3 C3          0.5692   -0.4501   -1.4637 C.3       1 <0>         0.0405
      4 H1          1.4796    0.1159   -1.6612 H         1 <0>         0.1372
      5 C4          0.9167   -1.9328   -1.2889 C.3       1 <0>        -0.0061
      6 H2          1.3963   -2.3075   -2.1932 H         1 <0>         0.1555
      7 C5          1.8785   -2.0596   -0.1021 C.3       1 <0>        -0.1827
      8 C6          1.2061   -1.5198    1.1541 C.3       1 <0>         0.2999
      9 H3          1.9797   -1.4243    1.9161 H         1 <0>         0.1550
     10 O1          0.6555   -0.2442    0.9666 O.3       1 <0>        -0.3234
     11 N1          0.2189   -2.4746    1.6600 N.pl3     1 <0>        -0.5366
     12 C7          0.4705   -3.5508    2.4739 C.ar      1 <0>         0.1469
     13 C8          1.6649   -4.0152    3.0240 C.ar      1 <0>        -0.1522
     14 C9          1.5948   -5.1456    3.8201 C.ar      1 <0>        -0.0582
     15 C10         0.4006   -5.7997    4.0696 C.ar      1 <0>        -0.1457
     16 C11        -0.7984   -5.3597    3.5358 C.ar      1 <0>        -0.0280
     17 C12        -0.7487   -4.2198    2.7307 C.ar      1 <0>        -0.1131
     18 C13        -1.7893   -3.4830    2.0197 C.ar      1 <0>         0.0276
     19 C14        -1.1442   -2.4197    1.3841 C.ar      1 <0>         0.0376
     20 C15        -1.8806   -1.5095    0.6175 C.ar      1 <0>         0.0894
     21 N2         -1.4718   -0.3951   -0.1095 N.pl3     1 <0>        -0.5183
     22 C16        -2.5611    0.1913   -0.7090 C.ar      1 <0>         0.1618
     23 C17        -2.6521    1.3277   -1.5118 C.ar      1 <0>        -0.1305
     24 C18        -3.9109    1.6745   -1.9733 C.ar      1 <0>        -0.0737
     25 C19        -5.0393    0.9368   -1.6616 C.ar      1 <0>        -0.1358
     26 C20        -4.9745   -0.1955   -0.8662 C.ar      1 <0>        -0.0503
     27 C21        -3.7147   -0.5596   -0.3919 C.ar      1 <0>        -0.1042
     28 C22        -3.2693   -1.6660    0.4845 C.ar      1 <0>        -0.0360
     29 C23        -3.9084   -2.7313    1.1102 C.ar      1 <0>        -0.0288
     30 C24        -3.1873   -3.6421    1.8754 C.ar      1 <0>        -0.1255
     31 C25        -4.1221   -4.6480    2.4030 C.2       1 <0>         0.5632
     32 O2         -3.8062   -5.5851    3.1110 O.2       1 <0>        -0.5106
     33 N3         -5.3744   -4.3851    1.9926 N.am      1 <0>        -0.7162
     34 C26        -5.3495   -3.1771    1.1601 C.3       1 <0>         0.1358
     35 N4         -0.3067   -2.7008   -1.0216 N.4       1 <0>        -0.5252
     36 C27         0.0145   -4.1336   -0.9773 C.3       1 <0>        -0.0497
     37 O3         -0.3340   -0.2979   -2.5607 O.3       1 <0>        -0.3614
     38 C28         0.3101   -0.0933   -3.8198 C.3       1 <0>         0.0162
     39 H4          0.8261    2.0094    0.0240 H         1 <0>         0.0984
     40 H5         -0.3202    1.8814   -1.3317 H         1 <0>         0.1036
     41 H6         -0.9255    1.9818    0.3392 H         1 <0>         0.0921
     42 H7          2.1370   -3.1081    0.0458 H         1 <0>         0.1233
     43 H8          2.7835   -1.4869   -0.3048 H         1 <0>         0.1455
     44 H9          2.6036   -3.5149    2.8368 H         1 <0>         0.1365
     45 H10         2.5026   -5.5304    4.2610 H         1 <0>         0.1359
     46 H11         0.4045   -6.6780    4.6980 H         1 <0>         0.1352
     47 H12        -1.7278   -5.8736    3.7323 H         1 <0>         0.1600
     48 H13        -1.7792    1.9122   -1.7624 H         1 <0>         0.1440
     49 H14        -4.0153    2.5500   -2.5970 H         1 <0>         0.1336
     50 H15        -5.9967    1.2527   -2.0488 H         1 <0>         0.1332
     51 H16        -5.8575   -0.7687   -0.6249 H         1 <0>         0.1415
     52 H17        -6.1628   -4.9065    2.2103 H         1 <0>         0.4348
     53 H18        -5.9671   -2.3994    1.6094 H         1 <0>         0.1115
     54 H19        -5.7060   -3.4063    0.1559 H         1 <0>         0.1103
     55 H20        -0.6958   -2.4158   -0.1353 H         1 <0>         0.4186
     56 H21         0.4349   -4.4415   -1.9347 H         1 <0>         0.1256
     57 H22         0.7403   -4.3189   -0.1854 H         1 <0>         0.1191
     58 H23        -0.8932   -4.7035   -0.7789 H         1 <0>         0.1256
     59 H24         0.9168    0.8112   -3.7748 H         1 <0>         0.0633
     60 H25         0.9482   -0.9479   -4.0446 H         1 <0>         0.0514
     61 H26        -0.4433    0.0130   -4.6003 H         1 <0>         0.1100
     62 H27        -0.9785   -2.5293   -1.7546 H         1 <0>         0.4274
@<TRIPOS>BOND
     1    1    2 1
     2    1   39 1
     3    1   40 1
     4    1   41 1
     5    2   10 1
     6    2   21 1
     7    2    3 1
     8    3    4 1
     9    3    5 1
    10    3   37 1
    11    5    6 1
    12    5    7 1
    13    5   35 1
    14    7    8 1
    15    7   42 1
    16    7   43 1
    17    8    9 1
    18    8   10 1
    19    8   11 1
    20   11   19 1
    21   11   12 1
    22   12   17 ar
    23   12   13 ar
    24   13   14 ar
    25   13   44 1
    26   14   15 ar
    27   14   45 1
    28   15   16 ar
    29   15   46 1
    30   16   17 ar
    31   16   47 1
    32   17   18 1
    33   18   30 ar
    34   18   19 ar
    35   19   20 ar
    36   20   28 ar
    37   20   21 1
    38   21   22 1
    39   22   27 ar
    40   22   23 ar
    41   23   24 ar
    42   23   48 1
    43   24   25 ar
    44   24   49 1
    45   25   26 ar
    46   25   50 1
    47   26   27 ar
    48   26   51 1
    49   27   28 1
    50   28   29 ar
    51   29   34 1
    52   29   30 ar
    53   30   31 1
    54   31   32 2
    55   31   33 am
    56   33   34 1
    57   33   52 1
    58   34   53 1
    59   34   54 1
    60   35   36 1
    61   35   55 1
    62   35   62 1
    63   36   56 1
    64   36   57 1
    65   36   58 1
    66   37   38 1
    67   38   59 1
    68   38   60 1
    69   38   61 1
@<TRIPOS>MOLECULE
ZINC03964325
   57    59     0     0     0
SMALL
USER_CHARGES

@<TRIPOS>ATOM
      1 C1          0.1489    2.0884    0.1150 C.3       1 <0>        -0.1876
      2 C2          0.1348    0.5603    0.1888 C.3       1 <0>        -0.0191
      3 N1         -1.2520    0.0881    0.2979 N.4       1 <0>        -0.3822
      4 C3         -1.9779    0.4111   -0.9377 C.3       1 <0>        -0.0142
      5 C4         -3.4549    0.0484   -0.7712 C.3       1 <0>        -0.1895
      6 C5         -1.2593   -1.3663    0.5041 C.3       1 <0>        -0.0265
      7 C6         -0.6131   -1.6936    1.8518 C.3       1 <0>         0.0952
      8 N2         -0.6203   -3.1440    2.0575 N.am      1 <0>        -0.7289
      9 C7         -0.0988   -3.6675    3.1846 C.2       1 <0>         0.6111
     10 O1          0.3779   -2.9358    4.0309 O.2       1 <0>        -0.5184
     11 C8         -0.1061   -5.1270    3.3915 C.2       1 <0>        -0.2420
     12 C9          0.9071   -6.0320    3.0089 C.2       1 <0>        -0.0577
     13 C10         0.4868   -7.2892    3.3960 C.2       1 <0>        -0.0075
     14 N3         -0.7476   -7.1595    3.9982 N.pl3     1 <0>        -0.4910
     15 H1         -1.2731   -7.8879    4.3645 H         1 <0>         0.4270
     16 C11        -1.1044   -5.8642    4.0022 C.2       1 <0>         0.1158
     17 C12        -2.3825   -5.3072    4.5743 C.3       1 <0>        -0.0999
     18 C13         1.1957   -8.4957    3.2079 C.2       1 <0>         0.0729
     19 C14         0.5100   -9.6674    2.9570 C.2       1 <0>        -0.1889
     20 C15         1.0648  -11.0377    2.8871 C.ar      1 <0>        -0.0736
     21 C16         2.3472  -11.5557    3.0375 C.ar      1 <0>        -0.1000
     22 C17         2.5553  -12.9162    2.9116 C.ar      1 <0>         0.0861
     23 C18         1.4888  -13.7593    2.6366 C.ar      1 <0>        -0.1139
     24 C19         0.2139  -13.2531    2.4856 C.ar      1 <0>        -0.1021
     25 C20        -0.0144  -11.8871    2.6092 C.ar      1 <0>         0.1282
     26 N4         -1.1765  -11.1301    2.5069 N.am      1 <0>        -0.6466
     27 C21        -0.9294   -9.8245    2.7079 C.2       1 <0>         0.5595
     28 O2         -1.7538   -8.9280    2.6842 O.2       1 <0>        -0.5156
     29 F1          3.7984  -13.4252    3.0561 F         1 <0>        -0.1318
     30 C22         2.1990   -5.6919    2.3116 C.3       1 <0>        -0.0931
     31 H2          1.1793    2.4435    0.1331 H         1 <0>         0.1076
     32 H3         -0.3308    2.4121   -0.8087 H         1 <0>         0.0811
     33 H4         -0.3916    2.4984    0.9682 H         1 <0>         0.0809
     34 H5          0.5888    0.1488   -0.7126 H         1 <0>         0.1317
     35 H6          0.6996    0.2334    1.0619 H         1 <0>         0.1337
     36 H7         -1.8867    1.4775   -1.1444 H         1 <0>         0.1351
     37 H8         -1.5554   -0.1571   -1.7664 H         1 <0>         0.1307
     38 H9         -3.5537   -1.0316   -0.6617 H         1 <0>         0.0802
     39 H10        -3.8523    0.5414    0.1160 H         1 <0>         0.0808
     40 H11        -4.0109    0.3769   -1.6492 H         1 <0>         0.1074
     41 H12        -2.2871   -1.7292    0.4963 H         1 <0>         0.1397
     42 H13        -0.6973   -1.8494   -0.2952 H         1 <0>         0.1376
     43 H14         0.4147   -1.3306    1.8596 H         1 <0>         0.0893
     44 H15        -1.1751   -1.2105    2.6511 H         1 <0>         0.0890
     45 H16        -1.0005   -3.7277    1.3824 H         1 <0>         0.4099
     46 H17        -3.1529   -5.3000    3.8032 H         1 <0>         0.0840
     47 H18        -2.7087   -5.9289    5.4080 H         1 <0>         0.0782
     48 H19        -2.2103   -4.2898    4.9254 H         1 <0>         0.0840
     49 H20         2.2744   -8.5020    3.2604 H         1 <0>         0.1589
     50 H21         3.1765  -10.8977    3.2512 H         1 <0>         0.1436
     51 H22         1.6578  -14.8215    2.5394 H         1 <0>         0.1485
     52 H23        -0.6084  -13.9196    2.2712 H         1 <0>         0.1415
     53 H24        -2.0541  -11.4980    2.3189 H         1 <0>         0.4217
     54 H25         2.9686   -5.4822    3.0545 H         1 <0>         0.0785
     55 H26         2.5107   -6.5337    1.6932 H         1 <0>         0.0726
     56 H27         2.0522   -4.8138    1.6827 H         1 <0>         0.0634
     57 H28        -1.7009    0.5410    1.0799 H         1 <0>         0.4247
@<TRIPOS>BOND
     1    1    2 1
     2    1   31 1
     3    1   32 1
     4    1   33 1
     5    2    3 1
     6    2   34 1
     7    2   35 1
     8    3    4 1
     9    3    6 1
    10    3   57 1
    11    4    5 1
    12    4   36 1
    13    4   37 1
    14    5   38 1
    15    5   39 1
    16    5   40 1
    17    6    7 1
    18    6   41 1
    19    6   42 1
    20    7    8 1
    21    7   43 1
    22    7   44 1
    23    8    9 am
    24    8   45 1
    25    9   10 2
    26    9   11 1
    27   11   16 2
    28   11   12 1
    29   12   13 2
    30   12   30 1
    31   13   14 1
    32   13   18 1
    33   14   15 1
    34   14   16 1
    35   16   17 1
    36   17   46 1
    37   17   47 1
    38   17   48 1
    39   18   19 2
    40   18   49 1
    41   19   27 1
    42   19   20 1
    43   20   25 ar
    44   20   21 ar
    45   21   22 ar
    46   21   50 1
    47   22   23 ar
    48   22   29 1
    49   23   24 ar
    50   23   51 1
    51   24   25 ar
    52   24   52 1
    53   25   26 1
    54   26   27 am
    55   26   53 1
    56   27   28 2
    57   30   54 1
    58   30   55 1
    59   30   56 1
@<TRIPOS>MOLECULE
ZINC00602803
   57    59     0     0     0
SMALL
USER_CHARGES

@<TRIPOS>ATOM
      1 C1         -1.3402   -4.8618    1.2145 C.3       1 <0>        -0.1534
      2 C2         -0.8181   -3.6495    0.4408 C.3       1 <0>         0.0511
      3 O1         -0.7742   -2.5142    1.3074 O.3       1 <0>        -0.3148
      4 C3         -0.3304   -1.3470    0.7727 C.ar      1 <0>         0.1525
      5 C4          0.0498   -1.3049   -0.5488 C.ar      1 <0>        -0.1831
      6 C5          0.5092   -0.1023   -1.1071 C.ar      1 <0>         0.1876
      7 C6          0.5748    1.0570   -0.2965 C.ar      1 <0>        -0.1304
      8 C7          0.1883    0.9932    1.0499 C.ar      1 <0>        -0.0592
      9 C8         -0.2650   -0.1967    1.5740 C.ar      1 <0>         0.1185
     10 N1         -0.6575   -0.2608    2.9161 N.am      1 <0>        -0.6449
     11 C9         -0.1566    0.6173    3.8075 C.2       1 <0>         0.5328
     12 O2          0.7152    1.3957    3.4703 O.2       1 <0>        -0.5071
     13 C10        -0.6641    0.6344    5.1877 C.2       1 <0>        -0.1271
     14 C11        -0.1697    1.5011    6.0673 C.2       1 <0>        -0.1492
     15 C12        -0.6897    1.5186    7.4817 C.3       1 <0>         0.0302
     16 C13         1.3312    2.5206    8.3617 C.3       1 <0>        -0.0486
     17 C14        -0.0528    1.1357    9.7861 C.3       1 <0>        -0.0433
     18 C15         1.0386    2.2666   -0.8642 C.ar      1 <0>         0.2844
     19 C16         1.4144    2.2536   -2.2161 C.ar      1 <0>        -0.1029
     20 C17         1.3165    1.0573   -2.9447 C.ar      1 <0>         0.2010
     21 N2          0.8834   -0.0478   -2.3940 N.ar      1 <0>        -0.4743
     22 C18         1.8922    3.4476   -2.8459 C.1       1 <0>         0.2469
     23 N3          2.2712    4.3948   -3.3456 N.1       1 <0>        -0.3851
     24 N4          1.1194    3.4219   -0.1130 N.pl3     1 <0>        -0.6979
     25 C19         2.3677    3.9814    0.1773 C.ar      1 <0>         0.1846
     26 C20         3.4715    3.1592    0.3659 C.ar      1 <0>        -0.1231
     27 C21         4.7048    3.7137    0.6463 C.ar      1 <0>        -0.1069
     28 C22         4.8398    5.0877    0.7520 C.ar      1 <0>         0.0844
     29 C23         3.7394    5.9099    0.5700 C.ar      1 <0>        -0.0407
     30 C24         2.5044    5.3592    0.2831 C.ar      1 <0>        -0.1222
     31 Cl1         3.9119    7.6322    0.7020 Cl        1 <0>        -0.0373
     32 F1          6.0462    5.6274    1.0324 F         1 <0>        -0.1244
     33 H1         -2.3423   -4.6506    1.5877 H         1 <0>         0.0676
     34 H2         -1.3737   -5.7279    0.5535 H         1 <0>         0.0859
     35 H3         -0.6765   -5.0706    2.0536 H         1 <0>         0.0665
     36 H4         -1.4818   -3.4407   -0.3983 H         1 <0>         0.0727
     37 H5          0.1840   -3.8607    0.0676 H         1 <0>         0.0719
     38 H6         -0.0049   -2.1965   -1.1558 H         1 <0>         0.1557
     39 H7          0.2375    1.8756    1.6707 H         1 <0>         0.1646
     40 H8         -1.2900   -0.9373    3.2047 H         1 <0>         0.4221
     41 H9         -1.4381   -0.0567    5.4870 H         1 <0>         0.1454
     42 H10         0.6043    2.1922    5.7680 H         1 <0>         0.1533
     43 H11        -1.1915    2.4672    7.6726 H         1 <0>         0.1468
     44 H12        -1.3959    0.6999    7.6193 H         1 <0>         0.1366
     45 H13         0.7789    3.4221    8.6269 H         1 <0>         0.1257
     46 H14         2.1523    2.3777    9.0642 H         1 <0>         0.1250
     47 H15         1.7302    2.6227    7.3524 H         1 <0>         0.1232
     48 H16        -0.6601    0.2309    9.8124 H         1 <0>         0.1226
     49 H17         0.7976    1.0222   10.4584 H         1 <0>         0.1252
     50 H18        -0.6553    1.9870   10.1029 H         1 <0>         0.1250
     51 H19         1.6056    1.0492   -3.9853 H         1 <0>         0.1765
     52 H20         0.3102    3.8456    0.2136 H         1 <0>         0.4201
     53 H21         3.3660    2.0871    0.2888 H         1 <0>         0.1375
     54 H22         5.5639    3.0747    0.7881 H         1 <0>         0.1500
     55 H23         1.6466    6.0000    0.1416 H         1 <0>         0.1457
     56 N5          0.4465    1.3376    8.4096 N.4       1 <0>        -0.3970
     57 H24         0.9816    0.5092    8.1241 H         1 <0>         0.4334
@<TRIPOS>BOND
     1    1    2 1
     2    1   33 1
     3    1   34 1
     4    1   35 1
     5    2    3 1
     6    2   36 1
     7    2   37 1
     8    3    4 1
     9    4    9 ar
    10    4    5 ar
    11    5    6 ar
    12    5   38 1
    13    6   21 ar
    14    6    7 ar
    15    7    8 ar
    16    7   18 ar
    17    8    9 ar
    18    8   39 1
    19    9   10 1
    20   10   11 am
    21   10   40 1
    22   11   12 2
    23   11   13 1
    24   13   14 2
    25   13   41 1
    26   14   15 1
    27   14   42 1
    28   15   43 1
    29   15   44 1
    30   15   56 1
    31   16   45 1
    32   16   46 1
    33   16   47 1
    34   16   56 1
    35   17   48 1
    36   17   49 1
    37   17   50 1
    38   17   56 1
    39   18   19 ar
    40   18   24 1
    41   19   20 ar
    42   19   22 1
    43   20   21 ar
    44   20   51 1
    45   22   23 3
    46   24   25 1
    47   24   52 1
    48   25   30 ar
    49   25   26 ar
    50   26   27 ar
    51   26   53 1
    52   27   28 ar
    53   27   54 1
    54   28   29 ar
    55   28   32 1
    56   29   30 ar
    57   29   31 1
    58   30   55 1
    59   56   57 1
@<TRIPOS>MOLECULE
ZINC04335977
   25    28     0     0     0
SMALL
USER_CHARGES

@<TRIPOS>ATOM
      1 C1         -0.0166    1.3742    0.0096 C.ar      1 <0>        -0.0830
      2 C2          1.1706    2.0916    0.0021 C.ar      1 <0>        -0.1243
      3 C3          2.3823    1.4397   -0.0153 C.ar      1 <0>        -0.0569
      4 C4          2.4281    0.0410   -0.0258 C.ar      1 <0>        -0.1454
      5 C5          1.2170   -0.6851   -0.0143 C.ar      1 <0>         0.0500
      6 C6          0.0021   -0.0041    0.0020 C.ar      1 <0>        -0.1088
      7 C7          1.2506   -2.1591   -0.0199 C.2       1 <0>         0.0730
      8 C8          2.5639   -2.7742   -0.0443 C.ar      1 <0>        -0.1429
      9 C9          3.7793   -2.1038   -0.0604 C.ar      1 <0>        -0.1081
     10 C10         4.9294   -2.8876   -0.0855 C.ar      1 <0>        -0.0580
     11 C11         4.7889   -4.2709   -0.0911 C.ar      1 <0>        -0.1027
     12 C12         3.5603   -4.9095   -0.0724 C.ar      1 <0>        -0.0703
     13 C13         2.3922   -4.1530   -0.0476 C.ar      1 <0>         0.0737
     14 N1          1.0342   -4.3134   -0.0236 N.pl3     1 <0>        -0.4208
     15 H1          0.5868   -5.1740   -0.0178 H         1 <0>         0.4498
     16 N2          0.4180   -3.1700   -0.0087 N.2       1 <0>        -0.2006
     17 C14         3.7440   -0.6349   -0.0491 C.2       1 <0>         0.4424
     18 O1          4.7754    0.0120   -0.0592 O.2       1 <0>        -0.4413
     19 H2         -0.9607    1.8984    0.0260 H         1 <0>         0.1352
     20 H3          1.1437    3.1712    0.0097 H         1 <0>         0.1350
     21 H4          3.3001    2.0089   -0.0212 H         1 <0>         0.1415
     22 H5         -0.9260   -0.5563    0.0084 H         1 <0>         0.1375
     23 H6          5.9084   -2.4317   -0.1006 H         1 <0>         0.1458
     24 H7          5.6823   -4.8774   -0.1113 H         1 <0>         0.1405
     25 H8          3.5088   -5.9882   -0.0775 H         1 <0>         0.1387
@<TRIPOS>BOND
     1    1    6 ar
     2    1    2 ar
     3    1   19 1
     4    2    3 ar
     5    2   20 1
     6    3    4 ar
     7    3   21 1
     8    4   17 1
     9    4    5 ar
    10    5    6 ar
    11    5    7 1
    12    6   22 1
    13    7   16 2
    14    7    8 1
    15    8   13 ar
    16    8    9 ar
    17    9   10 ar
    18    9   17 1
    19   10   11 ar
    20   10   23 1
    21   11   12 ar
    22   11   24 1
    23   12   13 ar
    24   12   25 1
    25   13   14 1
    26   14   15 1
    27   14   16 1
    28   17   18 2
@<TRIPOS>MOLECULE
ZINC04335977
   25    28     0     0     0
SMALL
USER_CHARGES

@<TRIPOS>ATOM
      1 C1         -0.0168    1.3856    0.0097 C.ar      1 <0>        -0.1427
      2 C2          1.1170    2.1945    0.0032 C.ar      1 <0>        -0.0217
      3 C3          2.3711    1.6150   -0.0018 C.ar      1 <0>        -0.1545
      4 C4          2.3811    0.2055    0.0219 C.ar      1 <0>        -0.1284
      5 C5          1.2547   -0.6338   -0.0010 C.ar      1 <0>        -0.0019
      6 C6          0.0021   -0.0041    0.0020 C.ar      1 <0>        -0.0002
      7 N1          1.7529   -1.8663   -0.0388 N.2       1 <0>        -0.2064
      8 N2          3.0585   -1.8827   -0.0212 N.2       1 <0>        -0.1750
      9 C7          3.5637   -0.6566    0.0553 C.2       1 <0>        -0.0804
     10 C8          4.8090   -0.0488    0.2082 C.2       1 <0>         0.1832
     11 C9          5.9893   -0.7697    0.0663 C.2       1 <0>        -0.1794
     12 C10         7.1922   -0.1305    0.0279 C.2       1 <0>         0.0175
     13 C11         7.2645    1.2786    0.0514 C.2       1 <0>        -0.1580
     14 C12         6.1810    2.0262    0.2746 C.2       1 <0>        -0.0648
     15 C13         4.8472    1.4205    0.5359 C.3       1 <0>        -0.1143
     16 H1          4.7113    1.4792    1.6158 H         1 <0>         0.1756
     17 C14         3.7065    2.2205   -0.0350 C.2       1 <0>         0.4372
     18 O1          3.8852    3.3247   -0.5044 O.2       1 <0>        -0.4218
     19 H2         -0.9802    1.8735    0.0262 H         1 <0>         0.1380
     20 H3          1.0162    3.2698    0.0017 H         1 <0>         0.1414
     21 H4         -0.9134   -0.5771   -0.0011 H         1 <0>         0.1493
     22 H5          5.9525   -1.8461   -0.0139 H         1 <0>         0.1574
     23 H6          8.1023   -0.7101   -0.0209 H         1 <0>         0.1503
     24 H7          8.2158    1.7622   -0.1141 H         1 <0>         0.1476
     25 H8          6.2755    3.1020    0.2656 H         1 <0>         0.1520
@<TRIPOS>BOND
     1    1    6 ar
     2    1    2 ar
     3    1   19 1
     4    2    3 ar
     5    2   20 1
     6    3   17 1
     7    3    4 ar
     8    4    9 1
     9    4    5 ar
    10    5    6 ar
    11    5    7 1
    12    6   21 1
    13    7    8 2
    14    8    9 1
    15    9   10 2
    16   10   15 1
    17   10   11 1
    18   11   12 2
    19   11   22 1
    20   12   13 1
    21   12   23 1
    22   13   14 2
    23   13   24 1
    24   14   15 1
    25   14   25 1
    26   15   16 1
    27   15   17 1
    28   17   18 2
@<TRIPOS>MOLECULE
ZINC04335977
   25    28     0     0     0
SMALL
USER_CHARGES

@<TRIPOS>ATOM
      1 C1         -0.0164    1.3596    0.0095 C.ar      1 <0>        -0.0576
      2 C2          1.1713    2.0855    0.0021 C.ar      1 <0>        -0.1347
      3 C3          2.3768    1.4549   -0.0120 C.ar      1 <0>        -0.0679
      4 C4          2.4386    0.0472   -0.0213 C.ar      1 <0>        -0.1308
      5 C5          1.2221   -0.6871   -0.0140 C.ar      1 <0>         0.1082
      6 C6          0.0021   -0.0041    0.0020 C.ar      1 <0>        -0.1288
      7 C7          1.2623   -2.1488   -0.0253 C.ar      1 <0>        -0.0283
      8 C8          2.5333   -2.7124   -0.0445 C.ar      1 <0>        -0.1739
      9 C9          3.7767   -1.9860   -0.0536 C.ar      1 <0>        -0.1204
     10 C10         3.7083   -0.5824   -0.0381 C.ar      1 <0>         0.2929
     11 O1          4.8379    0.1571   -0.0391 O.3       1 <0>        -0.4795
     12 C11         4.9469   -2.7593   -0.0757 C.ar      1 <0>         0.0289
     13 C12         4.8276   -4.1389   -0.0827 C.ar      1 <0>        -0.1839
     14 C13         3.6180   -4.8159   -0.0703 C.ar      1 <0>         0.1011
     15 C14         2.4158   -4.1083   -0.0517 C.ar      1 <0>        -0.0377
     16 N1          1.0921   -4.3196   -0.0378 N.2       1 <0>        -0.2189
     17 N2          0.4367   -3.1958   -0.0225 N.2       1 <0>        -0.1913
     18 H1         -0.9619    1.8814    0.0259 H         1 <0>         0.1383
     19 H2          1.1354    3.1649    0.0072 H         1 <0>         0.1360
     20 H3          3.2881    2.0345   -0.0163 H         1 <0>         0.1414
     21 H4         -0.9259   -0.5566    0.0089 H         1 <0>         0.1451
     22 H5          5.9191   -2.2892   -0.0875 H         1 <0>         0.1508
     23 H6          5.7348   -4.7247   -0.0991 H         1 <0>         0.1453
     24 H7          3.6062   -5.8959   -0.0754 H         1 <0>         0.1485
     25 H8          5.1739    0.3631    0.8439 H         1 <0>         0.4170
@<TRIPOS>BOND
     1    1    6 ar
     2    1    2 ar
     3    1   18 1
     4    2    3 ar
     5    2   19 1
     6    3    4 ar
     7    3   20 1
     8    4   10 ar
     9    4    5 ar
    10    5    6 ar
    11    5    7 ar
    12    6   21 1
    13    7   17 1
    14    7    8 ar
    15    8   15 ar
    16    8    9 ar
    17    9   10 ar
    18    9   12 ar
    19   10   11 1
    20   11   25 1
    21   12   13 ar
    22   12   22 1
    23   13   14 ar
    24   13   23 1
    25   14   15 ar
    26   14   24 1
    27   15   16 1
    28   16   17 2
@<TRIPOS>MOLECULE
ZINC04335977
   25    28     0     0     0
SMALL
USER_CHARGES

@<TRIPOS>ATOM
      1 C1         -0.0166    1.3716    0.0096 C.ar      1 <0>        -0.0800
      2 C2          1.1708    2.0918    0.0021 C.ar      1 <0>        -0.1245
      3 C3          2.3828    1.4428   -0.0127 C.ar      1 <0>        -0.0544
      4 C4          2.4320    0.0434   -0.0205 C.ar      1 <0>        -0.1405
      5 C5          1.2210   -0.6886   -0.0124 C.ar      1 <0>         0.0405
      6 C6          0.0021   -0.0041    0.0020 C.ar      1 <0>        -0.1261
      7 C7          1.2457   -2.1536   -0.0208 C.2       1 <0>         0.0504
      8 C8          2.4853   -2.7488   -0.0355 C.ar      1 <0>        -0.1585
      9 C9          3.7667   -2.0921   -0.0444 C.ar      1 <0>        -0.1299
     10 C10         4.8847   -2.9128   -0.0585 C.ar      1 <0>        -0.0238
     11 C11         4.7118   -4.2966   -0.0633 C.ar      1 <0>        -0.1212
     12 C12         3.5050   -4.9362   -0.0556 C.ar      1 <0>        -0.0231
     13 C13         2.3094   -4.1914   -0.0406 C.ar      1 <0>         0.0660
     14 N1          0.9988   -4.3425   -0.0297 N.2       1 <0>        -0.2551
     15 H1         -0.5846   -3.1031   -0.0098 H         1 <0>         0.4487
     16 N2          0.3807   -3.1981   -0.0186 N.pl3     1 <0>        -0.3308
     17 C14         3.7519   -0.6254   -0.0360 C.2       1 <0>         0.4405
     18 O1          4.7871    0.0179   -0.0431 O.2       1 <0>        -0.4447
     19 H2         -0.9611    1.8950    0.0259 H         1 <0>         0.1352
     20 H3          1.1418    3.1714    0.0076 H         1 <0>         0.1359
     21 H4          3.2994    2.0140   -0.0187 H         1 <0>         0.1430
     22 H5         -0.9262   -0.5560    0.0082 H         1 <0>         0.1296
     23 H6          5.8766   -2.4856   -0.0660 H         1 <0>         0.1446
     24 H7          5.6007   -4.9099   -0.0744 H         1 <0>         0.1377
     25 H8          3.4673   -6.0156   -0.0604 H         1 <0>         0.1406
@<TRIPOS>BOND
     1    1    6 ar
     2    1    2 ar
     3    1   19 1
     4    2    3 ar
     5    2   20 1
     6    3    4 ar
     7    3   21 1
     8    4   17 1
     9    4    5 ar
    10    5    6 ar
    11    5    7 1
    12    6   22 1
    13    7    8 2
    14    7   16 1
    15    8    9 ar
    16    8   13 ar
    17    9   10 ar
    18    9   17 1
    19   10   11 ar
    20   10   23 1
    21   11   12 ar
    22   11   24 1
    23   12   13 ar
    24   12   25 1
    25   13   14 2
    26   14   16 1
    27   15   16 1
    28   17   18 2
@<TRIPOS>MOLECULE
ZINC03812168
   64    69     0     0     0
SMALL
USER_CHARGES
dimethylaminomethylBLAHdione
@<TRIPOS>ATOM
      1 C1         -3.6591   -3.4932   -0.5238 C.3       1 <0>        -0.0551
      2 C2         -2.4926   -2.9550   -2.5762 C.3       1 <0>        -0.0445
      3 C3         -2.6578   -1.3072   -0.8098 C.3       1 <0>        -0.0358
      4 C4         -2.4673   -1.1012    0.6860 C.3       1 <0>         0.0654
      5 H1         -3.1645   -1.7751    1.2185 H         1 <0>         0.0947
      6 C5         -2.7230    0.3270    1.1457 C.3       1 <0>        -0.1345
      7 C6         -2.5225    1.3892    0.0793 C.3       1 <0>         0.1021
      8 N1         -1.1339    1.8402    0.0096 N.pl3     1 <0>        -0.4782
      9 C7         -0.0126    1.0747    0.0080 C.2       1 <0>         0.0759
     10 C8          1.1009    1.8532    0.0015 C.2       1 <0>        -0.1124
     11 C9          0.6150    3.2557   -0.0375 C.ar      1 <0>        -0.0829
     12 C10        -0.7846    3.1777   -0.0610 C.ar      1 <0>         0.0902
     13 C11        -1.5354    4.3459   -0.1576 C.ar      1 <0>        -0.1369
     14 C12        -0.9089    5.5725   -0.1941 C.ar      1 <0>        -0.0870
     15 C13         0.4756    5.6497   -0.1263 C.ar      1 <0>        -0.1387
     16 C14         1.2312    4.5008   -0.0317 C.ar      1 <0>        -0.0542
     17 C15         2.5293    1.4989    0.0288 C.2       1 <0>        -0.0575
     18 C16         3.2121    0.4058    0.5546 C.2       1 <0>        -0.0318
     19 C17         2.7061   -0.7744    1.2787 C.2       1 <0>        -0.1258
     20 C18         1.4206   -1.0272    1.6582 C.2       1 <0>         0.1002
     21 N2          1.3169   -2.2819    2.1682 N.pl3     1 <0>        -0.4767
     22 C19         2.5720   -2.8515    2.2654 C.ar      1 <0>         0.0850
     23 C20         3.5031   -1.9214    1.7684 C.ar      1 <0>        -0.0774
     24 C21         4.8560   -2.2219    1.8708 C.ar      1 <0>        -0.0704
     25 C22         5.2705   -3.4529    2.3343 C.ar      1 <0>        -0.1401
     26 C23         4.3436   -4.3996    2.7389 C.ar      1 <0>        -0.0882
     27 C24         3.0009   -4.0952    2.7142 C.ar      1 <0>        -0.1389
     28 C25         0.0751   -2.9597    2.5494 C.3       1 <0>         0.1083
     29 C26        -0.9464   -2.8428    1.4151 C.3       1 <0>         0.0261
     30 O1         -1.1329   -1.4683    1.0718 O.3       1 <0>        -0.3787
     31 C27         4.6407    0.6399    0.2297 C.2       1 <0>         0.5576
     32 O2          5.5801   -0.0982    0.4313 O.2       1 <0>        -0.4501
     33 N3          4.7726    1.8285   -0.3761 N.am      1 <0>        -0.6884
     34 C28         3.5684    2.3701   -0.5773 C.2       1 <0>         0.5496
     35 O3          3.3676    3.4021   -1.1909 O.2       1 <0>        -0.4507
     36 H2         -4.6064   -3.1194   -0.9125 H         1 <0>         0.1320
     37 H3         -3.5558   -4.5494   -0.7723 H         1 <0>         0.1292
     38 H4         -3.6371   -3.3709    0.5591 H         1 <0>         0.1176
     39 H5         -1.6226   -2.4415   -2.9853 H         1 <0>         0.1242
     40 H6         -2.4140   -4.0227   -2.7812 H         1 <0>         0.1266
     41 H7         -3.3976   -2.5618   -3.0392 H         1 <0>         0.1281
     42 H8         -3.6420   -0.9427   -1.1043 H         1 <0>         0.1512
     43 H9         -1.8892   -0.7576   -1.3530 H         1 <0>         0.1401
     44 H10        -3.7581    0.3948    1.5248 H         1 <0>         0.1133
     45 H11        -2.0693    0.5478    1.9998 H         1 <0>         0.1111
     46 H12        -2.8851    1.1097   -0.8943 H         1 <0>         0.0847
     47 H13        -3.1227    2.2722    0.3811 H         1 <0>         0.1001
     48 H14         0.0021   -0.0041    0.0020 H         1 <0>         0.1790
     49 H15        -2.6150    4.2937   -0.2077 H         1 <0>         0.1188
     50 H16        -1.4958    6.4773   -0.2780 H         1 <0>         0.1308
     51 H17         0.9608    6.6157   -0.1385 H         1 <0>         0.1284
     52 H18         2.3072    4.5814    0.0562 H         1 <0>         0.1320
     53 H19         0.6104   -0.3170    1.5917 H         1 <0>         0.1871
     54 H20         5.6126   -1.4944    1.6337 H         1 <0>         0.1514
     55 H21         6.3257   -3.6782    2.3787 H         1 <0>         0.1280
     56 H22         4.6724   -5.3687    3.0799 H         1 <0>         0.1300
     57 H23         2.2783   -4.8297    3.0422 H         1 <0>         0.1175
     58 H24         0.2774   -4.0129    2.7458 H         1 <0>         0.1169
     59 H25        -0.3264   -2.4933    3.4522 H         1 <0>         0.0971
     60 H26        -0.5876   -3.3893    0.5423 H         1 <0>         0.0664
     61 H27        -1.8985   -3.2659    1.7424 H         1 <0>         0.0864
     62 H28         5.6204    2.2247   -0.6318 H         1 <0>         0.4332
     63 N4         -2.5268   -2.7479   -1.1131 N.4       1 <0>        -0.4048
     64 H29        -1.6507   -3.0961   -0.7064 H         1 <0>         0.4232
@<TRIPOS>BOND
     1    1   36 1
     2    1   37 1
     3    1   38 1
     4    1   63 1
     5    2   39 1
     6    2   40 1
     7    2   41 1
     8    2   63 1
     9    3    4 1
    10    3   42 1
    11    3   43 1
    12    3   63 1
    13    4    5 1
    14    4   30 1
    15    4    6 1
    16    6    7 1
    17    6   44 1
    18    6   45 1
    19    7    8 1
    20    7   46 1
    21    7   47 1
    22    8   12 1
    23    8    9 1
    24    9   10 2
    25    9   48 1
    26   10   11 1
    27   10   17 1
    28   11   16 ar
    29   11   12 ar
    30   12   13 ar
    31   13   14 ar
    32   13   49 1
    33   14   15 ar
    34   14   50 1
    35   15   16 ar
    36   15   51 1
    37   16   52 1
    38   17   34 1
    39   17   18 2
    40   18   19 1
    41   18   31 1
    42   19   23 1
    43   19   20 2
    44   20   21 1
    45   20   53 1
    46   21   22 1
    47   21   28 1
    48   22   27 ar
    49   22   23 ar
    50   23   24 ar
    51   24   25 ar
    52   24   54 1
    53   25   26 ar
    54   25   55 1
    55   26   27 ar
    56   26   56 1
    57   27   57 1
    58   28   29 1
    59   28   58 1
    60   28   59 1
    61   29   30 1
    62   29   60 1
    63   29   61 1
    64   31   32 2
    65   31   33 am
    66   33   34 am
    67   33   62 1
    68   34   35 2
    69   63   64 1
