@<TRIPOS>MOLECULE
ZINC05832614
   47    50     0     0     0
SMALL
USER_CHARGES
13-methyl-17-oxo-3-sulfamoyloxy-7,8,9,11,12,14,15,16-octahydro-6H-cyclopenta[a]phenanthrene
@<TRIPOS>ATOM
      1 C1         -2.3922    9.0554   -4.4937 C.3       1 <0>        -0.1445
      2 C2         -1.3627    9.7780   -3.6226 C.3       1 <0>        -0.1259
      3 C3          0.0087    9.1883   -3.8733 C.3       1 <0>        -0.0974
      4 C4         -0.0803    7.6712   -3.6191 C.3       1 <0>        -0.1159
      5 C5         -0.5980    7.3834   -2.2145 C.3       1 <0>        -0.0495
      6 H1          0.1344    7.8013   -1.5238 H         1 <0>         0.0847
      7 C6         -0.7062    5.9125   -1.9369 C.ar      1 <0>        -0.0487
      8 C7          0.2315    5.0642   -2.5106 C.ar      1 <0>        -0.1006
      9 C8          0.1935    3.7077   -2.2681 C.ar      1 <0>        -0.0948
     10 C9         -0.7926    3.1853   -1.4436 C.ar      1 <0>         0.0629
     11 C10        -1.7341    4.0292   -0.8806 C.ar      1 <0>        -0.1264
     12 C11        -1.6939    5.3957   -1.1242 C.ar      1 <0>        -0.0580
     13 C12        -2.7554    6.2506   -0.4835 C.3       1 <0>        -0.0822
     14 C13        -2.3745    7.7301   -0.5244 C.3       1 <0>        -0.1148
     15 C14        -1.9421    8.0736   -1.9498 C.3       1 <0>        -0.0752
     16 H2         -2.6934    7.7264   -2.6592 H         1 <0>         0.0902
     17 C15        -1.7163    9.5621   -2.1246 C.3       1 <0>        -0.0782
     18 H3         -0.9096    9.9091   -1.4790 H         1 <0>         0.0866
     19 C16        -2.9608   10.4480   -1.9862 C.3       1 <0>        -0.1131
     20 C17        -2.5748   11.7037   -2.8151 C.3       1 <0>        -0.1760
     21 C18        -1.5065   11.2586   -3.8092 C.2       1 <0>         0.3803
     22 O1         -0.9013   11.9560   -4.5874 O.2       1 <0>        -0.4363
     23 O2         -0.8372    1.8501   -1.1944 O.3       1 <0>        -0.6790
     24 S1         -0.0298    1.4201    0.0220 S.o2      1 <0>         2.7726
     25 O3         -0.0121   -0.0008    0.0160 O.2       1 <0>        -0.9510
     26 O4          1.1601    2.1968    0.0149 O.2       1 <0>        -0.9725
     27 N1         -0.8853    1.8771    1.3642 N.pl3     1 <0>        -1.2498
     28 H4         -3.3940    9.3920   -4.2272 H         1 <0>         0.0644
     29 H5         -2.2010    9.2789   -5.5433 H         1 <0>         0.0602
     30 H6         -2.3149    7.9803   -4.3313 H         1 <0>         0.0805
     31 H7          0.3074    9.3731   -4.9051 H         1 <0>         0.0745
     32 H8          0.7333    9.6359   -3.1931 H         1 <0>         0.0687
     33 H9         -0.7677    7.2261   -4.3384 H         1 <0>         0.0721
     34 H10         0.9074    7.2274   -3.7441 H         1 <0>         0.0729
     35 H11         0.9985    5.4712   -3.1528 H         1 <0>         0.1407
     36 H12         0.9276    3.0551   -2.7173 H         1 <0>         0.1399
     37 H13        -2.5043    3.6218   -0.2424 H         1 <0>         0.1392
     38 H14        -3.6965    6.1094   -1.0149 H         1 <0>         0.0827
     39 H15        -2.8830    5.9433    0.5545 H         1 <0>         0.0807
     40 H16        -3.2341    8.3389   -0.2442 H         1 <0>         0.0768
     41 H17        -1.5508    7.9168    0.1647 H         1 <0>         0.0695
     42 H18        -3.8352    9.9565   -2.4129 H         1 <0>         0.0796
     43 H19        -3.1343   10.7114   -0.9428 H         1 <0>         0.0790
     44 H20        -2.2253   12.4128   -2.2027 H         1 <0>         0.0888
     45 H21        -3.4466   12.0823   -3.3486 H         1 <0>         0.0978
     46 H22        -0.7405    2.7522    1.7569 H         1 <0>         0.4212
     47 H23        -1.5312    1.2698    1.7576 H         1 <0>         0.4232
@<TRIPOS>BOND
     1    1    2 1
     2    1   28 1
     3    1   29 1
     4    1   30 1
     5    2   17 1
     6    2   21 1
     7    2    3 1
     8    3    4 1
     9    3   31 1
    10    3   32 1
    11    4    5 1
    12    4   33 1
    13    4   34 1
    14    5    6 1
    15    5   15 1
    16    5    7 1
    17    7   12 ar
    18    7    8 ar
    19    8    9 ar
    20    8   35 1
    21    9   10 ar
    22    9   36 1
    23   10   11 ar
    24   10   23 1
    25   11   12 ar
    26   11   37 1
    27   12   13 1
    28   13   14 1
    29   13   38 1
    30   13   39 1
    31   14   15 1
    32   14   40 1
    33   14   41 1
    34   15   16 1
    35   15   17 1
    36   17   18 1
    37   17   19 1
    38   19   20 1
    39   19   42 1
    40   19   43 1
    41   20   21 1
    42   20   44 1
    43   20   45 1
    44   21   22 2
    45   23   24 1
    46   24   25 2
    47   24   26 2
    48   24   27 1
    49   27   46 1
    50   27   47 1
@<TRIPOS>MOLECULE
ZINC04229755
   38    39     0     0     0
SMALL
USER_CHARGES

@<TRIPOS>ATOM
      1 C1         -0.0169    1.3931    0.0097 C.ar      1 <0>        -0.0641
      2 C2          1.1683    2.0962    0.0022 C.ar      1 <0>        -0.1496
      3 C3          2.3804    1.4182   -0.0131 C.ar      1 <0>         0.1316
      4 C4          2.4041    0.0295   -0.0207 C.ar      1 <0>        -0.1519
      5 C5          1.2239   -0.6819   -0.0137 C.ar      1 <0>        -0.0582
      6 C6          0.0021   -0.0041    0.0020 C.ar      1 <0>        -0.0783
      7 C7         -1.2632   -0.7607    0.0105 C.2       1 <0>         0.1535
      8 N1         -1.2434   -2.0584    0.0034 N.2       1 <0>        -0.2871
      9 N2         -2.4458   -2.7774    0.0114 N.pl3     1 <0>        -0.5401
     10 C8         -2.4251   -4.1250    0.0040 C.2       1 <0>         0.5908
     11 S1         -3.8944   -5.0037    0.0139 S.2       1 <0>        -0.6159
     12 N3         -1.2478   -4.7809   -0.0112 N.pl3     1 <0>        -0.6590
     13 C9         -1.2254   -6.2457   -0.0193 C.3       1 <0>         0.1382
     14 C10        -1.3576   -6.7499   -1.4578 C.3       1 <0>        -0.1279
     15 C11        -1.3342   -8.2797   -1.4662 C.3       1 <0>        -0.1147
     16 C12        -0.0132   -8.7728   -0.8723 C.3       1 <0>        -0.1239
     17 C13         0.1190   -8.2686    0.5662 C.3       1 <0>        -0.1142
     18 C14         0.0956   -6.7388    0.5746 C.3       1 <0>        -0.1272
     19 O1          3.5464    2.1155   -0.0209 O.3       1 <0>        -0.4984
     20 H1         -0.9589    1.9211    0.0260 H         1 <0>         0.1369
     21 H2          1.1547    3.1761    0.0077 H         1 <0>         0.1375
     22 H3          3.3489   -0.4935   -0.0326 H         1 <0>         0.1353
     23 H4          1.2432   -1.7617   -0.0204 H         1 <0>         0.1352
     24 H5         -2.2067   -0.2352    0.0227 H         1 <0>         0.1306
     25 H6         -3.2931   -2.3054    0.0224 H         1 <0>         0.4175
     26 H7         -0.4153   -4.2831   -0.0168 H         1 <0>         0.4079
     27 H8         -2.0557   -6.6251    0.5764 H         1 <0>         0.1175
     28 H9         -2.2987   -6.3985   -1.8809 H         1 <0>         0.0803
     29 H10        -0.5273   -6.3705   -2.0535 H         1 <0>         0.0597
     30 H11        -2.1644   -8.6590   -0.8705 H         1 <0>         0.0698
     31 H12        -1.4283   -8.6388   -2.4910 H         1 <0>         0.0672
     32 H13         0.0035   -9.8626   -0.8783 H         1 <0>         0.0664
     33 H14         0.8171   -8.3934   -1.4680 H         1 <0>         0.0618
     34 H15        -0.7113   -8.6480    1.1619 H         1 <0>         0.0691
     35 H16         1.0601   -8.6199    0.9893 H         1 <0>         0.0694
     36 H17         0.9258   -6.3595   -0.0211 H         1 <0>         0.0676
     37 H18         0.1897   -6.3797    1.5994 H         1 <0>         0.0696
     38 H19         3.8925    2.3129    0.8602 H         1 <0>         0.3970
@<TRIPOS>BOND
     1    1    6 ar
     2    1    2 ar
     3    1   20 1
     4    2    3 ar
     5    2   21 1
     6    3    4 ar
     7    3   19 1
     8    4    5 ar
     9    4   22 1
    10    5    6 ar
    11    5   23 1
    12    6    7 1
    13    7    8 2
    14    7   24 1
    15    8    9 1
    16    9   10 1
    17    9   25 1
    18   10   11 2
    19   10   12 1
    20   12   13 1
    21   12   26 1
    22   13   18 1
    23   13   14 1
    24   13   27 1
    25   14   15 1
    26   14   28 1
    27   14   29 1
    28   15   16 1
    29   15   30 1
    30   15   31 1
    31   16   17 1
    32   16   32 1
    33   16   33 1
    34   17   18 1
    35   17   34 1
    36   17   35 1
    37   18   36 1
    38   18   37 1
    39   19   38 1
@<TRIPOS>MOLECULE
ZINC03289414
   39    40     0     0     0
SMALL
USER_CHARGES

@<TRIPOS>ATOM
      1 C1          2.4753    1.2389   -0.0548 C.ar      1 <0>        -0.1366
      2 C2          1.3488    2.0471   -0.0415 C.ar      1 <0>        -0.1133
      3 C3          0.0883    1.4904   -0.0014 C.ar      1 <0>        -0.0918
      4 C4         -0.0610    0.1019    0.0263 C.ar      1 <0>        -0.0951
      5 C5          1.0857   -0.7208    0.0127 C.ar      1 <0>        -0.0457
      6 C6          2.3520   -0.1343   -0.0281 C.ar      1 <0>        -0.0931
      7 C7          0.9478   -2.1852    0.0418 C.2       1 <0>         0.1650
      8 N1          2.0036   -2.9353    0.1451 N.2       1 <0>        -0.3339
      9 N2          1.8831   -4.3289    0.0675 N.pl3     1 <0>        -0.5315
     10 C8          2.9871   -5.1021    0.0731 C.2       1 <0>         0.6016
     11 S1          2.8486   -6.7936   -0.1518 S.2       1 <0>        -0.6575
     12 N3          4.2000   -4.5436    0.2558 N.pl3     1 <0>        -0.6675
     13 C9          5.4081   -5.3659    0.1527 C.3       1 <0>         0.1448
     14 C10         5.6800   -6.0437    1.4971 C.3       1 <0>        -0.1300
     15 C11         6.9417   -6.9025    1.3894 C.3       1 <0>        -0.1132
     16 C12         8.1314   -6.0162    1.0152 C.3       1 <0>        -0.1226
     17 C13         7.8595   -5.3384   -0.3293 C.3       1 <0>        -0.1127
     18 C14         6.5978   -4.4797   -0.2216 C.3       1 <0>        -0.1285
     19 C15        -1.4037   -0.4986    0.0697 C.2       1 <0>         0.5220
     20 O1         -2.3891    0.2150    0.1987 O.co2     1 <0>        -0.6690
     21 O2         -1.5347   -1.7115   -0.0234 O.co2     1 <0>        -0.6785
     22 H1          3.4567    1.6881   -0.0909 H         1 <0>         0.1186
     23 H2          1.4598    3.1212   -0.0624 H         1 <0>         0.1198
     24 H3         -0.7835    2.1277    0.0091 H         1 <0>         0.1338
     25 H4          3.2351   -0.7560   -0.0390 H         1 <0>         0.1233
     26 H5         -0.0312   -2.6367   -0.0226 H         1 <0>         0.1890
     27 H6          1.0052   -4.7374    0.0097 H         1 <0>         0.4146
     28 H7          4.2731   -3.5972    0.4556 H         1 <0>         0.4085
     29 H8          5.2656   -6.1262   -0.6153 H         1 <0>         0.1113
     30 H9          5.8225   -5.2834    2.2651 H         1 <0>         0.0577
     31 H10         4.8324   -6.6750    1.7637 H         1 <0>         0.0849
     32 H11         7.1354   -7.3853    2.3472 H         1 <0>         0.0640
     33 H12         6.7992   -7.6627    0.6214 H         1 <0>         0.0680
     34 H13         8.2739   -5.2559    1.7831 H         1 <0>         0.0609
     35 H14         9.0302   -6.6280    0.9384 H         1 <0>         0.0626
     36 H15         8.7071   -4.7071   -0.5959 H         1 <0>         0.0663
     37 H16         7.7170   -6.0987   -1.0972 H         1 <0>         0.0674
     38 H17         6.4041   -3.9968   -1.1794 H         1 <0>         0.0692
     39 H18         6.7403   -3.7194    0.5464 H         1 <0>         0.0670
@<TRIPOS>BOND
     1    1    6 ar
     2    1    2 ar
     3    1   22 1
     4    2    3 ar
     5    2   23 1
     6    3    4 ar
     7    3   24 1
     8    4    5 ar
     9    4   19 1
    10    5    6 ar
    11    5    7 1
    12    6   25 1
    13    7    8 2
    14    7   26 1
    15    8    9 1
    16    9   10 1
    17    9   27 1
    18   10   11 2
    19   10   12 1
    20   12   13 1
    21   12   28 1
    22   13   18 1
    23   13   14 1
    24   13   29 1
    25   14   15 1
    26   14   30 1
    27   14   31 1
    28   15   16 1
    29   15   32 1
    30   15   33 1
    31   16   17 1
    32   16   34 1
    33   16   35 1
    34   17   18 1
    35   17   36 1
    36   17   37 1
    37   18   38 1
    38   18   39 1
    39   19   20 2
    40   19   21 1
@<TRIPOS>MOLECULE
ZINC01549366
   36    38     0     0     0
SMALL
USER_CHARGES
oxo-sulfamoyloxy-BLAH
@<TRIPOS>ATOM
      1 C1          2.0878   -1.3376    2.0956 C.ar      1 <0>        -0.1108
      2 C2          2.7188   -1.2078    3.2993 C.ar      1 <0>        -0.0400
      3 C3          3.3764   -0.0128    3.6120 C.ar      1 <0>        -0.1280
      4 C4          3.3849    1.0490    2.6913 C.ar      1 <0>         0.1602
      5 C5          2.7439    0.8995    1.4712 C.ar      1 <0>        -0.1411
      6 C6          2.0937   -0.2888    1.1784 C.ar      1 <0>         0.1152
      7 O1          1.4619   -0.4342   -0.0142 O.3       1 <0>        -0.6647
      8 S1          0.0021   -0.0041    0.0020 S.o2      1 <0>         2.7792
      9 O2         -0.5313   -0.4243    1.2503 O.2       1 <0>        -0.9692
     10 O3         -0.5551   -0.4110   -1.2403 O.2       1 <0>        -0.9445
     11 N1         -0.0204    1.6518    0.0111 N.pl3     1 <0>        -1.2638
     12 O4          4.0224    2.1973    3.0032 O.3       1 <0>        -0.2644
     13 C7          4.6457    2.3490    4.1789 C.2       1 <0>         0.5115
     14 O5          5.2101    3.4021    4.4151 O.2       1 <0>        -0.4472
     15 C8          4.6703    1.3229    5.1577 C.2       1 <0>        -0.1893
     16 C9          4.0685    0.1463    4.8999 C.2       1 <0>         0.0212
     17 C10         4.0796   -1.0290    5.8423 C.3       1 <0>        -0.0930
     18 C11         4.1555   -0.5753    7.3000 C.3       1 <0>        -0.1273
     19 C12         5.6292   -0.5008    7.7075 C.3       1 <0>        -0.1259
     20 C13         6.3525    0.5078    6.8185 C.3       1 <0>        -0.1176
     21 C14         5.3609    1.6175    6.4623 C.3       1 <0>        -0.0771
     22 H1          1.5802   -2.2595    1.8529 H         1 <0>         0.1555
     23 H2          2.7103   -2.0236    4.0070 H         1 <0>         0.1600
     24 H3          2.7474    1.7069    0.7539 H         1 <0>         0.1604
     25 H4          0.8130    2.1481    0.0058 H         1 <0>         0.4144
     26 H5         -0.8669    2.1253    0.0177 H         1 <0>         0.4281
     27 H6          3.1694   -1.6109    5.6970 H         1 <0>         0.0885
     28 H7          4.9421   -1.6569    5.6190 H         1 <0>         0.0977
     29 H8          3.6962    0.4078    7.4027 H         1 <0>         0.0780
     30 H9          3.6350   -1.2922    7.9350 H         1 <0>         0.0765
     31 H10         5.7029   -0.1860    8.7484 H         1 <0>         0.0683
     32 H11         6.0884   -1.4825    7.5913 H         1 <0>         0.0674
     33 H12         7.2017    0.9304    7.3555 H         1 <0>         0.0750
     34 H13         6.6988    0.0163    5.9093 H         1 <0>         0.0654
     35 H14         5.8959    2.5635    6.3789 H         1 <0>         0.0891
     36 H15         4.6146    1.6972    7.2528 H         1 <0>         0.0924
@<TRIPOS>BOND
     1    1    6 ar
     2    1    2 ar
     3    1   22 1
     4    2    3 ar
     5    2   23 1
     6    3   16 1
     7    3    4 ar
     8    4    5 ar
     9    4   12 1
    10    5    6 ar
    11    5   24 1
    12    6    7 1
    13    7    8 1
    14    8    9 2
    15    8   10 2
    16    8   11 1
    17   11   25 1
    18   11   26 1
    19   12   13 1
    20   13   14 2
    21   13   15 1
    22   15   21 1
    23   15   16 2
    24   16   17 1
    25   17   18 1
    26   17   27 1
    27   17   28 1
    28   18   19 1
    29   18   29 1
    30   18   30 1
    31   19   20 1
    32   19   31 1
    33   19   32 1
    34   20   21 1
    35   20   33 1
    36   20   34 1
    37   21   35 1
    38   21   36 1
@<TRIPOS>MOLECULE
ZINC03525495
   38    39     0     0     0
SMALL
USER_CHARGES

@<TRIPOS>ATOM
      1 C1         -0.0166    1.3749    0.0096 C.ar      1 <0>        -0.1317
      2 C2          1.1694    2.0891    0.0021 C.ar      1 <0>        -0.0803
      3 C3          2.3832    1.4282   -0.0134 C.ar      1 <0>        -0.1516
      4 C4          2.4202    0.0435   -0.0216 C.ar      1 <0>         0.1484
      5 C5          1.2222   -0.6836   -0.0136 C.ar      1 <0>        -0.0941
      6 C6          0.0021   -0.0041    0.0020 C.ar      1 <0>        -0.0687
      7 C7          1.2496   -2.1572   -0.0227 C.2       1 <0>         0.1427
      8 N1          2.3855   -2.7851   -0.0382 N.2       1 <0>        -0.2619
      9 N2          2.4116   -4.1858   -0.0469 N.pl3     1 <0>        -0.5437
     10 C8          3.5911   -4.8377   -0.0629 C.2       1 <0>         0.5922
     11 S1          3.6230   -6.5494   -0.0735 S.2       1 <0>        -0.6213
     12 N3          4.7455   -4.1422   -0.0707 N.pl3     1 <0>        -0.6573
     13 C9          6.0276   -4.8508   -0.0881 C.3       1 <0>         0.1380
     14 C10         6.4279   -5.2161    1.3427 C.3       1 <0>        -0.1270
     15 C11         7.7669   -5.9562    1.3245 C.3       1 <0>        -0.1148
     16 C12         8.8393   -5.0551    0.7091 C.3       1 <0>        -0.1236
     17 C13         8.4390   -4.6898   -0.7217 C.3       1 <0>        -0.1144
     18 C14         7.1000   -3.9497   -0.7034 C.3       1 <0>        -0.1265
     19 O1          3.6125   -0.6067   -0.0378 O.3       1 <0>        -0.4809
     20 H1         -0.9603    1.8998    0.0259 H         1 <0>         0.1337
     21 H2          1.1459    3.1688    0.0081 H         1 <0>         0.1324
     22 H3          3.3042    1.9923   -0.0196 H         1 <0>         0.1347
     23 H4         -0.9253   -0.5576    0.0082 H         1 <0>         0.1355
     24 H5          0.3246   -2.7146   -0.0165 H         1 <0>         0.1291
     25 H6          1.5808   -4.6864   -0.0413 H         1 <0>         0.4152
     26 H7          4.7274   -3.1724   -0.0647 H         1 <0>         0.4110
     27 H8          5.9322   -5.7598   -0.6820 H         1 <0>         0.1166
     28 H9          6.5232   -4.3072    1.9366 H         1 <0>         0.0592
     29 H10         5.6638   -5.8581    1.7811 H         1 <0>         0.0799
     30 H11         8.0521   -6.2165    2.3438 H         1 <0>         0.0669
     31 H12         7.6715   -6.8652    0.7305 H         1 <0>         0.0697
     32 H13         8.9347   -4.1461    1.3031 H         1 <0>         0.0617
     33 H14         9.7932   -5.5823    0.6961 H         1 <0>         0.0660
     34 H15         9.2031   -4.0478   -1.1600 H         1 <0>         0.0692
     35 H16         8.3437   -5.5987   -1.3156 H         1 <0>         0.0688
     36 H17         6.8149   -3.6894   -1.7228 H         1 <0>         0.0698
     37 H18         7.1954   -3.0407   -0.1095 H         1 <0>         0.0678
     38 H19         3.9670   -0.8000    0.8408 H         1 <0>         0.3894
@<TRIPOS>BOND
     1    1    6 ar
     2    1    2 ar
     3    1   20 1
     4    2    3 ar
     5    2   21 1
     6    3    4 ar
     7    3   22 1
     8    4    5 ar
     9    4   19 1
    10    5    6 ar
    11    5    7 1
    12    6   23 1
    13    7    8 2
    14    7   24 1
    15    8    9 1
    16    9   10 1
    17    9   25 1
    18   10   11 2
    19   10   12 1
    20   12   13 1
    21   12   26 1
    22   13   18 1
    23   13   14 1
    24   13   27 1
    25   14   15 1
    26   14   28 1
    27   14   29 1
    28   15   16 1
    29   15   30 1
    30   15   31 1
    31   16   17 1
    32   16   32 1
    33   16   33 1
    34   17   18 1
    35   17   34 1
    36   17   35 1
    37   18   36 1
    38   18   37 1
    39   19   38 1
@<TRIPOS>MOLECULE
ZINC03876186
   45    48     0     0     0
SMALL
USER_CHARGES

@<TRIPOS>ATOM
      1 C1         -0.0187    1.5258    0.0104 C.3       1 <0>        -0.1437
      2 C2          0.0021   -0.0041    0.0020 C.3       1 <0>        -0.1265
      3 C3         -1.4074   -0.5256    0.1829 C.3       1 <0>        -0.0964
      4 C4         -1.9733    0.0969    1.4736 C.3       1 <0>        -0.1147
      5 C5         -1.0810   -0.2282    2.6627 C.3       1 <0>        -0.0396
      6 H1         -1.0782   -1.3101    2.7958 H         1 <0>         0.0781
      7 C6         -1.5931    0.3931    3.9301 C.ar      1 <0>        -0.0829
      8 C7         -2.9665    0.5118    4.0958 C.ar      1 <0>        -0.1075
      9 C8         -3.4900    1.0660    5.2445 C.ar      1 <0>        -0.1102
     10 C9         -2.6356    1.5075    6.2447 C.ar      1 <0>         0.1186
     11 C10        -1.2666    1.3928    6.0776 C.ar      1 <0>        -0.1287
     12 C11        -0.7400    0.8406    4.9173 C.ar      1 <0>        -0.0647
     13 C12         0.7595    0.7756    4.7933 C.3       1 <0>        -0.0793
     14 C13         1.1841   -0.1541    3.6574 C.3       1 <0>        -0.1115
     15 C14         0.3656    0.2227    2.4221 C.3       1 <0>        -0.0751
     16 H2          0.3966    1.2998    2.2579 H         1 <0>         0.0886
     17 C15         0.8620   -0.5119    1.1930 C.3       1 <0>        -0.0775
     18 H3          0.7512   -1.5883    1.3238 H         1 <0>         0.0847
     19 C16         2.2729   -0.1511    0.7109 C.3       1 <0>        -0.1111
     20 C17         2.2205   -0.5241   -0.7959 C.3       1 <0>        -0.1823
     21 C18         0.7513   -0.4835   -1.2046 C.2       1 <0>         0.3813
     22 O1          0.2870   -0.7771   -2.2801 O.2       1 <0>        -0.4435
     23 O2         -3.1409    2.0507    7.3833 O.3       1 <0>        -0.7144
     24 S1         -3.4057    1.0378    8.4879 S.o2      1 <0>         2.7554
     25 O3         -4.2567    1.6944    9.4681 O.2       1 <0>        -1.0620
     26 O4         -4.0682   -0.0995    7.8683 O.2       1 <0>        -1.0783
     27 O5         -2.1128    0.6749    9.0471 O.3       1 <0>        -1.0783
     28 H4          1.0038    1.9031   -0.0041 H         1 <0>         0.0620
     29 H5         -0.5517    1.8867   -0.8692 H         1 <0>         0.0572
     30 H6         -0.5229    1.8774    0.9105 H         1 <0>         0.0842
     31 H7         -2.0218   -0.2335   -0.6688 H         1 <0>         0.0700
     32 H8         -1.3910   -1.6118    0.2726 H         1 <0>         0.0665
     33 H9         -2.0328    1.1787    1.3544 H         1 <0>         0.0720
     34 H10        -2.9724   -0.2993    1.6553 H         1 <0>         0.0715
     35 H11        -3.6309    0.1671    3.3173 H         1 <0>         0.1289
     36 H12        -4.5595    1.1563    5.3650 H         1 <0>         0.1333
     37 H13        -0.6018    1.7357    6.8566 H         1 <0>         0.1356
     38 H14         1.1450    1.7763    4.5982 H         1 <0>         0.0756
     39 H15         1.1794    0.4091    5.7301 H         1 <0>         0.0779
     40 H16         2.2463   -0.0219    3.4518 H         1 <0>         0.0702
     41 H17         0.9894   -1.1893    3.9375 H         1 <0>         0.0683
     42 H18         2.4651    0.9141    0.8393 H         1 <0>         0.0787
     43 H19         3.0235   -0.7463    1.2309 H         1 <0>         0.0779
     44 H20         2.7904    0.1988   -1.3795 H         1 <0>         0.0961
     45 H21         2.6224   -1.5261   -0.9467 H         1 <0>         0.0960
@<TRIPOS>BOND
     1    1    2 1
     2    1   28 1
     3    1   29 1
     4    1   30 1
     5    2   17 1
     6    2   21 1
     7    2    3 1
     8    3    4 1
     9    3   31 1
    10    3   32 1
    11    4    5 1
    12    4   33 1
    13    4   34 1
    14    5    6 1
    15    5   15 1
    16    5    7 1
    17    7   12 ar
    18    7    8 ar
    19    8    9 ar
    20    8   35 1
    21    9   10 ar
    22    9   36 1
    23   10   11 ar
    24   10   23 1
    25   11   12 ar
    26   11   37 1
    27   12   13 1
    28   13   14 1
    29   13   38 1
    30   13   39 1
    31   14   15 1
    32   14   40 1
    33   14   41 1
    34   15   16 1
    35   15   17 1
    36   17   18 1
    37   17   19 1
    38   19   20 1
    39   19   42 1
    40   19   43 1
    41   20   21 1
    42   20   44 1
    43   20   45 1
    44   21   22 2
    45   23   24 1
    46   24   25 2
    47   24   26 2
    48   24   27 1
