@<TRIPOS>MOLECULE
ZINC03794711
   37    37     0     0     0
SMALL
USER_CHARGES

@<TRIPOS>ATOM
      1 C1         -0.5626    1.3318    0.0235 C.3       1 <0>        -0.1592
      2 C2         -0.3431   -0.1823    0.0355 C.3       1 <0>        -0.1202
      3 C3          0.4110   -0.5984   -1.2291 C.3       1 <0>        -0.1495
      4 C4          0.6305   -2.1125   -1.2171 C.3       1 <0>        -0.0135
      5 N1          1.3545   -2.5120   -2.4312 N.4       1 <0>        -0.3726
      6 C5          0.5252   -2.2296   -3.6089 C.3       1 <0>        -0.0105
      7 C6          1.3061   -2.5684   -4.8805 C.3       1 <0>         0.0589
      8 H1          2.2125   -1.9645   -4.9227 H         1 <0>         0.0900
      9 C7          1.6810   -4.0530   -4.8624 C.3       1 <0>         0.0258
     10 H2          0.7744   -4.6581   -4.8718 H         1 <0>         0.0912
     11 C8          2.4827   -4.3515   -3.5921 C.3       1 <0>         0.1122
     12 H3          3.4136   -3.7847   -3.6076 H         1 <0>         0.0961
     13 C9          1.6582   -3.9467   -2.3683 C.3       1 <0>         0.0358
     14 H4          0.7277   -4.5142   -2.3537 H         1 <0>         0.1569
     15 C10         2.4551   -4.2433   -1.0964 C.3       1 <0>         0.0568
     16 O1          3.7102   -3.5623   -1.1509 O.3       1 <0>        -0.5781
     17 O2          2.7758   -5.7488   -3.5301 O.3       1 <0>        -0.5411
     18 O3          2.4724   -4.3601   -6.0119 O.3       1 <0>        -0.5475
     19 O4          0.4961   -2.2938   -6.0253 O.3       1 <0>        -0.5410
     20 H5          0.4020    1.8385   -0.0076 H         1 <0>         0.0598
     21 H6         -1.1462    1.6074   -0.8548 H         1 <0>         0.0596
     22 H7         -1.0998    1.6282    0.9244 H         1 <0>         0.0677
     23 H8          0.2405   -0.4579    0.9138 H         1 <0>         0.0739
     24 H9         -1.3077   -0.6890    0.0666 H         1 <0>         0.0741
     25 H10        -0.1727   -0.3228   -2.1074 H         1 <0>         0.0883
     26 H11         1.3756   -0.0917   -1.2601 H         1 <0>         0.0893
     27 H12         1.2141   -2.3881   -0.3387 H         1 <0>         0.1385
     28 H13        -0.3341   -2.6192   -1.1860 H         1 <0>         0.1342
     29 H14        -0.3811   -2.8337   -3.5678 H         1 <0>         0.1416
     30 H15         0.2565   -1.1733   -3.6187 H         1 <0>         0.1496
     31 H16         1.8933   -3.9008   -0.2274 H         1 <0>         0.0779
     32 H17         2.6274   -5.3168   -1.0176 H         1 <0>         0.1050
     33 H18         4.2694   -3.7053   -0.3751 H         1 <0>         0.4108
     34 H19         3.2946   -6.0754   -4.2779 H         1 <0>         0.4110
     35 H20         2.0271   -4.1891   -6.8531 H         1 <0>         0.3955
     36 H21         0.9288   -2.4859   -6.8685 H         1 <0>         0.4021
     37 H22         2.2153   -1.9895   -2.4955 H         1 <0>         0.4306
@<TRIPOS>BOND
     1    1    2 1
     2    1   20 1
     3    1   21 1
     4    1   22 1
     5    2    3 1
     6    2   23 1
     7    2   24 1
     8    3    4 1
     9    3   25 1
    10    3   26 1
    11    4    5 1
    12    4   27 1
    13    4   28 1
    14    5   13 1
    15    5    6 1
    16    5   37 1
    17    6    7 1
    18    6   29 1
    19    6   30 1
    20    7    8 1
    21    7    9 1
    22    7   19 1
    23    9   10 1
    24    9   11 1
    25    9   18 1
    26   11   12 1
    27   11   13 1
    28   11   17 1
    29   13   14 1
    30   13   15 1
    31   15   16 1
    32   15   31 1
    33   15   32 1
    34   16   33 1
    35   17   34 1
    36   18   35 1
    37   19   36 1
@<TRIPOS>MOLECULE
ZINC13836790
   38    38     0     0     0
SMALL
USER_CHARGES
[(1S,2S)-3-[(1S,2R,3S,4S)-3,4-dihydroxy-2-(hydroxymethyl)tetrahydrothiophen-1-ium-1-yl]-2-hydroxy-1-(hydroxymethyl)propyl] hydrogen sulfate
@<TRIPOS>ATOM
      1 C1          4.7962    0.8715    0.0848 C.3       1 <0>        -0.2407
      2 C2          6.1287    0.6927    0.8464 C.3       1 <0>         0.0572
      3 H1          6.5202   -0.3010    0.6285 H         1 <0>         0.1110
      4 C3          6.0012    0.8444    2.3547 C.3       1 <0>         0.1099
      5 H2          6.6545    1.6543    2.6793 H         1 <0>         0.1099
      6 C4          4.5639    1.1480    2.8337 C.3       1 <0>        -0.1848
      7 H3          4.0506    0.2351    3.1359 H         1 <0>         0.1638
      8 S1          3.8152    1.8540    1.3013 S.3       1 <0>         0.5912
      9 C5          2.1627    1.1086    1.2367 C.3       1 <0>        -0.2941
     10 C6          1.4227    1.6154   -0.0028 C.3       1 <0>         0.1229
     11 H4          1.4079    2.7053    0.0031 H         1 <0>         0.1507
     12 C7         -0.0127    1.0858    0.0080 C.3       1 <0>         0.1091
     13 H5          0.0021   -0.0041    0.0020 H         1 <0>         0.1053
     14 C8         -0.7527    1.5927   -1.2315 C.3       1 <0>         0.0552
     15 O1         -0.6718    3.0184   -1.2848 O.3       1 <0>        -0.5663
     16 O2         -0.6816    1.5467    1.1837 O.3       1 <0>        -0.7694
     17 S2         -1.6734    0.5482    1.7633 S.o2      1 <0>         2.7628
     18 O3         -2.3891    1.2319    2.7828 O.2       1 <0>        -1.0457
     19 O4         -2.3220   -0.0675    0.6590 O.2       1 <0>        -1.0798
     20 O5          2.0915    1.1546   -1.1786 O.3       1 <0>        -0.5460
     21 C9          4.5676    2.1751    3.9677 C.3       1 <0>         0.0955
     22 O6          5.2567    1.6353    5.0972 O.3       1 <0>        -0.5487
     23 O7          6.4405   -0.3681    2.9703 O.3       1 <0>        -0.5333
     24 O8          7.0614    1.6636    0.3676 O.3       1 <0>        -0.5491
     25 H6          4.3250   -0.0915   -0.1119 H         1 <0>         0.1475
     26 H7          4.9451    1.4290   -0.8399 H         1 <0>         0.1757
     27 H8          1.6044    1.3845    2.1313 H         1 <0>         0.1770
     28 H9          2.2552    0.0237    1.1863 H         1 <0>         0.1438
     29 H10        -0.2958    1.1691   -2.1259 H         1 <0>         0.0698
     30 H11        -1.7985    1.2898   -1.1795 H         1 <0>         0.0849
     31 H12        -1.1204    3.4096   -2.0469 H         1 <0>         0.3847
     32 H13         2.1422    0.1915   -1.2503 H         1 <0>         0.3839
     33 H14         5.0713    3.0825    3.6344 H         1 <0>         0.0739
     34 H15         3.5409    2.4113    4.2473 H         1 <0>         0.0788
     35 H16         5.2980    2.2337    5.8556 H         1 <0>         0.4001
     36 H17         7.3371   -0.6326    2.7226 H         1 <0>         0.3965
     37 H18         7.2021    1.6358   -0.5887 H         1 <0>         0.3993
     38 O9         -0.8644   -0.5400    2.4546 O.3       1 <0>        -1.1023
@<TRIPOS>BOND
     1    1    8 1
     2    1    2 1
     3    1   25 1
     4    1   26 1
     5    2    3 1
     6    2    4 1
     7    2   24 1
     8    4    5 1
     9    4    6 1
    10    4   23 1
    11    6    7 1
    12    6    8 1
    13    6   21 1
    14    8    9 1
    15    9   10 1
    16    9   27 1
    17    9   28 1
    18   10   11 1
    19   10   12 1
    20   10   20 1
    21   12   13 1
    22   12   14 1
    23   12   16 1
    24   14   15 1
    25   14   29 1
    26   14   30 1
    27   15   31 1
    28   16   17 1
    29   17   18 2
    30   17   19 2
    31   17   38 1
    32   20   32 1
    33   21   22 1
    34   21   33 1
    35   21   34 1
    36   22   35 1
    37   23   36 1
    38   24   37 1
@<TRIPOS>MOLECULE
ZINC04097426
   32    32     0     0     0
SMALL
USER_CHARGES

@<TRIPOS>ATOM
      1 C1          0.0582    1.4326   -0.0932 C.3       1 <0>        -0.0174
      2 C2          1.4600    2.0177   -0.2786 C.3       1 <0>         0.0589
      3 H1          2.0720    1.7790    0.5912 H         1 <0>         0.0866
      4 C3          2.0972    1.4141   -1.5335 C.3       1 <0>         0.0245
      5 H2          1.5136    1.6954   -2.4100 H         1 <0>         0.0903
      6 C4          2.1180   -0.1114   -1.4002 C.3       1 <0>         0.1132
      7 H3          2.7437   -0.3942   -0.5536 H         1 <0>         0.0954
      8 C5          0.6919   -0.6176   -1.1732 C.3       1 <0>         0.0332
      9 H4          0.0672   -0.3344   -2.0203 H         1 <0>         0.1567
     10 N1          0.1481   -0.0250    0.0547 N.4       1 <0>        -0.3697
     11 C6         -1.1906   -0.5733    0.3100 C.3       1 <0>        -0.0097
     12 C7         -1.6812   -0.1033    1.6809 C.3       1 <0>         0.0488
     13 O1         -1.9530    1.2988    1.6346 O.3       1 <0>        -0.5731
     14 C8          0.7077   -2.1416   -1.0388 C.3       1 <0>         0.0563
     15 O2          1.5849   -2.5169    0.0250 O.3       1 <0>        -0.5784
     16 O3          2.6451   -0.6878   -2.5968 O.3       1 <0>        -0.5418
     17 O4          3.4334    1.9014   -1.6725 O.3       1 <0>        -0.5488
     18 O5          1.3695    3.4364   -0.4236 O.3       1 <0>        -0.5398
     19 H5         -0.3984    1.8604    0.7993 H         1 <0>         0.1754
     20 H6         -0.5530    1.6721   -0.9634 H         1 <0>         0.1362
     21 H7         -1.8785   -0.2259   -0.4608 H         1 <0>         0.1421
     22 H8         -1.1464   -1.6622    0.2936 H         1 <0>         0.1498
     23 H9         -2.5916   -0.6414    1.9450 H         1 <0>         0.1017
     24 H10        -0.9130   -0.3000    2.4287 H         1 <0>         0.0742
     25 H11        -2.2689    1.6661    2.4715 H         1 <0>         0.4078
     26 H12        -0.2994   -2.4977   -0.8221 H         1 <0>         0.0772
     27 H13         1.0571   -2.5849   -1.9713 H         1 <0>         0.1054
     28 H14         1.6442   -3.4715    0.1676 H         1 <0>         0.4107
     29 H15         3.5471   -0.4075   -2.8042 H         1 <0>         0.4109
     30 H16         3.4946    2.8628   -1.7564 H         1 <0>         0.3952
     31 H17         2.2229    3.8746   -0.5453 H         1 <0>         0.3999
     32 H18         0.7538   -0.2466    0.8307 H         1 <0>         0.4280
@<TRIPOS>BOND
     1    1   10 1
     2    1    2 1
     3    1   19 1
     4    1   20 1
     5    2    3 1
     6    2    4 1
     7    2   18 1
     8    4    5 1
     9    4    6 1
    10    4   17 1
    11    6    7 1
    12    6    8 1
    13    6   16 1
    14    8    9 1
    15    8   10 1
    16    8   14 1
    17   10   11 1
    18   10   32 1
    19   11   12 1
    20   11   21 1
    21   11   22 1
    22   12   13 1
    23   12   23 1
    24   12   24 1
    25   13   25 1
    26   14   15 1
    27   14   26 1
    28   14   27 1
    29   15   28 1
    30   16   29 1
    31   17   30 1
    32   18   31 1
@<TRIPOS>MOLECULE
ZINC02562349
   37    37     0     0     0
SMALL
USER_CHARGES

@<TRIPOS>ATOM
      1 C1         -0.3583    1.7337   -0.8256 C.3       1 <0>        -0.1592
      2 C2         -0.2264    0.2269   -0.5956 C.3       1 <0>        -0.1199
      3 C3          0.5456   -0.4008   -1.7579 C.3       1 <0>        -0.1494
      4 C4          0.6775   -1.9077   -1.5279 C.3       1 <0>        -0.0157
      5 N1          1.4188   -2.5103   -2.6439 N.4       1 <0>        -0.3721
      6 C5          2.7894   -1.9854   -2.6590 C.3       1 <0>        -0.0071
      7 C6          3.5417   -2.5478   -3.8670 C.3       1 <0>         0.0607
      8 H1          3.0308   -2.2528   -4.7836 H         1 <0>         0.0939
      9 C7          3.5796   -4.0758   -3.7718 C.3       1 <0>         0.0286
     10 H2          4.1348   -4.3719   -2.8817 H         1 <0>         0.0886
     11 C8          2.1463   -4.6075   -3.6816 C.3       1 <0>         0.1046
     12 H3          2.1668   -5.6902   -3.5576 H         1 <0>         0.1087
     13 C9          1.4457   -3.9688   -2.4805 C.3       1 <0>         0.0405
     14 H4          1.9861   -4.2218   -1.5684 H         1 <0>         0.1590
     15 C10         0.0130   -4.4973   -2.3862 C.3       1 <0>         0.0544
     16 O1         -0.6767   -4.2247   -3.6077 O.3       1 <0>        -0.5525
     17 O2          1.4388   -4.2777   -4.8786 O.3       1 <0>        -0.5395
     18 O3          4.2174   -4.6113   -4.9330 O.3       1 <0>        -0.5478
     19 O4          4.8760   -2.0364   -3.8787 O.3       1 <0>        -0.5451
     20 H5          0.6342    2.1803   -0.8859 H         1 <0>         0.0594
     21 H6         -0.8947    1.9135   -1.7573 H         1 <0>         0.0599
     22 H7         -0.9083    2.1809    0.0024 H         1 <0>         0.0673
     23 H8          0.3101    0.0471    0.3360 H         1 <0>         0.0734
     24 H9         -1.2189   -0.2197   -0.5354 H         1 <0>         0.0735
     25 H10         0.0092   -0.2210   -2.6896 H         1 <0>         0.0887
     26 H11         1.5381    0.0458   -1.8182 H         1 <0>         0.0871
     27 H12         1.2140   -2.0874   -0.5963 H         1 <0>         0.1313
     28 H13        -0.3150   -2.3542   -1.4677 H         1 <0>         0.1367
     29 H14         2.7608   -0.8977   -2.7236 H         1 <0>         0.1458
     30 H15         3.3013   -2.2807   -1.7431 H         1 <0>         0.1377
     31 H16         0.0333   -5.5732   -2.2127 H         1 <0>         0.0931
     32 H17        -0.5020   -4.0058   -1.5607 H         1 <0>         0.0753
     33 H18        -1.5932   -4.5330   -3.6192 H         1 <0>         0.4012
     34 H19         1.8302   -4.6481   -5.6816 H         1 <0>         0.4048
     35 H20         5.1284   -4.3110   -5.0551 H         1 <0>         0.3955
     36 H21         5.4118   -2.3521   -4.6192 H         1 <0>         0.4006
     37 H22         0.9624   -2.2787   -3.5135 H         1 <0>         0.4384
@<TRIPOS>BOND
     1    1    2 1
     2    1   20 1
     3    1   21 1
     4    1   22 1
     5    2    3 1
     6    2   23 1
     7    2   24 1
     8    3    4 1
     9    3   25 1
    10    3   26 1
    11    4    5 1
    12    4   27 1
    13    4   28 1
    14    5   13 1
    15    5    6 1
    16    5   37 1
    17    6    7 1
    18    6   29 1
    19    6   30 1
    20    7    8 1
    21    7    9 1
    22    7   19 1
    23    9   10 1
    24    9   11 1
    25    9   18 1
    26   11   12 1
    27   11   13 1
    28   11   17 1
    29   13   14 1
    30   13   15 1
    31   15   16 1
    32   15   31 1
    33   15   32 1
    34   16   33 1
    35   17   34 1
    36   18   35 1
    37   19   36 1
@<TRIPOS>MOLECULE
ZINC08627075
   37    37     0     0     0
SMALL
USER_CHARGES

@<TRIPOS>ATOM
      1 C1         -0.3583    1.7337   -0.8256 C.3       1 <0>        -0.1589
      2 C2         -0.2264    0.2269   -0.5956 C.3       1 <0>        -0.1200
      3 C3          0.5456   -0.4008   -1.7579 C.3       1 <0>        -0.1471
      4 C4          0.6775   -1.9077   -1.5279 C.3       1 <0>        -0.0185
      5 N1          1.4188   -2.5103   -2.6439 N.4       1 <0>        -0.3726
      6 C5          2.7894   -1.9854   -2.6590 C.3       1 <0>        -0.0015
      7 C6          3.5417   -2.5478   -3.8670 C.3       1 <0>         0.0569
      8 H1          4.5597   -2.1583   -3.8755 H         1 <0>         0.1009
      9 C7          3.5796   -4.0758   -3.7718 C.3       1 <0>         0.0279
     10 H2          4.1348   -4.3719   -2.8817 H         1 <0>         0.0856
     11 C8          2.1463   -4.6075   -3.6816 C.3       1 <0>         0.1081
     12 H3          2.1668   -5.6902   -3.5576 H         1 <0>         0.1007
     13 C9          1.4457   -3.9688   -2.4805 C.3       1 <0>         0.0421
     14 H4          1.9861   -4.2218   -1.5684 H         1 <0>         0.1543
     15 C10         0.0130   -4.4973   -2.3862 C.3       1 <0>         0.0544
     16 O1         -0.6767   -4.2247   -3.6077 O.3       1 <0>        -0.5497
     17 O2          1.4388   -4.2777   -4.8786 O.3       1 <0>        -0.5250
     18 O3          4.2174   -4.6113   -4.9330 O.3       1 <0>        -0.5497
     19 O4          2.8725   -2.1602   -5.0687 O.3       1 <0>        -0.5471
     20 H5          0.6342    2.1803   -0.8859 H         1 <0>         0.0588
     21 H6         -0.8947    1.9135   -1.7573 H         1 <0>         0.0600
     22 H7         -0.9083    2.1809    0.0024 H         1 <0>         0.0669
     23 H8          0.3101    0.0471    0.3360 H         1 <0>         0.0725
     24 H9         -1.2189   -0.2197   -0.5354 H         1 <0>         0.0730
     25 H10         0.0092   -0.2210   -2.6896 H         1 <0>         0.0887
     26 H11         1.5381    0.0458   -1.8182 H         1 <0>         0.0852
     27 H12         1.2140   -2.0874   -0.5963 H         1 <0>         0.1284
     28 H13        -0.3150   -2.3542   -1.4677 H         1 <0>         0.1336
     29 H14         2.7608   -0.8977   -2.7236 H         1 <0>         0.1431
     30 H15         3.3013   -2.2807   -1.7431 H         1 <0>         0.1397
     31 H16         0.0333   -5.5732   -2.2127 H         1 <0>         0.0908
     32 H17        -0.5020   -4.0058   -1.5607 H         1 <0>         0.0730
     33 H18        -1.5932   -4.5330   -3.6192 H         1 <0>         0.3993
     34 H19         1.8302   -4.6481   -5.6816 H         1 <0>         0.3981
     35 H20         5.1284   -4.3110   -5.0551 H         1 <0>         0.3980
     36 H21         3.2956   -2.4829   -5.8761 H         1 <0>         0.4036
     37 H22         0.9624   -2.2787   -3.5135 H         1 <0>         0.4464
@<TRIPOS>BOND
     1    1    2 1
     2    1   20 1
     3    1   21 1
     4    1   22 1
     5    2    3 1
     6    2   23 1
     7    2   24 1
     8    3    4 1
     9    3   25 1
    10    3   26 1
    11    4    5 1
    12    4   27 1
    13    4   28 1
    14    5   13 1
    15    5    6 1
    16    5   37 1
    17    6    7 1
    18    6   29 1
    19    6   30 1
    20    7    8 1
    21    7    9 1
    22    7   19 1
    23    9   10 1
    24    9   11 1
    25    9   18 1
    26   11   12 1
    27   11   13 1
    28   11   17 1
    29   13   14 1
    30   13   15 1
    31   15   16 1
    32   15   31 1
    33   15   32 1
    34   16   33 1
    35   17   34 1
    36   18   35 1
    37   19   36 1
@<TRIPOS>MOLECULE
ZINC05157081
   29    29     0     0     0
SMALL
USER_CHARGES
5-amino-1-(hydroxymethyl)cyclohexane-1,2,3,4-tetrol
@<TRIPOS>ATOM
      1 C1         -1.3431   -2.0602   -0.0356 C.3       1 <0>        -0.1717
      2 C2         -1.4333   -0.5336    0.0129 C.3       1 <0>         0.0544
      3 H1         -1.9748   -0.2300    0.9088 H         1 <0>         0.1562
      4 C3         -0.0234    0.0598    0.0434 C.3       1 <0>         0.0495
      5 H2          0.5038   -0.3013    0.9264 H         1 <0>         0.1127
      6 C4          0.7366   -0.3665   -1.2142 C.3       1 <0>         0.0356
      7 H3          0.2095   -0.0054   -2.0973 H         1 <0>         0.0767
      8 C5          0.8268   -1.8930   -1.2627 C.3       1 <0>         0.1250
      9 H4          1.3540   -2.2541   -0.3797 H         1 <0>         0.0933
     10 C6         -0.5831   -2.4865   -1.2932 C.3       1 <0>         0.1377
     11 C7         -0.4929   -4.0131   -1.3417 C.3       1 <0>         0.0526
     12 O1         -1.8097   -4.5673   -1.3702 O.3       1 <0>        -0.5810
     13 O2         -1.2742   -2.0131   -2.4509 O.3       1 <0>        -0.5520
     14 O3          1.5367   -2.2912   -2.4373 O.3       1 <0>        -0.5408
     15 O4          2.0535    0.1878   -1.1857 O.3       1 <0>        -0.5449
     16 O5         -0.1076    1.4856    0.0887 O.3       1 <0>        -0.5633
     17 H5         -2.3476   -2.4830   -0.0574 H         1 <0>         0.1238
     18 H6         -0.8159   -2.4213    0.8474 H         1 <0>         0.1303
     19 H7          0.0486   -4.3167   -2.2377 H         1 <0>         0.0812
     20 H8          0.0343   -4.3741   -0.4587 H         1 <0>         0.0673
     21 H9         -1.8291   -5.5336   -1.4015 H         1 <0>         0.4031
     22 H10        -2.1768   -2.3497   -2.5352 H         1 <0>         0.3998
     23 H11         2.4404   -1.9503   -2.4852 H         1 <0>         0.3998
     24 H12         2.0729    1.1541   -1.1544 H         1 <0>         0.3921
     25 H13         0.7510    1.9299    0.1099 H         1 <0>         0.4063
     26 H14        -3.0678   -0.4481   -1.2360 H         1 <0>         0.4326
     27 H15        -2.1860    0.9611   -1.1862 H         1 <0>         0.4380
     28 N1         -2.1285   -0.0559   -1.1954 N.4       1 <0>        -0.6472
     29 H16        -1.6046   -0.3544   -2.0264 H         1 <0>         0.4328
@<TRIPOS>BOND
     1    1   10 1
     2    1    2 1
     3    1   17 1
     4    1   18 1
     5    2    3 1
     6    2    4 1
     7    2   28 1
     8    4    5 1
     9    4    6 1
    10    4   16 1
    11    6    7 1
    12    6    8 1
    13    6   15 1
    14    8    9 1
    15    8   10 1
    16    8   14 1
    17   10   11 1
    18   10   13 1
    19   11   12 1
    20   11   19 1
    21   11   20 1
    22   12   21 1
    23   13   22 1
    24   14   23 1
    25   15   24 1
    26   16   25 1
    27   26   28 1
    28   27   28 1
    29   28   29 1
@<TRIPOS>MOLECULE
ZINC29129620
   31    33     0     0     0
SMALL
USER_CHARGES
6-amino-5,7-dihydroxy-2-phenyl-chromen-4-one
@<TRIPOS>ATOM
      1 C1          4.8195   -0.3643   -0.0434 C.ar      1 <0>        -0.0955
      2 C2          4.8297    1.0194   -0.0371 C.ar      1 <0>        -0.1232
      3 C3          3.6422    1.7210   -0.0229 C.ar      1 <0>        -0.0804
      4 C4          2.4278    1.0315   -0.0151 C.ar      1 <0>        -0.0710
      5 C5          2.4249   -0.3650   -0.0162 C.ar      1 <0>        -0.0817
      6 C6          3.6199   -1.0538   -0.0357 C.ar      1 <0>        -0.1211
      7 C7          1.1523    1.7759    0.0006 C.2       1 <0>         0.2044
      8 C8         -0.0126    1.0758    0.0080 C.2       1 <0>        -0.3126
      9 C9         -1.2457    1.7719    0.0175 C.2       1 <0>         0.4258
     10 O1         -2.3104    1.1757    0.0194 O.2       1 <0>        -0.4586
     11 C10        -1.1928    3.2436    0.0298 C.ar      1 <0>        -0.2603
     12 C11         0.0666    3.8694    0.0207 C.ar      1 <0>         0.1754
     13 O2          1.1884    3.1174    0.0066 O.3       1 <0>        -0.2163
     14 C12         0.1415    5.2535    0.0260 C.ar      1 <0>        -0.1841
     15 C13        -1.0179    6.0122    0.0398 C.ar      1 <0>         0.1852
     16 C14        -2.2693    5.3961    0.0484 C.ar      1 <0>         0.0156
     17 C15        -2.3623    4.0122    0.0437 C.ar      1 <0>         0.2067
     18 O3         -3.5789    3.4076    0.0520 O.3       1 <0>        -0.4630
     19 N1         -3.4363    6.1779    0.0622 N.pl3     1 <0>        -0.9005
     20 O4         -0.9350    7.3681    0.0449 O.3       1 <0>        -0.4900
     21 H1          5.7523   -0.9086   -0.0549 H         1 <0>         0.1296
     22 H2          5.7697    1.5512   -0.0435 H         1 <0>         0.1316
     23 H3          3.6516    2.8009   -0.0183 H         1 <0>         0.1353
     24 H4          1.4893   -0.9044   -0.0057 H         1 <0>         0.1357
     25 H5          3.6191   -2.1338   -0.0404 H         1 <0>         0.1335
     26 H6          0.0021   -0.0041    0.0020 H         1 <0>         0.1601
     27 H7          1.1051    5.7413    0.0191 H         1 <0>         0.1504
     28 H8         -4.4953    4.0159    0.0629 H         1 <0>         0.4176
     29 H9         -4.4234    5.6925    0.0690 H         1 <0>         0.4135
     30 H10        -3.3630    7.2754    0.0662 H         1 <0>         0.4117
     31 H11        -1.8522    7.9752    0.0558 H         1 <0>         0.4261
@<TRIPOS>BOND
     1    1    6 ar
     2    1    2 ar
     3    1   21 1
     4    2    3 ar
     5    2   22 1
     6    3    4 ar
     7    3   23 1
     8    4    5 ar
     9    4    7 1
    10    5    6 ar
    11    5   24 1
    12    6   25 1
    13    7   13 1
    14    7    8 2
    15    8    9 1
    16    8   26 1
    17    9   10 2
    18    9   11 1
    19   11   17 ar
    20   11   12 ar
    21   12   13 1
    22   12   14 ar
    23   14   15 ar
    24   14   27 1
    25   15   16 ar
    26   15   20 1
    27   16   17 ar
    28   16   19 1
    29   17   18 1
    30   18   28 1
    31   19   29 1
    32   19   30 1
    33   20   31 1
@<TRIPOS>MOLECULE
ZINC03794714
   25    25     0     0     0
SMALL
USER_CHARGES

@<TRIPOS>ATOM
      1 C1         -0.0178    1.4636    0.0101 C.3       1 <0>        -0.0466
      2 C2          1.4163    1.9970   -0.0007 C.3       1 <0>         0.0566
      3 H1          1.9452    1.6372    0.8818 H         1 <0>         0.0917
      4 C3          2.1299    1.5015   -1.2619 C.3       1 <0>         0.0695
      5 H2          1.6316    1.9031   -2.1442 H         1 <0>         0.0909
      6 C4          2.0795   -0.0286   -1.2972 C.3       1 <0>         0.1094
      7 H3          2.6221   -0.4305   -0.4415 H         1 <0>         0.0913
      8 C5          0.6208   -0.4870   -1.2383 C.3       1 <0>         0.0351
      9 H4          0.0792   -0.0848   -2.0945 H         1 <0>         0.1577
     10 N1          0.0021   -0.0041    0.0020 N.4       1 <0>        -0.4918
     11 C6          0.5654   -2.0156   -1.2729 C.3       1 <0>         0.0570
     12 O1         -0.7972   -2.4415   -1.3354 O.3       1 <0>        -0.5813
     13 O2          2.6797   -0.4981   -2.5061 O.3       1 <0>        -0.5386
     14 O3          3.4911    1.9360   -1.2427 O.3       1 <0>        -0.5488
     15 O4          1.3941    3.4258    0.0058 O.3       1 <0>        -0.5365
     16 H5         -0.5288    1.8147    0.9066 H         1 <0>         0.1451
     17 H6         -0.5458    1.8242   -0.8727 H         1 <0>         0.1438
     18 H7          0.5329   -0.3366    0.7931 H         1 <0>         0.4276
     19 H8          1.1002   -2.3788   -2.1504 H         1 <0>         0.1086
     20 H9          1.0304   -2.4165   -0.3722 H         1 <0>         0.0746
     21 H10        -0.9084   -3.4018   -1.3601 H         1 <0>         0.4135
     22 H11         3.6059   -0.2409   -2.6111 H         1 <0>         0.4148
     23 H12         3.5970    2.8968   -1.2145 H         1 <0>         0.4074
     24 H13         0.9534    3.8088    0.7767 H         1 <0>         0.4013
     25 H14        -0.9428   -0.3526    0.0632 H         1 <0>         0.4478
@<TRIPOS>BOND
     1    1   10 1
     2    1    2 1
     3    1   16 1
     4    1   17 1
     5    2    3 1
     6    2    4 1
     7    2   15 1
     8    4    5 1
     9    4    6 1
    10    4   14 1
    11    6    7 1
    12    6    8 1
    13    6   13 1
    14    8    9 1
    15    8   10 1
    16    8   11 1
    17   10   18 1
    18   10   25 1
    19   11   12 1
    20   11   19 1
    21   11   20 1
    22   12   21 1
    23   13   22 1
    24   14   23 1
    25   15   24 1
@<TRIPOS>MOLECULE
ZINC01680023
   16    16     0     0     0
SMALL
USER_CHARGES
2-aminobenzene-1,3-diol
@<TRIPOS>ATOM
      1 C1         -3.6555    3.0044    0.0367 C.ar      1 <0>        -0.1487
      2 C2         -3.6392    1.6220    0.0286 C.ar      1 <0>        -0.1016
      3 C3         -2.4319    0.9409    0.0187 C.ar      1 <0>         0.0336
      4 C4         -1.2354    1.6507    0.0169 C.ar      1 <0>         0.1723
      5 C5         -1.2567    3.0416    0.0304 C.ar      1 <0>         0.0336
      6 C6         -2.4690    3.7140    0.0349 C.ar      1 <0>        -0.1017
      7 O1         -0.0900    3.7408    0.0339 O.3       1 <0>        -0.4917
      8 N1         -0.0111    0.9658    0.0074 N.pl3     1 <0>        -0.8666
      9 O2         -2.4171   -0.4192    0.0103 O.3       1 <0>        -0.4919
     10 H1         -4.5980    3.5316    0.0447 H         1 <0>         0.1300
     11 H2         -4.5686    1.0718    0.0297 H         1 <0>         0.1315
     12 H3         -2.4865    4.7939    0.0409 H         1 <0>         0.1315
     13 H4          0.2450    3.9515   -0.8485 H         1 <0>         0.3823
     14 H5          0.0021   -0.0041    0.0020 H         1 <0>         0.4025
     15 H6          0.8223    1.4622    0.0021 H         1 <0>         0.4024
     16 H7         -2.4083   -0.8178    0.8913 H         1 <0>         0.3825
@<TRIPOS>BOND
     1    1    6 ar
     2    1    2 ar
     3    1   10 1
     4    2    3 ar
     5    2   11 1
     6    3    4 ar
     7    3    9 1
     8    4    5 ar
     9    4    8 1
    10    5    6 ar
    11    5    7 1
    12    6   12 1
    13    7   13 1
    14    8   14 1
    15    8   15 1
    16    9   16 1
@<TRIPOS>MOLECULE
ZINC00899007
   25    25     0     0     0
SMALL
USER_CHARGES
2,5-bis(hydroxymethyl)pyrrolidine-3,4-diol
@<TRIPOS>ATOM
      1 C1         -0.7739    1.6005    1.2314 C.3       1 <0>         0.0600
      2 C2         -0.0127    1.0858    0.0080 C.3       1 <0>         0.0346
      3 H1          0.0021   -0.0041    0.0020 H         1 <0>         0.1602
      4 C3         -0.6547    1.6236   -1.2951 C.3       1 <0>         0.0637
      5 H2         -0.9939    2.6517   -1.1679 H         1 <0>         0.1097
      6 C4          0.5374    1.5502   -2.2853 C.3       1 <0>         0.0650
      7 H3          0.6401    0.5454   -2.6951 H         1 <0>         0.1110
      8 C5          1.7490    1.9038   -1.3974 C.3       1 <0>         0.0330
      9 H4          1.9931    2.9605   -1.5069 H         1 <0>         0.1616
     10 C6          2.9545    1.0479   -1.7911 C.3       1 <0>         0.0567
     11 O1          4.0951    1.4535   -1.0318 O.3       1 <0>        -0.5764
     12 O2          0.3828    2.5083   -3.3341 O.3       1 <0>        -0.5399
     13 O3         -1.7277    0.7820   -1.7224 O.3       1 <0>        -0.5362
     14 O4         -0.2137    1.0298    2.4157 O.3       1 <0>        -0.5763
     15 H5         -0.6941    2.6865    1.2786 H         1 <0>         0.0746
     16 H6         -1.8232    1.3163    1.1524 H         1 <0>         0.1019
     17 H7          2.7373   -0.0008   -1.5884 H         1 <0>         0.0754
     18 H8          3.1606    1.1774   -2.8536 H         1 <0>         0.1003
     19 H9          4.8980    0.9524   -1.2298 H         1 <0>         0.4123
     20 H10        -0.3652    2.3317   -3.9211 H         1 <0>         0.4063
     21 H11        -2.1606    1.0785   -2.5346 H         1 <0>         0.4067
     22 H12        -0.6481    1.3126    3.2320 H         1 <0>         0.4114
     23 N1          1.3625    1.6184   -0.0074 N.4       1 <0>        -0.5020
     24 H13         2.0049    0.9248    0.3932 H         1 <0>         0.4466
     25 H14         1.4033    2.4824    0.5458 H         1 <0>         0.4400
@<TRIPOS>BOND
     1    1    2 1
     2    1   14 1
     3    1   15 1
     4    1   16 1
     5    2    3 1
     6    2    4 1
     7    2   23 1
     8    4    5 1
     9    4    6 1
    10    4   13 1
    11    6    7 1
    12    6    8 1
    13    6   12 1
    14    8    9 1
    15    8   10 1
    16    8   23 1
    17   10   11 1
    18   10   17 1
    19   10   18 1
    20   11   19 1
    21   12   20 1
    22   13   21 1
    23   14   22 1
    24   23   24 1
    25   23   25 1
@<TRIPOS>MOLECULE
ZINC01492251
   21    21     0     0     0
SMALL
USER_CHARGES
(2S,3S,4S)-2-(hydroxymethyl)pyrrolidine-3,4-diol
@<TRIPOS>ATOM
      1 C1          1.7959    1.5130   -1.4221 C.3       1 <0>        -0.0400
      2 C2          0.5419    1.9038   -2.2334 C.3       1 <0>         0.0474
      3 H1          0.4676    1.2931   -3.1331 H         1 <0>         0.1166
      4 C3         -0.6478    1.6228   -1.2926 C.3       1 <0>         0.0985
      5 H2         -1.1984    2.5422   -1.0935 H         1 <0>         0.1102
      6 C4         -0.0127    1.0858    0.0080 C.3       1 <0>         0.0382
      7 H3          0.0021   -0.0041    0.0020 H         1 <0>         0.1617
      8 C5         -0.7758    1.6013    1.2299 C.3       1 <0>         0.0618
      9 O1         -0.2178    1.0310    2.4154 O.3       1 <0>        -0.5770
     10 O2         -1.5122    0.6397   -1.8655 O.3       1 <0>        -0.5402
     11 O3          0.5858    3.2900   -2.5777 O.3       1 <0>        -0.5505
     12 H4          2.6133    2.2035   -1.6295 H         1 <0>         0.1480
     13 H5          2.0957    0.4904   -1.6513 H         1 <0>         0.1462
     14 H6         -0.6957    2.6873    1.2767 H         1 <0>         0.0755
     15 H7         -1.8251    1.3175    1.1493 H         1 <0>         0.1009
     16 H8         -0.6535    1.3144    3.2308 H         1 <0>         0.4118
     17 H9         -1.9398    0.9219   -2.6857 H         1 <0>         0.4096
     18 H10         1.3396    3.5340   -3.1320 H         1 <0>         0.4027
     19 N1          1.3532    1.6099   -0.0304 N.4       1 <0>        -0.5032
     20 H11         1.3664    2.5889    0.2787 H         1 <0>         0.4362
     21 H12         1.9648    1.0511    0.5762 H         1 <0>         0.4456
@<TRIPOS>BOND
     1    1    2 1
     2    1   12 1
     3    1   13 1
     4    1   19 1
     5    2    3 1
     6    2    4 1
     7    2   11 1
     8    4    5 1
     9    4    6 1
    10    4   10 1
    11    6    7 1
    12    6    8 1
    13    6   19 1
    14    8    9 1
    15    8   14 1
    16    8   15 1
    17    9   16 1
    18   10   17 1
    19   11   18 1
    20   19   20 1
    21   19   21 1
@<TRIPOS>MOLECULE
ZINC13601808
   24    24     0     0     0
SMALL
USER_CHARGES
(2R,3R,4S)-2-(hydroxymethyl)piperidine-3,4-diol
@<TRIPOS>ATOM
      1 C1         -3.5450   -2.1286   -1.1647 C.3       1 <0>        -0.1820
      2 C2         -3.5034   -0.6009   -1.2450 C.3       1 <0>        -0.0019
      3 C3         -1.4333   -0.5336    0.0129 C.3       1 <0>         0.0420
      4 H1         -1.9700   -0.1108    0.8622 H         1 <0>         0.1588
      5 C4         -1.4130   -2.0593    0.1308 C.3       1 <0>         0.1082
      6 H2         -0.8648   -2.4821   -0.7111 H         1 <0>         0.0927
      7 C5         -2.8507   -2.5863    0.1210 C.3       1 <0>         0.0582
      8 H3         -2.8397   -3.6754    0.1623 H         1 <0>         0.0909
      9 O1         -3.5553   -2.0726    1.2531 O.3       1 <0>        -0.5518
     10 O2         -0.7747   -2.4350    1.3529 O.3       1 <0>        -0.5374
     11 C6          0.0021   -0.0041    0.0020 C.3       1 <0>         0.0543
     12 O3         -0.0173    1.4248    0.0099 O.3       1 <0>        -0.5810
     13 H4         -3.0302   -2.5525   -2.0269 H         1 <0>         0.1009
     14 H5         -4.5817   -2.4652   -1.1580 H         1 <0>         0.1210
     15 H6         -3.9844   -0.2725   -2.1664 H         1 <0>         0.1377
     16 H7         -4.0303   -0.1778   -0.3897 H         1 <0>         0.1370
     17 H8         -4.4748   -2.3663    1.3106 H         1 <0>         0.3948
     18 H9         -0.7264   -3.3904    1.4939 H         1 <0>         0.4049
     19 H10         0.5123   -0.3556   -0.8948 H         1 <0>         0.0701
     20 H11         0.5293   -0.3651    0.8851 H         1 <0>         0.1040
     21 H12         0.8606    1.8301    0.0037 H         1 <0>         0.4108
     22 N1         -2.1017   -0.1408   -1.2423 N.4       1 <0>        -0.5070
     23 H13        -2.0813    0.8820   -1.3306 H         1 <0>         0.4479
     24 H14        -1.6057   -0.5628   -2.0361 H         1 <0>         0.4269
@<TRIPOS>BOND
     1    1    7 1
     2    1    2 1
     3    1   13 1
     4    1   14 1
     5    2   15 1
     6    2   16 1
     7    2   22 1
     8    3    4 1
     9    3    5 1
    10    3   11 1
    11    3   22 1
    12    5    6 1
    13    5    7 1
    14    5   10 1
    15    7    8 1
    16    7    9 1
    17    9   17 1
    18   10   18 1
    19   11   12 1
    20   11   19 1
    21   11   20 1
    22   12   21 1
    23   22   23 1
    24   22   24 1
@<TRIPOS>MOLECULE
ZINC03788703
   40    40     0     0     0
SMALL
USER_CHARGES

@<TRIPOS>ATOM
      1 C1         -0.0919    1.7492    0.0029 C.3       1 <0>        -0.1355
      2 C2          1.3788    2.1706    0.0206 C.3       1 <0>         0.0429
      3 H1          1.4459    3.2577   -0.0226 H         1 <0>         0.1550
      4 C3          2.0374    1.6697    1.3076 C.3       1 <0>         0.0981
      5 H2          1.5259    2.0998    2.1686 H         1 <0>         0.1093
      6 C4          1.9433    0.1438    1.3682 C.3       1 <0>         0.0321
      7 H3          2.4549   -0.2862    0.5071 H         1 <0>         0.0699
      8 C5          0.4726   -0.2775    1.3505 C.3       1 <0>         0.0497
      9 H4         -0.0389    0.1525    2.2116 H         1 <0>         0.0857
     10 C6         -0.1860    0.2233    0.0635 C.3       1 <0>         0.1388
     11 C7         -1.6567   -0.1980    0.0459 C.3       1 <0>         0.0541
     12 O1         -1.7488   -1.6135    0.2195 O.3       1 <0>        -0.5485
     13 O2          0.4846   -0.3405   -1.0654 O.3       1 <0>        -0.5774
     14 O3          0.3847   -1.7027    1.4071 O.3       1 <0>        -0.5272
     15 O4          2.5584   -0.3240    2.5702 O.3       1 <0>        -0.5499
     16 O5          3.4111    2.0633    1.3241 O.3       1 <0>        -0.5596
     17 N1          2.0682    1.5910   -1.1399 N.4       1 <0>        -0.4912
     18 C8          1.4490    2.0880   -2.3758 C.3       1 <0>         0.0377
     19 C9          1.6824    3.5956   -2.4927 C.3       1 <0>         0.0531
     20 O6          3.0839    3.8537   -2.5992 O.3       1 <0>        -0.5479
     21 C10         2.0740    1.3803   -3.5798 C.3       1 <0>         0.0594
     22 O7          3.4542    1.7372   -3.6784 O.3       1 <0>        -0.5522
     23 H5         -0.6034    2.1793    0.8640 H         1 <0>         0.1360
     24 H6         -0.5611    2.1060   -0.9139 H         1 <0>         0.1168
     25 H7         -2.1879    0.3027    0.8554 H         1 <0>         0.0621
     26 H8         -2.1031    0.0807   -0.9087 H         1 <0>         0.0632
     27 H9         -2.6547   -1.9517    0.2186 H         1 <0>         0.3898
     28 H10         0.4650   -1.3069   -1.0922 H         1 <0>         0.4203
     29 H11         0.7831   -2.0902    2.1985 H         1 <0>         0.3835
     30 H12         2.5357   -1.2849    2.6754 H         1 <0>         0.3957
     31 H13         3.9107    1.7160    2.0756 H         1 <0>         0.4134
     32 H14         3.0413    1.8573   -1.1206 H         1 <0>         0.4406
     33 H15         0.3780    1.8869   -2.3519 H         1 <0>         0.1560
     34 H16         1.1748    3.9741   -3.3800 H         1 <0>         0.0879
     35 H17         1.2873    4.0941   -1.6076 H         1 <0>         0.0637
     36 H18         3.3062    4.7916   -2.6768 H         1 <0>         0.3971
     37 H19         1.9859    0.3013   -3.4529 H         1 <0>         0.0696
     38 H20         1.5546    1.6828   -4.4890 H         1 <0>         0.0874
     39 H21         3.9152    1.3240   -4.4213 H         1 <0>         0.3964
     40 H22         1.9940    0.5853   -1.1074 H         1 <0>         0.4246
@<TRIPOS>BOND
     1    1   10 1
     2    1    2 1
     3    1   23 1
     4    1   24 1
     5    2    3 1
     6    2    4 1
     7    2   17 1
     8    4    5 1
     9    4    6 1
    10    4   16 1
    11    6    7 1
    12    6    8 1
    13    6   15 1
    14    8    9 1
    15    8   10 1
    16    8   14 1
    17   10   11 1
    18   10   13 1
    19   11   12 1
    20   11   25 1
    21   11   26 1
    22   12   27 1
    23   13   28 1
    24   14   29 1
    25   15   30 1
    26   16   31 1
    27   17   18 1
    28   17   32 1
    29   17   40 1
    30   18   19 1
    31   18   21 1
    32   18   33 1
    33   19   20 1
    34   19   34 1
    35   19   35 1
    36   20   36 1
    37   21   22 1
    38   21   37 1
    39   21   38 1
    40   22   39 1
@<TRIPOS>MOLECULE
ZINC05131852
   29    29     0     0     0
SMALL
USER_CHARGES
2,6-bis(hydroxymethyl)piperidine-3,4,5-triol
@<TRIPOS>ATOM
      1 C1         -0.0707   -0.4444   -2.4062 C.3       1 <0>         0.0507
      2 C2         -0.0919    1.0854   -2.4140 C.3       1 <0>         0.0469
      3 H1         -0.6593    1.4364   -3.2760 H         1 <0>         0.1570
      4 C3          1.3415    1.6149   -2.4971 C.3       1 <0>         0.0643
      5 H2          1.8155    1.2408   -3.4046 H         1 <0>         0.1052
      6 C4          2.1290    1.1362   -1.2744 C.3       1 <0>         0.0293
      7 C5          1.4231    1.6153   -0.0029 C.3       1 <0>         0.1043
      8 H3          1.9555    1.2415    0.8718 H         1 <0>         0.1094
      9 C6         -0.0127    1.0858    0.0080 C.3       1 <0>         0.0447
     10 H4          0.0021   -0.0041    0.0020 H         1 <0>         0.1533
     11 C7         -0.7284    1.5790    1.2671 C.3       1 <0>         0.0574
     12 O1         -2.0290    0.9910    1.3370 O.3       1 <0>        -0.5796
     13 O2          1.4050    3.0440    0.0233 O.3       1 <0>        -0.5491
     14 O3          3.4521    1.6744   -1.3177 O.3       1 <0>        -0.5481
     15 O4          1.3225    3.0436   -2.5230 O.3       1 <0>        -0.5450
     16 O5         -1.4105   -0.9396   -2.4461 O.3       1 <0>        -0.5704
     17 H5          0.4759   -0.8046   -3.2777 H         1 <0>         0.0974
     18 H6          0.4199   -0.7963   -1.4987 H         1 <0>         0.0716
     19 H7          2.1785    0.0473   -1.2752 H         1 <0>         0.0893
     20 H8         -0.1528    1.2935    2.1476 H         1 <0>         0.0946
     21 H9         -0.8219    2.6644    1.2304 H         1 <0>         0.0841
     22 H10        -2.5410    1.2598    2.1121 H         1 <0>         0.4114
     23 H11         2.2832    3.4486    0.0181 H         1 <0>         0.4097
     24 H12         3.9583    1.4113   -2.0985 H         1 <0>         0.4007
     25 H13         2.1995    3.4478   -2.5726 H         1 <0>         0.4070
     26 H14        -1.4734   -1.9046   -2.4436 H         1 <0>         0.4123
     27 N1         -0.7339    1.5791   -1.1808 N.4       1 <0>        -0.5003
     28 H15        -1.7051    1.2474   -1.1490 H         1 <0>         0.4466
     29 H16        -0.7227    2.6058   -1.1813 H         1 <0>         0.4456
@<TRIPOS>BOND
     1    1    2 1
     2    1   16 1
     3    1   17 1
     4    1   18 1
     5    2    3 1
     6    2    4 1
     7    2   27 1
     8    4    5 1
     9    4    6 1
    10    4   15 1
    11    6    7 1
    12    6   14 1
    13    6   19 1
    14    7    8 1
    15    7    9 1
    16    7   13 1
    17    9   10 1
    18    9   11 1
    19    9   27 1
    20   11   12 1
    21   11   20 1
    22   11   21 1
    23   12   22 1
    24   13   23 1
    25   14   24 1
    26   15   25 1
    27   16   26 1
    28   27   28 1
    29   27   29 1
@<TRIPOS>MOLECULE
ZINC03795332
   28    28     0     0     0
SMALL
USER_CHARGES
2-(hydroxymethyl)-1-methyl-piperidine-3,4,5-triol
@<TRIPOS>ATOM
      1 C1          4.2144    1.1727   -2.1735 C.3       1 <0>        -0.0442
      2 C2          2.0526    1.1150   -1.0854 C.3       1 <0>        -0.0415
      3 C3          1.2504    1.6650    0.0961 C.3       1 <0>         0.0559
      4 H1          1.7824    1.4599    1.0250 H         1 <0>         0.0907
      5 C4          1.0772    3.1772   -0.0706 C.3       1 <0>         0.0682
      6 H2          0.5107    3.3810   -0.9793 H         1 <0>         0.0869
      7 C5          2.4572    3.8331   -0.1701 C.3       1 <0>         0.1102
      8 H3          3.0089    3.6621    0.7543 H         1 <0>         0.0966
      9 C6          3.2245    3.2203   -1.3439 C.3       1 <0>         0.0409
     10 H4          2.6792    3.4036   -2.2696 H         1 <0>         0.1584
     11 C7          4.6121    3.8584   -1.4347 C.3       1 <0>         0.0560
     12 O1          5.2926    3.6981   -0.1884 O.3       1 <0>        -0.5796
     13 O2          2.3036    5.2381   -0.3811 O.3       1 <0>        -0.5401
     14 O3          0.3778    3.7051    1.0582 O.3       1 <0>        -0.5485
     15 O4         -0.0337    1.0390    0.1335 O.3       1 <0>        -0.5374
     16 H5          5.2344    1.5417   -2.0657 H         1 <0>         0.1275
     17 H6          4.2072    0.0881   -2.0660 H         1 <0>         0.1286
     18 H7          3.8324    1.4429   -3.1580 H         1 <0>         0.1271
     19 H8          2.1900    0.0407   -0.9624 H         1 <0>         0.1396
     20 H9          1.5128    1.3082   -2.0124 H         1 <0>         0.1421
     21 H10         5.1840    3.3736   -2.2259 H         1 <0>         0.0778
     22 H11         4.5097    4.9202   -1.6588 H         1 <0>         0.1041
     23 H12         6.1809    4.0799   -0.1733 H         1 <0>         0.4111
     24 H13         1.8227    5.6915    0.3247 H         1 <0>         0.4123
     25 H14        -0.5043    3.3297    1.1851 H         1 <0>         0.4052
     26 H15         0.0000    0.0782    0.2377 H         1 <0>         0.4000
     27 N1          3.3786    1.7686   -1.1108 N.4       1 <0>        -0.3849
     28 H16         3.8386    1.6239   -0.2043 H         1 <0>         0.4370
@<TRIPOS>BOND
     1    1   16 1
     2    1   17 1
     3    1   18 1
     4    1   27 1
     5    2    3 1
     6    2   19 1
     7    2   20 1
     8    2   27 1
     9    3    4 1
    10    3    5 1
    11    3   15 1
    12    5    6 1
    13    5    7 1
    14    5   14 1
    15    7    8 1
    16    7    9 1
    17    7   13 1
    18    9   10 1
    19    9   11 1
    20    9   27 1
    21   11   12 1
    22   11   21 1
    23   11   22 1
    24   12   23 1
    25   13   24 1
    26   14   25 1
    27   15   26 1
    28   27   28 1
@<TRIPOS>MOLECULE
ZINC01492250
   21    21     0     0     0
SMALL
USER_CHARGES

@<TRIPOS>ATOM
      1 C1         -0.0181    1.4814    0.0102 C.3       1 <0>        -0.0360
      2 C2          1.4704    1.8907   -0.0018 C.3       1 <0>         0.0487
      3 H1          1.6139    2.7789   -0.6172 H         1 <0>         0.1181
      4 C3          2.2123    0.6866   -0.6178 C.3       1 <0>         0.1006
      5 H2          2.9273    0.2771    0.0957 H         1 <0>         0.1105
      6 C4          1.1096   -0.3490   -0.9261 C.3       1 <0>         0.0419
      7 H3          0.7806   -0.2572   -1.9612 H         1 <0>         0.1632
      8 N1          0.0021   -0.0041    0.0020 N.4       1 <0>        -0.5084
      9 C5          1.6169   -1.7662   -0.6523 C.3       1 <0>         0.0591
     10 O1          0.6246   -2.7131   -1.0532 O.3       1 <0>        -0.5766
     11 O2          2.8797    1.0767   -1.8196 O.3       1 <0>        -0.5400
     12 O3          1.9299    2.1310    1.3298 O.3       1 <0>        -0.5502
     13 H4         -0.5064    1.8500    0.9123 H         1 <0>         0.1450
     14 H5         -0.5235    1.8596   -0.8784 H         1 <0>         0.1478
     15 H6          0.1931   -0.3595    0.9268 H         1 <0>         0.4333
     16 H7          2.5333   -1.9394   -1.2164 H         1 <0>         0.1010
     17 H8          1.8188   -1.8804    0.4128 H         1 <0>         0.0752
     18 H9          0.8790   -3.6347   -0.9082 H         1 <0>         0.4115
     19 H10         3.5534    1.7585   -1.6919 H         1 <0>         0.4100
     20 H11         1.4670    2.8496    1.7819 H         1 <0>         0.4029
     21 H12        -0.8738   -0.3670   -0.3434 H         1 <0>         0.4424
@<TRIPOS>BOND
     1    1    8 1
     2    1    2 1
     3    1   13 1
     4    1   14 1
     5    2    3 1
     6    2    4 1
     7    2   12 1
     8    4    5 1
     9    4    6 1
    10    4   11 1
    11    6    7 1
    12    6    8 1
    13    6    9 1
    14    8   15 1
    15    8   21 1
    16    9   10 1
    17    9   16 1
    18    9   17 1
    19   10   18 1
    20   11   19 1
    21   12   20 1
