@<TRIPOS>MOLECULE
ZINC14966687
   37    38     0     0     0
SMALL
USER_CHARGES
(1R)-2-(benzylamino)-1-[3-(trifluoromethyl)phenyl]ethanol
@<TRIPOS>ATOM
      1 C1         -0.3736   12.1051    2.7574 C.ar      1 <0>        -0.1195
      2 C2         -1.5590   11.3984    2.6786 C.ar      1 <0>        -0.1204
      3 C3         -1.5431   10.0165    2.7077 C.ar      1 <0>        -0.1138
      4 C4         -0.3418    9.3412    2.8162 C.ar      1 <0>        -0.0817
      5 C5          0.8432   10.0480    2.9008 C.ar      1 <0>        -0.0988
      6 C6          0.8277   11.4298    2.8659 C.ar      1 <0>        -0.1212
      7 C7         -0.3245    7.8347    2.8485 C.3       1 <0>         0.0875
      8 N1         -0.2102    7.3168    1.4785 N.3       1 <0>        -0.6641
      9 C8         -0.1902    5.8480    1.4709 C.3       1 <0>         0.0621
     10 C9         -0.0705    5.3471    0.0302 C.3       1 <0>         0.1643
     11 H1          0.8266    5.7461   -0.4658 H         1 <0>         0.0739
     12 C10        -0.0501    3.8402    0.0223 C.ar      1 <0>        -0.1271
     13 C11        -1.2379    3.1327    0.0290 C.ar      1 <0>        -0.0672
     14 C12        -1.2192    1.7508    0.0173 C.ar      1 <0>        -0.1207
     15 C13        -0.0126    1.0758    0.0080 C.ar      1 <0>        -0.0695
     16 C14         1.1748    1.7831    0.0004 C.ar      1 <0>        -0.1827
     17 C15         1.1561    3.1655    0.0081 C.ar      1 <0>        -0.0587
     18 C16         2.4900    1.0474   -0.0156 C.3       1 <0>         0.5080
     19 F1          2.2530   -0.3313   -0.0204 F         1 <0>        -0.1763
     20 F2          3.2082    1.4012   -1.1629 F         1 <0>        -0.1756
     21 F3          3.2296    1.3896    1.1215 F         1 <0>        -0.1756
     22 O1         -1.1874    5.8122   -0.7302 O.3       1 <0>        -0.5915
     23 H2         -0.3859   13.1848    2.7339 H         1 <0>         0.1213
     24 H3         -2.4976   11.9260    2.5938 H         1 <0>         0.1216
     25 H4         -2.4693    9.4644    2.6461 H         1 <0>         0.1185
     26 H5          1.7814    9.5205    2.9900 H         1 <0>         0.1216
     27 H6          1.7539   11.9819    2.9272 H         1 <0>         0.1220
     28 H7          0.5343    7.4906    3.4434 H         1 <0>         0.0804
     29 H8         -1.2563    7.4669    3.3030 H         1 <0>         0.0404
     30 H9         -1.0691    7.6609    0.8836 H         1 <0>         0.3535
     31 H10         0.6696    5.4900    2.0562 H         1 <0>         0.0860
     32 H11        -1.1210    5.4663    1.9157 H         1 <0>         0.0407
     33 H12        -2.1804    3.6599    0.0397 H         1 <0>         0.1378
     34 H13        -2.1471    1.1981    0.0187 H         1 <0>         0.1372
     35 H14         0.0021   -0.0041    0.0020 H         1 <0>         0.1397
     36 H15         2.0840    3.7182    0.0025 H         1 <0>         0.1349
     37 H16        -1.2750    5.5508   -1.7951 H         1 <0>         0.4131
@<TRIPOS>BOND
     1    1    6 ar
     2    1    2 ar
     3    1   23 1
     4    2    3 ar
     5    2   24 1
     6    3    4 ar
     7    3   25 1
     8    4    5 ar
     9    4    7 1
    10    5    6 ar
    11    5   26 1
    12    6   27 1
    13    7    8 1
    14    7   28 1
    15    7   29 1
    16    8    9 1
    17    8   30 1
    18    9   10 1
    19    9   31 1
    20    9   32 1
    21   10   11 1
    22   10   12 1
    23   10   22 1
    24   12   17 ar
    25   12   13 ar
    26   13   14 ar
    27   13   33 1
    28   14   15 ar
    29   14   34 1
    30   15   16 ar
    31   15   35 1
    32   16   17 ar
    33   16   18 1
    34   17   36 1
    35   18   19 1
    36   18   20 1
    37   18   21 1
    38   22   37 1
@<TRIPOS>MOLECULE
ZINC14966691
   37    38     0     0     0
SMALL
USER_CHARGES
(1S)-2-(benzylamino)-1-[3-(trifluoromethyl)phenyl]ethanol
@<TRIPOS>ATOM
      1 C1         -0.1875   12.1171   -2.6805 C.ar      1 <0>        -0.1193
      2 C2          0.9296   11.3467   -2.9442 C.ar      1 <0>        -0.1209
      3 C3          0.8292    9.9682   -2.9650 C.ar      1 <0>        -0.1152
      4 C4         -0.3883    9.3601   -2.7227 C.ar      1 <0>        -0.0818
      5 C5         -1.5066   10.1307   -2.4647 C.ar      1 <0>        -0.0968
      6 C6         -1.4051   11.5090   -2.4387 C.ar      1 <0>        -0.1209
      7 C7         -0.4978    7.8572   -2.7459 C.3       1 <0>         0.0880
      8 N1         -0.2430    7.3269   -1.3999 N.3       1 <0>        -0.6545
      9 C8         -0.3415    5.8613   -1.3842 C.3       1 <0>         0.0594
     10 C9         -0.0705    5.3471    0.0311 C.3       1 <0>         0.1656
     11 H1          0.8742    5.7419    0.4333 H         1 <0>         0.0638
     12 C10        -0.0501    3.8402    0.0228 C.ar      1 <0>        -0.1284
     13 C11        -1.2379    3.1327    0.0299 C.ar      1 <0>        -0.0641
     14 C12        -1.2192    1.7508    0.0173 C.ar      1 <0>        -0.1204
     15 C13        -0.0126    1.0758    0.0080 C.ar      1 <0>        -0.0690
     16 C14         1.1748    1.7831    0.0004 C.ar      1 <0>        -0.1834
     17 C15         1.1561    3.1655    0.0076 C.ar      1 <0>        -0.0602
     18 C16         2.4900    1.0474   -0.0161 C.3       1 <0>         0.5081
     19 F1          2.2530   -0.3313   -0.0213 F         1 <0>        -0.1761
     20 F2          3.2080    1.4015   -1.1634 F         1 <0>        -0.1761
     21 F3          3.2298    1.3892    1.1210 F         1 <0>        -0.1758
     22 O1         -1.1006    5.8046    0.9095 O.3       1 <0>        -0.5743
     23 H2         -0.1090   13.1942   -2.6639 H         1 <0>         0.1213
     24 H3          1.8808   11.8218   -3.1335 H         1 <0>         0.1215
     25 H4          1.7019    9.3663   -3.1710 H         1 <0>         0.1181
     26 H5         -2.4587    9.6557   -2.2797 H         1 <0>         0.1220
     27 H6         -2.2780   12.1110   -2.2331 H         1 <0>         0.1222
     28 H7         -1.5089    7.5682   -3.0686 H         1 <0>         0.0817
     29 H8          0.2426    7.4464   -3.4481 H         1 <0>         0.0402
     30 H9          0.7681    7.6159   -1.0773 H         1 <0>         0.3385
     31 H10        -1.3515    5.5583   -1.6973 H         1 <0>         0.0836
     32 H11         0.3999    5.4365   -2.0769 H         1 <0>         0.0480
     33 H12        -2.1804    3.6599    0.0414 H         1 <0>         0.1388
     34 H13        -2.1471    1.1981    0.0187 H         1 <0>         0.1378
     35 H14         0.0021   -0.0041    0.0020 H         1 <0>         0.1398
     36 H15         2.0839    3.7182    0.0017 H         1 <0>         0.1332
     37 H16        -1.0753    5.5333    1.9752 H         1 <0>         0.4058
@<TRIPOS>BOND
     1    1    6 ar
     2    1    2 ar
     3    1   23 1
     4    2    3 ar
     5    2   24 1
     6    3    4 ar
     7    3   25 1
     8    4    5 ar
     9    4    7 1
    10    5    6 ar
    11    5   26 1
    12    6   27 1
    13    7    8 1
    14    7   28 1
    15    7   29 1
    16    8    9 1
    17    8   30 1
    18    9   10 1
    19    9   31 1
    20    9   32 1
    21   10   11 1
    22   10   12 1
    23   10   22 1
    24   12   17 ar
    25   12   13 ar
    26   13   14 ar
    27   13   33 1
    28   14   15 ar
    29   14   34 1
    30   15   16 ar
    31   15   35 1
    32   16   17 ar
    33   16   18 1
    34   17   36 1
    35   18   19 1
    36   18   20 1
    37   18   21 1
    38   22   37 1
@<TRIPOS>MOLECULE
ZINC14966758
   38    39     0     0     0
SMALL
USER_CHARGES
(1S)-1-(3-bromophenyl)-2-[(2-methoxyphenyl)methylamino]ethanol
@<TRIPOS>ATOM
      1 C1          0.3706    5.0906   -3.8681 C.3       1 <0>         0.0241
      2 O1          0.2300    3.7572   -3.3737 O.3       1 <0>        -0.3186
      3 C2         -0.6327    2.9417   -4.0352 C.ar      1 <0>         0.1311
      4 C3         -1.3294    3.4150   -5.1378 C.ar      1 <0>        -0.2086
      5 C4         -2.2053    2.5841   -5.8087 C.ar      1 <0>        -0.0804
      6 C5         -2.3882    1.2814   -5.3823 C.ar      1 <0>        -0.1560
      7 C6         -1.6913    0.8058   -4.2871 C.ar      1 <0>        -0.0635
      8 C7         -0.8179    1.6346   -3.6094 C.ar      1 <0>        -0.1098
      9 C8         -0.0624    1.1171   -2.4126 C.3       1 <0>         0.0983
     10 N1         -0.7232    1.5724   -1.1821 N.3       1 <0>        -0.6533
     11 C9         -0.0127    1.0858    0.0080 C.3       1 <0>         0.0606
     12 C10        -0.7288    1.5792    1.2668 C.3       1 <0>         0.1664
     13 H1         -0.8842    2.6680    1.2458 H         1 <0>         0.0626
     14 C11         0.0665    1.1846    2.4845 C.ar      1 <0>        -0.1214
     15 C12         0.8846    2.1101    3.1055 C.ar      1 <0>        -0.0953
     16 C13         1.6136    1.7490    4.2229 C.ar      1 <0>        -0.1145
     17 C14         1.5253    0.4620    4.7199 C.ar      1 <0>        -0.0886
     18 C15         0.7074   -0.4642    4.0987 C.ar      1 <0>        -0.0925
     19 C16        -0.0265   -0.1007    2.9837 C.ar      1 <0>        -0.0680
     20 Br1         0.5861   -2.2248    4.7780 Br        1 <0>        -0.0475
     21 O2         -2.0295    0.9914    1.3363 O.3       1 <0>        -0.5747
     22 H2          1.0936    5.6381   -3.2456 H         1 <0>         0.1013
     23 H3         -0.6039    5.5997   -3.8321 H         1 <0>         0.0574
     24 H4          0.7303    5.0603   -4.9072 H         1 <0>         0.0561
     25 H5         -1.1866    4.4322   -5.4715 H         1 <0>         0.1273
     26 H6         -2.7475    2.9519   -6.6672 H         1 <0>         0.1243
     27 H7         -3.0735    0.6332   -5.9081 H         1 <0>         0.1246
     28 H8         -1.8328   -0.2132   -3.9585 H         1 <0>         0.1293
     29 H9         -0.0478    0.0174   -2.4357 H         1 <0>         0.0796
     30 H10         0.9692    1.4981   -2.4374 H         1 <0>         0.0429
     31 H11        -0.7378    2.6721   -1.1591 H         1 <0>         0.3399
     32 H12         0.0022   -0.0141    0.0019 H         1 <0>         0.0817
     33 H13         1.0193    1.4665    0.0002 H         1 <0>         0.0468
     34 H14         0.9539    3.1157    2.7176 H         1 <0>         0.1290
     35 H15         2.2520    2.4725    4.7081 H         1 <0>         0.1335
     36 H16         2.0947    0.1801    5.5932 H         1 <0>         0.1334
     37 H17        -0.6690   -0.8223    2.5012 H         1 <0>         0.1386
     38 H18        -2.6964    1.2296    2.1780 H         1 <0>         0.4039
@<TRIPOS>BOND
     1    1    2 1
     2    1   22 1
     3    1   23 1
     4    1   24 1
     5    2    3 1
     6    3    8 ar
     7    3    4 ar
     8    4    5 ar
     9    4   25 1
    10    5    6 ar
    11    5   26 1
    12    6    7 ar
    13    6   27 1
    14    7    8 ar
    15    7   28 1
    16    8    9 1
    17    9   10 1
    18    9   29 1
    19    9   30 1
    20   10   11 1
    21   10   31 1
    22   11   12 1
    23   11   32 1
    24   11   33 1
    25   12   13 1
    26   12   14 1
    27   12   21 1
    28   14   19 ar
    29   14   15 ar
    30   15   16 ar
    31   15   34 1
    32   16   17 ar
    33   16   35 1
    34   17   18 ar
    35   17   36 1
    36   18   19 ar
    37   18   20 1
    38   19   37 1
    39   21   38 1
@<TRIPOS>MOLECULE
ZINC14966762
   38    39     0     0     0
SMALL
USER_CHARGES
(1R)-1-(3-bromophenyl)-2-[(2-methoxyphenyl)methylamino]ethanol
@<TRIPOS>ATOM
      1 C1          0.6674   -0.8108    3.5134 C.3       1 <0>         0.0246
      2 O1          0.4377   -0.0274    2.3406 O.3       1 <0>        -0.3163
      3 C2          0.2313   -0.7017    1.1788 C.ar      1 <0>         0.1328
      4 C3          0.2490   -2.0890    1.1680 C.ar      1 <0>        -0.2088
      5 C4          0.0385   -2.7720   -0.0140 C.ar      1 <0>        -0.0803
      6 C5         -0.1898   -2.0742   -1.1859 C.ar      1 <0>        -0.1571
      7 C6         -0.2132   -0.6920   -1.1767 C.ar      1 <0>        -0.0650
      8 C7          0.0021   -0.0041    0.0020 C.ar      1 <0>        -0.1109
      9 C8         -0.0184    1.5028    0.0103 C.3       1 <0>         0.0980
     10 N1          1.3598    2.0112   -0.0001 N.3       1 <0>        -0.6639
     11 C9          1.3791    3.4801    0.0076 C.3       1 <0>         0.0635
     12 C10         2.8281    3.9712   -0.0036 C.3       1 <0>         0.1648
     13 H1          3.3820    3.5844   -0.8717 H         1 <0>         0.0717
     14 C11         2.8478    5.4780    0.0043 C.ar      1 <0>        -0.1195
     15 C12         2.7583    6.1642    1.2013 C.ar      1 <0>        -0.0841
     16 C13         2.7820    7.5462    1.2096 C.ar      1 <0>        -0.1151
     17 C14         2.8840    8.2431    0.0201 C.ar      1 <0>        -0.0887
     18 C15         2.9680    7.5572   -1.1780 C.ar      1 <0>        -0.0915
     19 C16         2.9498    6.1739   -1.1853 C.ar      1 <0>        -0.0807
     20 Br1         3.1069    8.5100   -2.8055 Br        1 <0>        -0.0481
     21 O2          3.5065    3.4798    1.1541 O.3       1 <0>        -0.5904
     22 H2          0.8182   -0.1446    4.3756 H         1 <0>         0.1016
     23 H3          1.5633   -1.4325    3.3693 H         1 <0>         0.0574
     24 H4         -0.2025   -1.4583    3.6980 H         1 <0>         0.0555
     25 H5          0.4269   -2.6344    2.0830 H         1 <0>         0.1275
     26 H6          0.0518   -3.8519   -0.0229 H         1 <0>         0.1242
     27 H7         -0.3542   -2.6101   -2.1090 H         1 <0>         0.1243
     28 H8         -0.3957   -0.1494   -2.0925 H         1 <0>         0.1288
     29 H9         -0.5504    1.8672   -0.8809 H         1 <0>         0.0780
     30 H10        -0.5333    1.8575    0.9153 H         1 <0>         0.0433
     31 H11         1.8918    1.6468    0.8911 H         1 <0>         0.3560
     32 H12         0.8569    3.8583   -0.8836 H         1 <0>         0.0841
     33 H13         0.8740    3.8487    0.9126 H         1 <0>         0.0397
     34 H14         2.6738    5.6201    2.1304 H         1 <0>         0.1343
     35 H15         2.7165    8.0817    2.1452 H         1 <0>         0.1332
     36 H16         2.8978    9.3230    0.0263 H         1 <0>         0.1332
     37 H17         3.0150    5.6379   -2.1207 H         1 <0>         0.1334
     38 H18         4.5646    3.7308    1.3195 H         1 <0>         0.4106
@<TRIPOS>BOND
     1    1    2 1
     2    1   22 1
     3    1   23 1
     4    1   24 1
     5    2    3 1
     6    3    8 ar
     7    3    4 ar
     8    4    5 ar
     9    4   25 1
    10    5    6 ar
    11    5   26 1
    12    6    7 ar
    13    6   27 1
    14    7    8 ar
    15    7   28 1
    16    8    9 1
    17    9   10 1
    18    9   29 1
    19    9   30 1
    20   10   11 1
    21   10   31 1
    22   11   12 1
    23   11   32 1
    24   11   33 1
    25   12   13 1
    26   12   14 1
    27   12   21 1
    28   14   19 ar
    29   14   15 ar
    30   15   16 ar
    31   15   34 1
    32   16   17 ar
    33   16   35 1
    34   17   18 ar
    35   17   36 1
    36   18   19 ar
    37   18   20 1
    38   19   37 1
    39   21   38 1
@<TRIPOS>MOLECULE
ZINC14966694
   40    41     0     0     0
SMALL
USER_CHARGES
(1S)-2-(o-tolylmethylamino)-1-[3-(trifluoromethyl)phenyl]ethanol
@<TRIPOS>ATOM
      1 C1          2.1030    9.1176   -2.8185 C.3       1 <0>        -0.1182
      2 C2          0.8570    9.9630   -2.7577 C.ar      1 <0>        -0.0816
      3 C3          0.9574   11.3418   -2.7368 C.ar      1 <0>        -0.1202
      4 C4         -0.1854   12.1172   -2.6815 C.ar      1 <0>        -0.1162
      5 C5         -1.4290   11.5141   -2.6471 C.ar      1 <0>        -0.1251
      6 C6         -1.5296   10.1358   -2.6733 C.ar      1 <0>        -0.0971
      7 C7         -0.3862    9.3601   -2.7234 C.ar      1 <0>        -0.0804
      8 C8         -0.4957    7.8573   -2.7467 C.3       1 <0>         0.0879
      9 N1         -0.2419    7.3269   -1.4004 N.3       1 <0>        -0.6530
     10 C9         -0.3404    5.8613   -1.3848 C.3       1 <0>         0.0587
     11 C10        -0.0705    5.3471    0.0307 C.3       1 <0>         0.1655
     12 H1          0.8738    5.7419    0.4336 H         1 <0>         0.0632
     13 C11        -0.0501    3.8402    0.0223 C.ar      1 <0>        -0.1283
     14 C12        -1.2379    3.1327    0.0294 C.ar      1 <0>        -0.0640
     15 C13        -1.2192    1.7508    0.0173 C.ar      1 <0>        -0.1204
     16 C14        -0.0126    1.0758    0.0080 C.ar      1 <0>        -0.0690
     17 C15         1.1748    1.7831    0.0004 C.ar      1 <0>        -0.1833
     18 C16         1.1561    3.1655    0.0081 C.ar      1 <0>        -0.0603
     19 C17         2.4900    1.0474   -0.0156 C.3       1 <0>         0.5081
     20 F1          2.2530   -0.3313   -0.0204 F         1 <0>        -0.1760
     21 F2          3.2082    1.4012   -1.1629 F         1 <0>        -0.1761
     22 F3          3.2296    1.3896    1.1215 F         1 <0>        -0.1758
     23 O1         -1.1013    5.8046    0.9083 O.3       1 <0>        -0.5739
     24 H2          2.9882    9.7702   -2.8389 H         1 <0>         0.0686
     25 H3          2.0824    8.4991   -3.7279 H         1 <0>         0.0689
     26 H4          2.1478    8.4664   -1.9331 H         1 <0>         0.0661
     27 H5          1.9289   11.8129   -2.7640 H         1 <0>         0.1212
     28 H6         -0.1070   13.1942   -2.6655 H         1 <0>         0.1214
     29 H7         -2.3220   12.1199   -2.6043 H         1 <0>         0.1217
     30 H8         -2.5012    9.6648   -2.6510 H         1 <0>         0.1216
     31 H9         -1.5066    7.5683   -3.0701 H         1 <0>         0.0808
     32 H10         0.2452    7.4465   -3.4484 H         1 <0>         0.0422
     33 H11         0.7690    7.6159   -1.0770 H         1 <0>         0.3358
     34 H12        -1.3502    5.5583   -1.6987 H         1 <0>         0.0841
     35 H13         0.4016    5.4365   -2.0769 H         1 <0>         0.0478
     36 H14        -2.1804    3.6599    0.0409 H         1 <0>         0.1389
     37 H15        -2.1471    1.1981    0.0187 H         1 <0>         0.1377
     38 H16         0.0021   -0.0041    0.0020 H         1 <0>         0.1398
     39 H17         2.0840    3.7182    0.0025 H         1 <0>         0.1331
     40 H18        -1.0768    5.5333    1.9740 H         1 <0>         0.4057
@<TRIPOS>BOND
     1    1    2 1
     2    1   24 1
     3    1   25 1
     4    1   26 1
     5    2    7 ar
     6    2    3 ar
     7    3    4 ar
     8    3   27 1
     9    4    5 ar
    10    4   28 1
    11    5    6 ar
    12    5   29 1
    13    6    7 ar
    14    6   30 1
    15    7    8 1
    16    8    9 1
    17    8   31 1
    18    8   32 1
    19    9   10 1
    20    9   33 1
    21   10   11 1
    22   10   34 1
    23   10   35 1
    24   11   12 1
    25   11   13 1
    26   11   23 1
    27   13   18 ar
    28   13   14 ar
    29   14   15 ar
    30   14   36 1
    31   15   16 ar
    32   15   37 1
    33   16   17 ar
    34   16   38 1
    35   17   18 ar
    36   17   19 1
    37   18   39 1
    38   19   20 1
    39   19   21 1
    40   19   22 1
    41   23   40 1
@<TRIPOS>MOLECULE
ZINC14966698
   40    41     0     0     0
SMALL
USER_CHARGES
(1R)-2-(o-tolylmethylamino)-1-[3-(trifluoromethyl)phenyl]ethanol
@<TRIPOS>ATOM
      1 C1         -2.7624    9.2362    2.1968 C.3       1 <0>        -0.1191
      2 C2         -1.5075   10.0107    2.5071 C.ar      1 <0>        -0.0796
      3 C3         -1.5235   11.3929    2.4788 C.ar      1 <0>        -0.1203
      4 C4         -0.3726   12.1033    2.7639 C.ar      1 <0>        -0.1162
      5 C5          0.7945   11.4317    3.0773 C.ar      1 <0>        -0.1258
      6 C6          0.8092   10.0501    3.1107 C.ar      1 <0>        -0.0986
      7 C7         -0.3407    9.3394    2.8204 C.ar      1 <0>        -0.0812
      8 C8         -0.3234    7.8328    2.8517 C.3       1 <0>         0.0874
      9 N1         -0.2096    7.3159    1.4813 N.3       1 <0>        -0.6633
     10 C9         -0.1897    5.8470    1.4727 C.3       1 <0>         0.0615
     11 C10        -0.0705    5.3471    0.0316 C.3       1 <0>         0.1641
     12 H1          0.8264    5.7464   -0.4646 H         1 <0>         0.0741
     13 C11        -0.0501    3.8402    0.0228 C.ar      1 <0>        -0.1268
     14 C12        -1.2379    3.1327    0.0303 C.ar      1 <0>        -0.0672
     15 C13        -1.2192    1.7508    0.0173 C.ar      1 <0>        -0.1207
     16 C14        -0.0126    1.0758    0.0080 C.ar      1 <0>        -0.0695
     17 C15         1.1748    1.7831    0.0004 C.ar      1 <0>        -0.1826
     18 C16         1.1561    3.1655    0.0076 C.ar      1 <0>        -0.0587
     19 C17         2.4900    1.0474   -0.0161 C.3       1 <0>         0.5080
     20 F1          2.2530   -0.3313   -0.0213 F         1 <0>        -0.1763
     21 F2          3.2080    1.4015   -1.1634 F         1 <0>        -0.1756
     22 F3          3.2298    1.3892    1.1210 F         1 <0>        -0.1756
     23 O1         -1.1877    5.8127   -0.7280 O.3       1 <0>        -0.5919
     24 H2         -3.5800    9.9372    1.9731 H         1 <0>         0.0679
     25 H3         -3.0361    8.6185    3.0649 H         1 <0>         0.0681
     26 H4         -2.5870    8.5875    1.3259 H         1 <0>         0.0697
     27 H5         -2.4353   11.9175    2.2344 H         1 <0>         0.1214
     28 H6         -0.3852   13.1830    2.7422 H         1 <0>         0.1213
     29 H7          1.6937   11.9868    3.3004 H         1 <0>         0.1215
     30 H8          1.7197    9.5255    3.3599 H         1 <0>         0.1213
     31 H9          0.5357    7.4883    3.4461 H         1 <0>         0.0795
     32 H10        -1.2550    7.4648    3.3063 H         1 <0>         0.0425
     33 H11        -1.0687    7.6605    0.8869 H         1 <0>         0.3514
     34 H12         0.6702    5.4885    2.0575 H         1 <0>         0.0863
     35 H13        -1.1204    5.4651    1.9175 H         1 <0>         0.0406
     36 H14        -2.1804    3.6599    0.0425 H         1 <0>         0.1378
     37 H15        -2.1471    1.1981    0.0187 H         1 <0>         0.1371
     38 H16         0.0021   -0.0041    0.0020 H         1 <0>         0.1396
     39 H17         2.0839    3.7182    0.0017 H         1 <0>         0.1349
     40 H18        -1.2757    5.5520   -1.7930 H         1 <0>         0.4132
@<TRIPOS>BOND
     1    1    2 1
     2    1   24 1
     3    1   25 1
     4    1   26 1
     5    2    7 ar
     6    2    3 ar
     7    3    4 ar
     8    3   27 1
     9    4    5 ar
    10    4   28 1
    11    5    6 ar
    12    5   29 1
    13    6    7 ar
    14    6   30 1
    15    7    8 1
    16    8    9 1
    17    8   31 1
    18    8   32 1
    19    9   10 1
    20    9   33 1
    21   10   11 1
    22   10   34 1
    23   10   35 1
    24   11   12 1
    25   11   13 1
    26   11   23 1
    27   13   18 ar
    28   13   14 ar
    29   14   15 ar
    30   14   36 1
    31   15   16 ar
    32   15   37 1
    33   16   17 ar
    34   16   38 1
    35   17   18 ar
    36   17   19 1
    37   18   39 1
    38   19   20 1
    39   19   21 1
    40   19   22 1
    41   23   40 1
