@<TRIPOS>MOLECULE
ZINC04102194
   78    79     0     0     0
SMALL
USER_CHARGES
9-[4-[3,4-dihydroxy-5-[[3-(2-hydroxy-1-methyl-propyl)oxiran-2-yl]methyl]tetrahydropyran-2-yl]-3-methyl-but-2-enoyl]oxynonanoic acid
@<TRIPOS>ATOM
      1 C1         -9.7169    0.5226    5.8037 C.3       1 <0>        -0.1455
      2 C2         -9.0415    1.5070    4.8468 C.3       1 <0>        -0.0772
      3 H1         -9.0050    1.0747    3.8469 H         1 <0>         0.0883
      4 C3         -7.6187    1.7940    5.3307 C.3       1 <0>         0.0120
      5 H2         -7.5199    2.6006    6.0572 H         1 <0>         0.1185
      6 C4         -6.6512    0.6137    5.4398 C.3       1 <0>        -0.0103
      7 H3         -7.0227   -0.3744    5.1683 H         1 <0>         0.1214
      8 O1         -6.5479    1.5946    4.4057 O.3       1 <0>        -0.3335
      9 C5         -5.6099    0.6467    6.5603 C.3       1 <0>        -0.1021
     10 C6         -4.8313   -0.6703    6.5719 C.3       1 <0>        -0.1123
     11 H4         -5.5280   -1.5046    6.6534 H         1 <0>         0.0983
     12 C7         -4.0268   -0.8004    5.2759 C.3       1 <0>         0.0671
     13 O2         -3.0743    0.2622    5.1993 O.3       1 <0>        -0.3591
     14 C8         -2.1201    0.2681    6.2631 C.3       1 <0>         0.0698
     15 H5         -1.5735   -0.6749    6.2663 H         1 <0>         0.0769
     16 C9         -2.8478    0.4410    7.5988 C.3       1 <0>         0.0436
     17 H6         -3.3615    1.4023    7.6120 H         1 <0>         0.0748
     18 C10        -3.8700   -0.6877    7.7643 C.3       1 <0>         0.1209
     19 H7         -4.4311   -0.5409    8.6872 H         1 <0>         0.0681
     20 O3         -3.1909   -1.9441    7.8126 O.3       1 <0>        -0.5584
     21 O4         -1.9015    0.3892    8.6684 O.3       1 <0>        -0.5612
     22 C11        -1.1398    1.4256    6.0626 C.3       1 <0>        -0.0887
     23 C12        -0.3368    1.1923    4.8088 C.2       1 <0>        -0.0224
     24 C13        -0.7240    1.7395    3.6592 C.2       1 <0>        -0.1861
     25 C14        -0.0145    1.4133    2.4143 C.2       1 <0>         0.4930
     26 O5          0.9830    0.7198    2.4473 O.2       1 <0>        -0.5120
     27 O6         -0.4700    1.8833    1.2359 O.3       1 <0>        -0.3541
     28 C15         0.2809    1.5210    0.0471 C.3       1 <0>         0.0687
     29 C16        -0.3825    2.1416   -1.1840 C.3       1 <0>        -0.1195
     30 C17         0.4087    1.7599   -2.4366 C.3       1 <0>        -0.1171
     31 C18        -0.2547    2.3805   -3.6677 C.3       1 <0>        -0.1174
     32 C19         0.5366    1.9988   -4.9204 C.3       1 <0>        -0.1195
     33 C20        -0.1269    2.6193   -6.1515 C.3       1 <0>        -0.1198
     34 C21         0.6644    2.2376   -7.4041 C.3       1 <0>        -0.0989
     35 C22         0.0009    2.8582   -8.6352 C.3       1 <0>        -0.1582
     36 C23         0.7803    2.4822   -9.8690 C.2       1 <0>         0.4569
     37 O7          1.7654    1.7891   -9.7735 O.co2     1 <0>        -0.6426
     38 C24         0.9046    0.3393    4.8569 C.3       1 <0>        -0.1215
     39 C25        -9.8403    2.8114    4.8095 C.3       1 <0>         0.1071
     40 H8         -9.8769    3.2438    5.8095 H         1 <0>         0.0565
     41 C26       -11.2631    2.5245    4.3256 C.3       1 <0>        -0.1897
     42 O8         -9.2095    3.7309    3.9158 O.3       1 <0>        -0.5619
     43 H9         -9.7535    0.9549    6.8036 H         1 <0>         0.0619
     44 H10       -10.7305    0.3182    5.4589 H         1 <0>         0.0673
     45 H11        -9.1478   -0.4067    5.8302 H         1 <0>         0.0647
     46 H12        -6.1116    0.7806    7.5187 H         1 <0>         0.0825
     47 H13        -4.9211    1.4745    6.3919 H         1 <0>         0.0856
     48 H14        -4.7019   -0.7457    4.4219 H         1 <0>         0.0993
     49 H15        -3.5052   -1.7575    5.2661 H         1 <0>         0.0626
     50 H16        -2.5647   -2.0248    8.5450 H         1 <0>         0.3877
     51 H17        -1.2203    1.0741    8.6243 H         1 <0>         0.3836
     52 H18        -0.4677    1.4849    6.9187 H         1 <0>         0.0930
     53 H19        -1.6942    2.3595    5.9705 H         1 <0>         0.0889
     54 H20        -1.5597    2.4234    3.6411 H         1 <0>         0.1389
     55 H21         0.2961    0.4361   -0.0564 H         1 <0>         0.0693
     56 H22         1.3020    1.8920    0.1354 H         1 <0>         0.0693
     57 H23        -1.4037    1.7707   -1.2722 H         1 <0>         0.0740
     58 H24        -0.3978    3.2266   -1.0804 H         1 <0>         0.0737
     59 H25         1.4299    2.1308   -2.3484 H         1 <0>         0.0651
     60 H26         0.4240    0.6749   -2.5402 H         1 <0>         0.0652
     61 H27        -1.2759    2.0095   -3.7560 H         1 <0>         0.0620
     62 H28        -0.2700    3.4654   -3.5642 H         1 <0>         0.0619
     63 H29         1.5577    2.3697   -4.8321 H         1 <0>         0.0606
     64 H30         0.5518    0.9138   -5.0239 H         1 <0>         0.0606
     65 H31        -1.1480    2.2484   -6.2397 H         1 <0>         0.0560
     66 H32        -0.1421    3.7043   -6.0479 H         1 <0>         0.0560
     67 H33         1.6855    2.6086   -7.3159 H         1 <0>         0.0584
     68 H34         0.6796    1.1527   -7.5077 H         1 <0>         0.0585
     69 H35        -1.0202    2.4873   -8.7235 H         1 <0>         0.0613
     70 H36        -0.0143    3.9432   -8.5317 H         1 <0>         0.0613
     71 H37         1.7599    0.9229    4.5162 H         1 <0>         0.0843
     72 H38         1.0769    0.0058    5.8802 H         1 <0>         0.0563
     73 H39         0.7751   -0.5277    4.2091 H         1 <0>         0.0846
     74 H40       -11.7443    1.8232    5.0073 H         1 <0>         0.0702
     75 H41       -11.8322    3.4538    4.2991 H         1 <0>         0.0595
     76 H42       -11.2266    2.0922    3.3257 H         1 <0>         0.0652
     77 H43        -9.6630    4.5819    3.8424 H         1 <0>         0.3780
     78 O9          0.3802    2.9174  -11.0741 O.co2     1 <0>        -0.7802
@<TRIPOS>BOND
     1    1    2 1
     2    1   43 1
     3    1   44 1
     4    1   45 1
     5    2    3 1
     6    2    4 1
     7    2   39 1
     8    4    5 1
     9    4    8 1
    10    4    6 1
    11    6    7 1
    12    6    8 1
    13    6    9 1
    14    9   10 1
    15    9   46 1
    16    9   47 1
    17   10   11 1
    18   10   18 1
    19   10   12 1
    20   12   13 1
    21   12   48 1
    22   12   49 1
    23   13   14 1
    24   14   15 1
    25   14   16 1
    26   14   22 1
    27   16   17 1
    28   16   18 1
    29   16   21 1
    30   18   19 1
    31   18   20 1
    32   20   50 1
    33   21   51 1
    34   22   23 1
    35   22   52 1
    36   22   53 1
    37   23   24 2
    38   23   38 1
    39   24   25 1
    40   24   54 1
    41   25   26 2
    42   25   27 1
    43   27   28 1
    44   28   29 1
    45   28   55 1
    46   28   56 1
    47   29   30 1
    48   29   57 1
    49   29   58 1
    50   30   31 1
    51   30   59 1
    52   30   60 1
    53   31   32 1
    54   31   61 1
    55   31   62 1
    56   32   33 1
    57   32   63 1
    58   32   64 1
    59   33   34 1
    60   33   65 1
    61   33   66 1
    62   34   35 1
    63   34   67 1
    64   34   68 1
    65   35   36 1
    66   35   69 1
    67   35   70 1
    68   36   37 2
    69   36   78 1
    70   38   71 1
    71   38   72 1
    72   38   73 1
    73   39   40 1
    74   39   41 1
    75   39   42 1
    76   41   74 1
    77   41   75 1
    78   41   76 1
    79   42   77 1
