@<TRIPOS>MOLECULE
ZINC03108912
   35    36     0     0     0
SMALL
USER_CHARGES
4-[[2-(2-thienylcarbonylamino)acetyl]aminoiminomethyl]benzoic acid
@<TRIPOS>ATOM
      1 C1         -8.5180   14.1338    0.1196 C.2       1 <0>        -0.1799
      2 C2         -9.0262   12.8587    0.1097 C.2       1 <0>        -0.0694
      3 C3         -8.1137   11.8154    0.1056 C.2       1 <0>        -0.2423
      4 S1         -6.5582   12.6892    0.1036 S.3       1 <0>         0.1555
      5 C4         -7.1707   14.3110    0.1148 C.2       1 <0>        -0.1831
      6 C5         -8.3620   10.3708    0.0983 C.2       1 <0>         0.6109
      7 O1         -9.5038    9.9496    0.1006 O.2       1 <0>        -0.5266
      8 N1         -7.3258    9.5090    0.0890 N.am      1 <0>        -0.7130
      9 C6         -7.5739    8.0652    0.0817 C.3       1 <0>         0.1083
     10 C7         -6.2588    7.3295    0.0720 C.2       1 <0>         0.5257
     11 O2         -5.2166    7.9502    0.0712 O.2       1 <0>        -0.4995
     12 N2         -6.2405    5.9819    0.0641 N.am      1 <0>        -0.5815
     13 N3         -5.0178    5.2980    0.0551 N.2       1 <0>        -0.2451
     14 C8         -5.0002    3.9997    0.0475 C.2       1 <0>         0.1400
     15 C9         -3.7145    3.2805    0.0380 C.ar      1 <0>        -0.0833
     16 C10        -3.6954    1.8819    0.0298 C.ar      1 <0>        -0.0990
     17 C11        -2.5033    1.2154    0.0205 C.ar      1 <0>        -0.0964
     18 C12        -1.3020    1.9310    0.0187 C.ar      1 <0>        -0.0859
     19 C13        -1.3208    3.3291    0.0323 C.ar      1 <0>        -0.0879
     20 C14        -2.5127    3.9962    0.0366 C.ar      1 <0>        -0.0874
     21 C15        -0.0144    1.2108    0.0087 C.2       1 <0>         0.4846
     22 O3          0.0021   -0.0041    0.0020 O.co2     1 <0>        -0.6285
     23 H1         -9.1811   14.9862    0.1266 H         1 <0>         0.1411
     24 H2        -10.0907   12.6764    0.1079 H         1 <0>         0.1483
     25 H3         -6.6159   15.2376    0.1173 H         1 <0>         0.1916
     26 H4         -6.4158    9.8447    0.0871 H         1 <0>         0.4139
     27 H5         -8.1456    7.7993   -0.8075 H         1 <0>         0.1079
     28 H6         -8.1382    7.7890    0.9725 H         1 <0>         0.1079
     29 H7         -7.0739    5.4855    0.0647 H         1 <0>         0.3858
     30 H8         -5.9281    3.4470    0.0482 H         1 <0>         0.1184
     31 H9         -4.6232    1.3291    0.0312 H         1 <0>         0.1222
     32 H10        -2.4885    0.1355    0.0142 H         1 <0>         0.1322
     33 H11        -0.3928    3.8816    0.0354 H         1 <0>         0.1351
     34 H12        -2.5272    5.0761    0.0429 H         1 <0>         0.1291
     35 O4          1.1433    1.9003    0.0013 O.co2     1 <0>        -0.7496
@<TRIPOS>BOND
     1    1    5 2
     2    1    2 1
     3    1   23 1
     4    2    3 2
     5    2   24 1
     6    3    4 1
     7    3    6 1
     8    4    5 1
     9    5   25 1
    10    6    7 2
    11    6    8 am
    12    8    9 1
    13    8   26 1
    14    9   10 1
    15    9   27 1
    16    9   28 1
    17   10   11 2
    18   10   12 am
    19   12   13 1
    20   12   29 1
    21   13   14 2
    22   14   15 1
    23   14   30 1
    24   15   20 ar
    25   15   16 ar
    26   16   17 ar
    27   16   31 1
    28   17   18 ar
    29   17   32 1
    30   18   19 ar
    31   18   21 1
    32   19   20 ar
    33   19   33 1
    34   20   34 1
    35   21   22 2
    36   21   35 1
