@<TRIPOS>MOLECULE
ZINC72108665
   24    26     0     0     0
SMALL
USER_CHARGES

@<TRIPOS>ATOM
      1 C1         -0.0168    1.3851    0.0097 C.ar      1 <0>        -0.1843
      2 C2          1.1631    2.0960    0.0022 C.ar      1 <0>        -0.0316
      3 C3          2.3785    1.4161   -0.0131 C.ar      1 <0>        -0.1048
      4 C4          2.4005    0.0117   -0.0208 C.ar      1 <0>         0.1182
      5 C5          1.1994   -0.6898   -0.0131 C.ar      1 <0>        -0.1722
      6 C6          0.0021   -0.0041    0.0020 C.ar      1 <0>         0.1143
      7 F1         -1.1621   -0.6895    0.0095 F         1 <0>        -0.1427
      8 N1          3.7223   -0.3819   -0.0356 N.pl3     1 <0>        -0.5874
      9 H1          4.0261   -1.3030   -0.0438 H         1 <0>         0.4160
     10 C7          4.5397    0.7067   -0.0375 C.2       1 <0>         0.0437
     11 C8          3.7897    1.8442   -0.0243 C.2       1 <0>        -0.1059
     12 C9          4.2886    3.2254   -0.0220 C.2       1 <0>        -0.1000
     13 C10         5.6158    3.4627   -0.0334 C.2       1 <0>        -0.0189
     14 C11         6.1139    4.8417   -0.0311 C.2       1 <0>         0.0662
     15 N2          5.3788    5.9604   -0.0127 N.2       1 <0>        -0.3674
     16 N3          6.1947    6.9586   -0.0177 N.2       1 <0>        -0.1940
     17 N4          7.4047    6.5215   -0.0384 N.2       1 <0>        -0.1936
     18 N5          7.3944    5.2324   -0.0413 N.2       1 <0>        -0.3732
     19 H2         -0.9605    1.9099    0.0260 H         1 <0>         0.1347
     20 H3          1.1458    3.1758    0.0078 H         1 <0>         0.1375
     21 H4          1.2040   -1.7698   -0.0194 H         1 <0>         0.1292
     22 H5          5.6192    0.6737   -0.0475 H         1 <0>         0.1768
     23 H6          3.5924    4.0510   -0.0113 H         1 <0>         0.1257
     24 H7          6.3120    2.6371   -0.0441 H         1 <0>         0.1135
@<TRIPOS>BOND
     1    1    6 ar
     2    1    2 ar
     3    1   19 1
     4    2    3 ar
     5    2   20 1
     6    3   11 1
     7    3    4 ar
     8    4    5 ar
     9    4    8 1
    10    5    6 ar
    11    5   21 1
    12    6    7 1
    13    8    9 1
    14    8   10 1
    15   10   11 2
    16   10   22 1
    17   11   12 1
    18   12   13 2
    19   12   23 1
    20   13   14 1
    21   13   24 1
    22   14   18 2
    23   14   15 1
    24   15   16 1
    25   16   17 2
    26   17   18 1
@<TRIPOS>MOLECULE
ZINC00019965
   29    31     0     0     0
SMALL
USER_CHARGES
6-fluoro-3-[2-(3-pyridyl)vinyl]-1H-indole
@<TRIPOS>ATOM
      1 C1          7.9031    6.4341   -0.0369 C.ar      1 <0>        -0.1679
      2 C2          7.4870    5.1147   -0.0401 C.ar      1 <0>        -0.0721
      3 C3          6.1102    4.8528   -0.0284 C.ar      1 <0>        -0.0969
      4 C4          5.2191    5.9297   -0.0194 C.ar      1 <0>         0.0999
      5 N1          5.6664    7.1679   -0.0120 N.ar      1 <0>        -0.4812
      6 C5          6.9569    7.4431   -0.0223 C.ar      1 <0>         0.0912
      7 C6          5.6109    3.4667   -0.0317 C.2       1 <0>        -0.1331
      8 C7          4.2877    3.2289   -0.0204 C.2       1 <0>        -0.0460
      9 C8          3.7891    1.8449   -0.0237 C.2       1 <0>        -0.1454
     10 C9          4.5396    0.7100   -0.0371 C.2       1 <0>         0.0773
     11 N2          3.7219   -0.3816   -0.0358 N.pl3     1 <0>        -0.5845
     12 H1          4.0264   -1.3025   -0.0441 H         1 <0>         0.4215
     13 C10         2.4005    0.0117   -0.0214 C.ar      1 <0>         0.1186
     14 C11         2.3787    1.4163   -0.0131 C.ar      1 <0>        -0.1030
     15 C12         1.1629    2.0962    0.0022 C.ar      1 <0>        -0.0402
     16 C13        -0.0168    1.3853    0.0097 C.ar      1 <0>        -0.1733
     17 C14         0.0021   -0.0041    0.0020 C.ar      1 <0>         0.1219
     18 C15         1.1993   -0.6898   -0.0136 C.ar      1 <0>        -0.1666
     19 F1         -1.1621   -0.6895    0.0095 F         1 <0>        -0.1361
     20 H2          8.9561    6.6740   -0.0460 H         1 <0>         0.1364
     21 H3          8.2045    4.3075   -0.0510 H         1 <0>         0.1353
     22 H4          4.1551    5.7445   -0.0148 H         1 <0>         0.1566
     23 H5          7.2798    8.4736   -0.0198 H         1 <0>         0.1557
     24 H6          6.3077    2.6417   -0.0432 H         1 <0>         0.1203
     25 H7          3.5908    4.0539   -0.0088 H         1 <0>         0.1237
     26 H8          5.6191    0.6784   -0.0475 H         1 <0>         0.1779
     27 H9          1.1453    3.1761    0.0079 H         1 <0>         0.1360
     28 H10        -0.9607    1.9101    0.0170 H         1 <0>         0.1395
     29 H11         1.2038   -1.7698   -0.0194 H         1 <0>         0.1347
@<TRIPOS>BOND
     1    1    6 ar
     2    1    2 ar
     3    1   20 1
     4    2    3 ar
     5    2   21 1
     6    3    4 ar
     7    3    7 1
     8    4    5 ar
     9    4   22 1
    10    5    6 ar
    11    6   23 1
    12    7    8 2
    13    7   24 1
    14    8    9 1
    15    8   25 1
    16    9   14 1
    17    9   10 2
    18   10   11 1
    19   10   26 1
    20   11   12 1
    21   11   13 1
    22   13   18 ar
    23   13   14 ar
    24   14   15 ar
    25   15   16 ar
    26   15   27 1
    27   16   17 ar
    28   16   28 1
    29   17   18 ar
    30   17   19 1
    31   18   29 1
