@<TRIPOS>MOLECULE
ZINC13525256
   58    59     0     0     0
SMALL
USER_CHARGES
(Z)-7-[(1R,4S,5R,6S)-6-[(E,3S)-3-hydroxyoct-1-enyl]-3-oxabicyclo[2.2.1]heptan-5-yl]hept-5-enoic acid
@<TRIPOS>ATOM
      1 C1         -2.8673    0.4948  -10.6759 C.3       1 <0>        -0.1536
      2 C2         -3.6133    0.9568   -9.4226 C.3       1 <0>        -0.1259
      3 C3         -2.8418    0.5142   -8.1776 C.3       1 <0>        -0.1206
      4 C4         -3.5878    0.9763   -6.9243 C.3       1 <0>        -0.1177
      5 C5         -2.8164    0.5336   -5.6794 C.3       1 <0>        -0.1446
      6 C6         -3.5624    0.9957   -4.4260 C.3       1 <0>         0.1358
      7 H1         -4.5874    0.6262   -4.4564 H         1 <0>         0.1071
      8 C7         -2.8698    0.4556   -3.2014 C.2       1 <0>        -0.1977
      9 C8         -2.4797    1.2734   -2.2553 C.2       1 <0>        -0.1329
     10 C9         -1.7871    0.7333   -1.0307 C.3       1 <0>        -0.0595
     11 H2         -1.7118   -0.3530   -1.0803 H         1 <0>         0.0836
     12 C10        -0.3718    1.3743   -0.8738 C.3       1 <0>        -0.1239
     13 H3          0.2455    1.4206   -1.7710 H         1 <0>         0.1107
     14 C11        -0.7270    2.7398   -0.1796 C.3       1 <0>        -0.1568
     15 C12        -1.4809    2.0760    1.0257 C.3       1 <0>         0.0755
     16 H4         -1.8870    2.7618    1.7692 H         1 <0>         0.1286
     17 C13        -2.5284    1.2025    0.2700 C.3       1 <0>        -0.1005
     18 H5         -3.4092    1.7944    0.0209 H         1 <0>         0.0826
     19 C14        -2.9225   -0.0104    1.1152 C.3       1 <0>        -0.0875
     20 C15        -3.6638    0.4524    2.3430 C.2       1 <0>        -0.1689
     21 C16        -4.8321   -0.0627    2.6358 C.2       1 <0>        -0.1436
     22 C17        -5.3587   -1.2333    1.8462 C.3       1 <0>        -0.1025
     23 C18        -5.7349   -2.3662    2.8032 C.3       1 <0>        -0.0916
     24 C19        -6.2696   -3.5546    2.0015 C.3       1 <0>        -0.1576
     25 C20        -6.6402   -4.6705    2.9442 C.2       1 <0>         0.4574
     26 O1         -6.4918   -4.5297    4.1350 O.co2     1 <0>        -0.6417
     27 O2         -0.4834    1.1294    1.5031 O.3       1 <0>        -0.3725
     28 C21         0.2343    0.6308    0.3581 C.3       1 <0>         0.0506
     29 O3         -3.5721    2.4238   -4.3768 O.3       1 <0>        -0.5575
     30 H6         -1.8710    0.9369  -10.6895 H         1 <0>         0.0524
     31 H7         -2.7824   -0.5919  -10.6683 H         1 <0>         0.0533
     32 H8         -3.4168    0.8101  -11.5628 H         1 <0>         0.0526
     33 H9         -4.6095    0.5147   -9.4090 H         1 <0>         0.0611
     34 H10        -3.6981    2.0435   -9.4302 H         1 <0>         0.0603
     35 H11        -1.8456    0.9563   -8.1912 H         1 <0>         0.0591
     36 H12        -2.7570   -0.5725   -8.1700 H         1 <0>         0.0605
     37 H13        -4.5840    0.5341   -6.9107 H         1 <0>         0.0619
     38 H14        -3.6727    2.0629   -6.9319 H         1 <0>         0.0675
     39 H15        -1.8202    0.9758   -5.6929 H         1 <0>         0.0645
     40 H16        -2.7315   -0.5530   -5.6718 H         1 <0>         0.0728
     41 H17        -2.6950   -0.6057   -3.1038 H         1 <0>         0.1157
     42 H18        -2.6545    2.3347   -2.3529 H         1 <0>         0.1164
     43 H19         0.1615    3.2854    0.1384 H         1 <0>         0.0783
     44 H20        -1.3864    3.3554   -0.7913 H         1 <0>         0.0841
     45 H21        -3.5646   -0.6682    0.5296 H         1 <0>         0.0764
     46 H22        -2.0250   -0.5514    1.4151 H         1 <0>         0.0763
     47 H23        -3.2318    1.2088    2.9815 H         1 <0>         0.1036
     48 H24        -5.4179    0.3515    3.4430 H         1 <0>         0.1054
     49 H25        -6.2400   -0.9251    1.2837 H         1 <0>         0.0635
     50 H26        -4.5903   -1.5810    1.1558 H         1 <0>         0.0700
     51 H27        -4.8536   -2.6744    3.3657 H         1 <0>         0.0599
     52 H28        -6.5034   -2.0184    3.4936 H         1 <0>         0.0594
     53 H29        -7.1509   -3.2465    1.4390 H         1 <0>         0.0616
     54 H30        -5.5011   -3.9024    1.3111 H         1 <0>         0.0609
     55 H31         0.0865   -0.4446    0.2596 H         1 <0>         0.0695
     56 H32         1.2963    0.8581    0.4506 H         1 <0>         0.0664
     57 H33        -2.6916    2.8224   -4.3479 H         1 <0>         0.3716
     58 O4         -7.1350   -5.8208    2.4609 O.co2     1 <0>        -0.7798
@<TRIPOS>BOND
     1    1    2 1
     2    1   30 1
     3    1   31 1
     4    1   32 1
     5    2    3 1
     6    2   33 1
     7    2   34 1
     8    3    4 1
     9    3   35 1
    10    3   36 1
    11    4    5 1
    12    4   37 1
    13    4   38 1
    14    5    6 1
    15    5   39 1
    16    5   40 1
    17    6    7 1
    18    6    8 1
    19    6   29 1
    20    8    9 2
    21    8   41 1
    22    9   10 1
    23    9   42 1
    24   10   11 1
    25   10   17 1
    26   10   12 1
    27   12   13 1
    28   12   28 1
    29   12   14 1
    30   14   15 1
    31   14   43 1
    32   14   44 1
    33   15   16 1
    34   15   17 1
    35   15   27 1
    36   17   18 1
    37   17   19 1
    38   19   20 1
    39   19   45 1
    40   19   46 1
    41   20   21 2
    42   20   47 1
    43   21   22 1
    44   21   48 1
    45   22   23 1
    46   22   49 1
    47   22   50 1
    48   23   24 1
    49   23   51 1
    50   23   52 1
    51   24   25 1
    52   24   53 1
    53   24   54 1
    54   25   26 2
    55   25   58 1
    56   27   28 1
    57   28   55 1
    58   28   56 1
    59   29   57 1
@<TRIPOS>MOLECULE
ZINC27558313
   58    59     0     0     0
SMALL
USER_CHARGES
(Z)-7-[(1S,4R,5R,6S)-6-[(E,3S)-3-hydroxyoct-1-enyl]-3-oxabicyclo[2.2.1]heptan-5-yl]hept-5-enoic acid
@<TRIPOS>ATOM
      1 C1         -1.8291    2.0550   -5.0740 C.3       1 <0>        -0.1546
      2 C2         -2.4394    2.3623   -3.7050 C.3       1 <0>        -0.1261
      3 C3         -1.4865    1.8914   -2.6045 C.3       1 <0>        -0.1213
      4 C4         -2.0968    2.1987   -1.2356 C.3       1 <0>        -0.1177
      5 C5         -1.1439    1.7278   -0.1350 C.3       1 <0>        -0.1044
      6 C6         -1.7542    2.0351    1.2339 C.3       1 <0>         0.1460
      7 H1         -2.7771    1.6401    1.3210 H         1 <0>         0.0595
      8 C7         -0.8751    1.4626    2.3158 C.2       1 <0>        -0.1971
      9 C8         -0.4253    2.2365    3.2723 C.2       1 <0>        -0.1461
     10 C9          0.4538    1.6640    4.3541 C.3       1 <0>        -0.0603
     11 H2          0.4908    0.5850    4.1436 H         1 <0>         0.0831
     12 C10         1.8520    2.3595    4.3497 C.3       1 <0>        -0.1276
     13 H3          2.5274    2.0479    3.5393 H         1 <0>         0.1138
     14 C11         2.2843    2.1390    5.8454 C.3       1 <0>        -0.1521
     15 C12         1.0055    2.8198    6.4479 C.3       1 <0>         0.0879
     16 H4          0.9265    2.9412    7.5383 H         1 <0>         0.1296
     17 C13        -0.1201    1.9950    5.7522 C.3       1 <0>        -0.0970
     18 H5         -1.0795    2.5305    5.6993 H         1 <0>         0.0863
     19 C14        -0.4011    0.7095    6.5328 C.3       1 <0>        -0.0956
     20 C15        -1.0715    1.0511    7.8385 C.2       1 <0>        -0.1804
     21 C16        -2.2062    0.4813    8.1609 C.2       1 <0>        -0.1379
     22 C17        -2.7558   -0.6365    7.3128 C.3       1 <0>        -0.1041
     23 C18        -3.0727   -1.8418    8.2004 C.3       1 <0>        -0.0923
     24 C19        -3.6307   -2.9767    7.3393 C.3       1 <0>        -0.1580
     25 C20        -3.9429   -4.1638    8.2135 C.2       1 <0>         0.4572
     26 O1         -3.7399   -4.1078    9.4033 O.co2     1 <0>        -0.6419
     27 O2         -4.4464   -5.2833    7.6705 O.co2     1 <0>        -0.7792
     28 O3          0.9955    4.1053    5.7688 O.3       1 <0>        -0.3812
     29 C21         1.5065    3.8804    4.4230 C.3       1 <0>         0.0409
     30 O4         -1.8569    3.4503    1.4028 O.3       1 <0>        -0.5947
     31 H6         -2.5142    2.3936   -5.8652 H         1 <0>         0.0526
     32 H7         -1.6671    0.9711   -5.1683 H         1 <0>         0.0536
     33 H8         -0.8672    2.5794   -5.1727 H         1 <0>         0.0529
     34 H9         -2.6014    3.4462   -3.6107 H         1 <0>         0.0606
     35 H10        -3.4013    1.8379   -3.6063 H         1 <0>         0.0609
     36 H11        -1.3245    0.8075   -2.6988 H         1 <0>         0.0604
     37 H12        -0.5246    2.4158   -2.7032 H         1 <0>         0.0602
     38 H13        -2.2588    3.2826   -1.1414 H         1 <0>         0.0693
     39 H14        -3.0587    1.6743   -1.1369 H         1 <0>         0.0594
     40 H15        -0.9819    0.6439   -0.2293 H         1 <0>         0.0758
     41 H16        -0.1820    2.2522   -0.2337 H         1 <0>         0.0693
     42 H17        -0.6111    0.3948    2.3023 H         1 <0>         0.1154
     43 H18        -0.6893    3.3043    3.2858 H         1 <0>         0.1186
     44 H19         2.4002    1.0623    6.0386 H         1 <0>         0.0870
     45 H20         3.2410    2.6496    6.0297 H         1 <0>         0.0785
     46 H21        -1.0611    0.0581    5.9411 H         1 <0>         0.0822
     47 H22         0.5462    0.1873    6.7326 H         1 <0>         0.0670
     48 H23        -0.6081    1.7789    8.5209 H         1 <0>         0.1063
     49 H24        -2.7578    0.8188    9.0507 H         1 <0>         0.1088
     50 H25        -3.6748   -0.2986    6.8115 H         1 <0>         0.0648
     51 H26        -2.0102   -0.9238    6.5568 H         1 <0>         0.0710
     52 H27        -2.1537   -2.1797    8.7017 H         1 <0>         0.0603
     53 H28        -3.8183   -1.5545    8.9564 H         1 <0>         0.0603
     54 H29        -4.5497   -2.6388    6.8380 H         1 <0>         0.0618
     55 H30        -2.8851   -3.2641    6.5833 H         1 <0>         0.0611
     56 H31         2.4148    4.4721    4.2364 H         1 <0>         0.0646
     57 H32         0.7492    4.1215    3.6625 H         1 <0>         0.0794
     58 H33        -2.2753    3.8644    2.3320 H         1 <0>         0.4034
@<TRIPOS>BOND
     1    1    2 1
     2    1   31 1
     3    1   32 1
     4    1   33 1
     5    2    3 1
     6    2   34 1
     7    2   35 1
     8    3    4 1
     9    3   36 1
    10    3   37 1
    11    4    5 1
    12    4   38 1
    13    4   39 1
    14    5    6 1
    15    5   40 1
    16    5   41 1
    17    6    7 1
    18    6    8 1
    19    6   30 1
    20    8    9 2
    21    8   42 1
    22    9   10 1
    23    9   43 1
    24   10   11 1
    25   10   17 1
    26   10   12 1
    27   12   13 1
    28   12   29 1
    29   12   14 1
    30   14   15 1
    31   14   44 1
    32   14   45 1
    33   15   16 1
    34   15   17 1
    35   15   28 1
    36   17   18 1
    37   17   19 1
    38   19   20 1
    39   19   46 1
    40   19   47 1
    41   20   21 2
    42   20   48 1
    43   21   22 1
    44   21   49 1
    45   22   23 1
    46   22   50 1
    47   22   51 1
    48   23   24 1
    49   23   52 1
    50   23   53 1
    51   24   25 1
    52   24   54 1
    53   24   55 1
    54   25   26 2
    55   25   27 1
    56   28   29 1
    57   29   56 1
    58   29   57 1
    59   30   58 1
@<TRIPOS>MOLECULE
ZINC13608926
   49    52     0     0     0
SMALL
USER_CHARGES

@<TRIPOS>ATOM
      1 C1         -0.0178    1.4608    0.0101 C.3       1 <0>         0.0794
      2 N1          0.0021   -0.0041    0.0020 N.pl3     1 <0>        -0.9916
      3 C2          0.0241   -0.7433    1.2666 C.3       1 <0>         0.1446
      4 H1          0.0368   -1.8139    1.0620 H         1 <0>         0.1075
      5 C3         -1.2224   -0.3940    2.0846 C.3       1 <0>        -0.1128
      6 C4         -1.3285   -1.3441    3.2824 C.3       1 <0>        -0.0585
      7 C5          0.0006   -1.3647    4.0002 C.2       1 <0>         0.1015
      8 C6          1.1549   -0.9250    3.4542 C.2       1 <0>        -0.2007
      9 C7          2.1929   -1.1081    4.4473 C.ar      1 <0>        -0.0964
     10 C8          3.5647   -0.8377    4.4471 C.ar      1 <0>        -0.0780
     11 C9          4.2583   -1.1461    5.5911 C.ar      1 <0>        -0.1586
     12 C10         3.6400   -1.7001    6.7001 C.ar      1 <0>        -0.1160
     13 C11         2.2845   -1.9785    6.7277 C.ar      1 <0>        -0.1167
     14 C12         1.5545   -1.6753    5.5802 C.ar      1 <0>         0.1130
     15 N2          0.2319   -1.8165    5.2731 N.pl3     1 <0>        -0.4281
     16 C13        -0.7870   -2.3681    6.1696 C.3       1 <0>         0.0295
     17 C14        -0.8793   -3.8587    5.9683 C.2       1 <0>         0.4824
     18 O1         -0.1606   -4.4093    5.1517 O.co2     1 <0>        -0.6695
     19 O2         -1.6727   -4.5142    6.6221 O.co2     1 <0>        -0.6918
     20 C15         1.2775   -0.3595    2.0619 C.3       1 <0>        -0.0366
     21 S1         -0.0004   -0.8243   -1.4366 S.o2      1 <0>         2.6895
     22 O3         -0.5312   -2.1147   -1.1675 O.2       1 <0>        -0.9459
     23 O4         -0.5723    0.0488   -2.4009 O.2       1 <0>        -0.9564
     24 C16         1.6818   -1.0594   -1.9051 C.ar      1 <0>        -0.6907
     25 C17         2.3232   -0.1086   -2.6770 C.ar      1 <0>         0.0087
     26 C18         3.6427   -0.2917   -3.0447 C.ar      1 <0>        -0.1772
     27 C19         4.3224   -1.4280   -2.6397 C.ar      1 <0>         0.1540
     28 C20         3.6790   -2.3796   -1.8666 C.ar      1 <0>        -0.1722
     29 C21         2.3610   -2.1918   -1.4957 C.ar      1 <0>         0.0140
     30 F1          5.6122   -1.6082   -2.9990 F         1 <0>        -0.1308
     31 H2          1.0048    1.8381    0.0023 H         1 <0>         0.0560
     32 H3         -0.5450    1.8219   -0.8730 H         1 <0>         0.0823
     33 H4         -0.5280    1.8123    0.9069 H         1 <0>         0.0829
     34 H5         -1.1472    0.6333    2.4410 H         1 <0>         0.0736
     35 H6         -2.1088   -0.4978    1.4587 H         1 <0>         0.0768
     36 H7         -2.1055   -0.9921    3.9610 H         1 <0>         0.0791
     37 H8         -1.5713   -2.3477    2.9331 H         1 <0>         0.0908
     38 H9          4.0558   -0.4067    3.5871 H         1 <0>         0.1187
     39 H10         5.3199   -0.9509    5.6275 H         1 <0>         0.1080
     40 H11         4.2360   -1.9227    7.5728 H         1 <0>         0.1121
     41 H12         1.8143   -2.4110    7.5985 H         1 <0>         0.1207
     42 H13        -0.5138   -2.1573    7.2035 H         1 <0>         0.0839
     43 H14        -1.7515   -1.9111    5.9482 H         1 <0>         0.0855
     44 H15         2.1607   -0.7729    1.5749 H         1 <0>         0.0678
     45 H16         1.3596    0.7261    2.1142 H         1 <0>         0.0712
     46 H17         1.7927    0.7774   -2.9931 H         1 <0>         0.1493
     47 H18         4.1434    0.4510   -3.6481 H         1 <0>         0.1449
     48 H19         4.2081   -3.2664   -1.5504 H         1 <0>         0.1478
     49 H20         1.8603   -2.9317   -0.8890 H         1 <0>         0.1533
@<TRIPOS>BOND
     1    1    2 1
     2    1   31 1
     3    1   32 1
     4    1   33 1
     5    2    3 1
     6    2   21 1
     7    3    4 1
     8    3   20 1
     9    3    5 1
    10    5    6 1
    11    5   34 1
    12    5   35 1
    13    6    7 1
    14    6   36 1
    15    6   37 1
    16    7   15 1
    17    7    8 2
    18    8    9 1
    19    8   20 1
    20    9   14 ar
    21    9   10 ar
    22   10   11 ar
    23   10   38 1
    24   11   12 ar
    25   11   39 1
    26   12   13 ar
    27   12   40 1
    28   13   14 ar
    29   13   41 1
    30   14   15 1
    31   15   16 1
    32   16   17 1
    33   16   42 1
    34   16   43 1
    35   17   18 2
    36   17   19 1
    37   20   44 1
    38   20   45 1
    39   21   22 2
    40   21   23 2
    41   21   24 1
    42   24   29 ar
    43   24   25 ar
    44   25   26 ar
    45   25   46 1
    46   26   27 ar
    47   26   47 1
    48   27   28 ar
    49   27   30 1
    50   28   29 ar
    51   28   48 1
    52   29   49 1
@<TRIPOS>MOLECULE
ZINC13608929
   49    52     0     0     0
SMALL
USER_CHARGES

@<TRIPOS>ATOM
      1 C1         -0.0178    1.4608    0.0101 C.3       1 <0>         0.0770
      2 N1          0.0021   -0.0041    0.0020 N.pl3     1 <0>        -0.9909
      3 C2          0.0241   -0.7433    1.2666 C.3       1 <0>         0.1475
      4 H1          0.0368   -1.8139    1.0620 H         1 <0>         0.1040
      5 C3          1.2760   -0.3600    2.0609 C.3       1 <0>        -0.1186
      6 C4          1.4306   -1.3066    3.2563 C.3       1 <0>        -0.0571
      7 C5          0.1164   -1.3631    3.9991 C.2       1 <0>         0.0969
      8 C6         -1.0596   -0.9552    3.4752 C.2       1 <0>        -0.1950
      9 C7         -2.0733   -1.1665    4.4876 C.ar      1 <0>        -0.0975
     10 C8         -3.4518   -0.9334    4.5135 C.ar      1 <0>        -0.0762
     11 C9         -4.1149   -1.2604    5.6704 C.ar      1 <0>        -0.1590
     12 C10        -3.4607   -1.7964    6.7675 C.ar      1 <0>        -0.1150
     13 C11        -2.0980   -2.0382    6.7692 C.ar      1 <0>        -0.1181
     14 C12        -1.3984   -1.7160    5.6080 C.ar      1 <0>         0.1137
     15 N2         -0.0785   -1.8210    5.2759 N.pl3     1 <0>        -0.4287
     16 C13         0.9718   -2.3449    6.1526 C.3       1 <0>         0.0301
     17 C14         1.5633   -1.2166    6.9576 C.2       1 <0>         0.4823
     18 O1          1.1463   -0.0802    6.8125 O.co2     1 <0>        -0.6702
     19 O2          2.4590   -1.4402    7.7540 O.co2     1 <0>        -0.6924
     20 C15        -1.2240   -0.3936    2.0856 C.3       1 <0>        -0.0370
     21 S1         -0.0004   -0.8243   -1.4366 S.o2      1 <0>         2.6911
     22 O3         -0.5312   -2.1147   -1.1675 O.2       1 <0>        -0.9491
     23 O4         -0.5723    0.0488   -2.4009 O.2       1 <0>        -0.9550
     24 C16         1.6818   -1.0594   -1.9051 C.ar      1 <0>        -0.6910
     25 C17         2.3232   -0.1086   -2.6770 C.ar      1 <0>         0.0098
     26 C18         3.6427   -0.2917   -3.0447 C.ar      1 <0>        -0.1759
     27 C19         4.3224   -1.4280   -2.6397 C.ar      1 <0>         0.1542
     28 C20         3.6790   -2.3796   -1.8666 C.ar      1 <0>        -0.1737
     29 C21         2.3610   -2.1918   -1.4957 C.ar      1 <0>         0.0115
     30 F1          5.6122   -1.6082   -2.9990 F         1 <0>        -0.1304
     31 H2          1.0048    1.8381    0.0023 H         1 <0>         0.0565
     32 H3         -0.5450    1.8219   -0.8730 H         1 <0>         0.0829
     33 H4         -0.5280    1.8123    0.9069 H         1 <0>         0.0864
     34 H5          2.1528   -0.4398    1.4183 H         1 <0>         0.0720
     35 H6          1.1796    0.6650    2.4190 H         1 <0>         0.0786
     36 H7          1.6939   -2.3032    2.9021 H         1 <0>         0.0777
     37 H8          2.2104   -0.9334    3.9201 H         1 <0>         0.0866
     38 H9         -3.9704   -0.5155    3.6633 H         1 <0>         0.1207
     39 H10        -5.1805   -1.0941    5.7269 H         1 <0>         0.1087
     40 H11        -4.0337   -2.0340    7.6517 H         1 <0>         0.1122
     41 H12        -1.5997   -2.4571    7.6310 H         1 <0>         0.1203
     42 H13         0.5452   -3.0876    6.8268 H         1 <0>         0.0842
     43 H14         1.7518   -2.8081    5.5484 H         1 <0>         0.0848
     44 H15        -1.3346    0.6895    2.1397 H         1 <0>         0.0742
     45 H16        -2.1047   -0.8310    1.6154 H         1 <0>         0.0723
     46 H17         1.7927    0.7774   -2.9931 H         1 <0>         0.1502
     47 H18         4.1434    0.4510   -3.6481 H         1 <0>         0.1457
     48 H19         4.2081   -3.2664   -1.5504 H         1 <0>         0.1470
     49 H20         1.8603   -2.9317   -0.8890 H         1 <0>         0.1515
@<TRIPOS>BOND
     1    1    2 1
     2    1   31 1
     3    1   32 1
     4    1   33 1
     5    2    3 1
     6    2   21 1
     7    3    4 1
     8    3   20 1
     9    3    5 1
    10    5    6 1
    11    5   34 1
    12    5   35 1
    13    6    7 1
    14    6   36 1
    15    6   37 1
    16    7   15 1
    17    7    8 2
    18    8    9 1
    19    8   20 1
    20    9   14 ar
    21    9   10 ar
    22   10   11 ar
    23   10   38 1
    24   11   12 ar
    25   11   39 1
    26   12   13 ar
    27   12   40 1
    28   13   14 ar
    29   13   41 1
    30   14   15 1
    31   15   16 1
    32   16   17 1
    33   16   42 1
    34   16   43 1
    35   17   18 2
    36   17   19 1
    37   20   44 1
    38   20   45 1
    39   21   22 2
    40   21   23 2
    41   21   24 1
    42   24   29 ar
    43   24   25 ar
    44   25   26 ar
    45   25   46 1
    46   26   27 ar
    47   26   47 1
    48   27   28 ar
    49   27   30 1
    50   28   29 ar
    51   28   48 1
    52   29   49 1
@<TRIPOS>MOLECULE
ZINC06745293
   39    42     0     0     0
SMALL
USER_CHARGES
2-[(4-chlorophenyl)sulfanyl-fluoro-BLAHyl]acetic acid
@<TRIPOS>ATOM
      1 C1         -0.0166    1.3765    0.0096 C.ar      1 <0>        -0.0918
      2 C2          0.0021   -0.0041    0.0020 C.ar      1 <0>        -0.0924
      3 C3          1.2091   -0.6812   -0.0136 C.ar      1 <0>        -0.0464
      4 C4          2.4008    0.0228   -0.0207 C.ar      1 <0>        -0.0920
      5 C5          2.3888    1.4034   -0.0123 C.ar      1 <0>        -0.1091
      6 C6          1.1783    2.0863    0.0020 C.ar      1 <0>        -0.0954
      7 S1          1.1587    3.8482    0.0111 S.3       1 <0>         0.0623
      8 C7          2.8634    4.2936   -0.0026 C.2       1 <0>        -0.2307
      9 C8          3.6959    4.5204   -1.1886 C.ar      1 <0>        -0.0726
     10 C9          3.4575    4.4702   -2.5636 C.ar      1 <0>        -0.0407
     11 C10         4.4713    4.7420   -3.4380 C.ar      1 <0>        -0.1727
     12 C11         5.7390    5.0696   -2.9702 C.ar      1 <0>         0.1103
     13 C12         5.9948    5.1246   -1.6156 C.ar      1 <0>        -0.1612
     14 C13         4.9745    4.8500   -0.7103 C.ar      1 <0>         0.1409
     15 N1          4.9230    4.8237    0.6716 N.pl3     1 <0>        -0.4993
     16 C14         3.6493    4.4964    1.0773 C.2       1 <0>         0.1723
     17 C15         3.5847    4.4807    2.5926 C.3       1 <0>        -0.0230
     18 H1          3.6168    3.4567    2.9647 H         1 <0>         0.1087
     19 C16         4.8438    5.2564    3.0370 C.3       1 <0>        -0.1145
     20 C17         5.7965    5.0362    1.8402 C.3       1 <0>         0.1044
     21 C18         2.3182    5.1865    3.0812 C.3       1 <0>        -0.1501
     22 C19         2.2138    5.0516    4.5785 C.2       1 <0>         0.4643
     23 O1          3.0650    4.4523    5.1919 O.co2     1 <0>        -0.6405
     24 F1          6.7292    5.3359   -3.8500 F         1 <0>        -0.1408
     25 Cl1         1.2284   -2.4170   -0.0237 Cl        1 <0>        -0.0789
     26 H2         -0.9589    1.9043    0.0169 H         1 <0>         0.1370
     27 H3         -0.9261   -0.5562    0.0079 H         1 <0>         0.1355
     28 H4          3.3410   -0.5084   -0.0326 H         1 <0>         0.1306
     29 H5          3.3190    1.9522   -0.0179 H         1 <0>         0.1298
     30 H6          2.4755    4.2163   -2.9344 H         1 <0>         0.1378
     31 H7          4.2864    4.7027   -4.5013 H         1 <0>         0.1359
     32 H8          6.9820    5.3798   -1.2597 H         1 <0>         0.1315
     33 H9          4.6199    6.3143    3.1739 H         1 <0>         0.0835
     34 H10         5.2617    4.8287    3.9483 H         1 <0>         0.1111
     35 H11         6.4266    4.1619    2.0031 H         1 <0>         0.0869
     36 H12         6.4129    5.9230    1.6930 H         1 <0>         0.0851
     37 H13         2.3645    6.2422    2.8139 H         1 <0>         0.0673
     38 H14         1.4452    4.7313    2.6136 H         1 <0>         0.0850
     39 O2          1.1752    5.5971    5.2307 O.co2     1 <0>        -0.7680
@<TRIPOS>BOND
     1    1    6 ar
     2    1    2 ar
     3    1   26 1
     4    2    3 ar
     5    2   27 1
     6    3    4 ar
     7    3   25 1
     8    4    5 ar
     9    4   28 1
    10    5    6 ar
    11    5   29 1
    12    6    7 1
    13    7    8 1
    14    8   16 2
    15    8    9 1
    16    9   14 ar
    17    9   10 ar
    18   10   11 ar
    19   10   30 1
    20   11   12 ar
    21   11   31 1
    22   12   13 ar
    23   12   24 1
    24   13   14 ar
    25   13   32 1
    26   14   15 1
    27   15   20 1
    28   15   16 1
    29   16   17 1
    30   17   18 1
    31   17   19 1
    32   17   21 1
    33   19   20 1
    34   19   33 1
    35   19   34 1
    36   20   35 1
    37   20   36 1
    38   21   22 1
    39   21   37 1
    40   21   38 1
    41   22   23 2
    42   22   39 1
@<TRIPOS>MOLECULE
ZINC29055291
   39    42     0     0     0
SMALL
USER_CHARGES
2-[(3R)-4-(4-chlorophenyl)sulfanyl-7-fluoro-2,3-dihydro-1H-pyrrolo[1,2-a]indol-3-yl]acetic acid
@<TRIPOS>ATOM
      1 C1          1.1531    3.8192    0.0111 C.ar      1 <0>        -0.0906
      2 C2          1.1685    2.4386    0.0040 C.ar      1 <0>        -0.0927
      3 C3         -0.0215    1.7317    0.0116 C.ar      1 <0>        -0.0419
      4 C4         -1.2302    2.4059    0.0209 C.ar      1 <0>        -0.0913
      5 C5         -1.2522    3.7865    0.0334 C.ar      1 <0>        -0.1037
      6 C6         -0.0590    4.4992    0.0259 C.ar      1 <0>        -0.0939
      7 S1         -0.0829    6.2610    0.0356 S.3       1 <0>         0.0520
      8 C7         -1.7981    6.6639    0.0534 C.2       1 <0>        -0.2294
      9 C8         -2.6361    6.8575    1.2414 C.ar      1 <0>        -0.0727
     10 C9         -2.3971    6.7959    2.6159 C.ar      1 <0>        -0.0406
     11 C10        -3.4171    7.0337    3.4930 C.ar      1 <0>        -0.1730
     12 C11        -4.6922    7.3361    3.0284 C.ar      1 <0>         0.1100
     13 C12        -4.9487    7.4017    1.6744 C.ar      1 <0>        -0.1614
     14 C13        -3.9219    7.1626    0.7664 C.ar      1 <0>         0.1409
     15 N1         -3.8690    7.1554   -0.6157 N.pl3     1 <0>        -0.4999
     16 C14        -2.5887    6.8588   -1.0245 C.2       1 <0>         0.1728
     17 C15        -2.5283    6.8403   -2.5399 C.3       1 <0>        -0.0300
     18 H1         -2.0144    7.7281   -2.9370 H         1 <0>         0.1134
     19 C16        -4.0048    6.7424   -2.9815 C.3       1 <0>        -0.1158
     20 C17        -4.7447    7.3695   -1.7824 C.3       1 <0>         0.1096
     21 C18        -1.7403    5.6260   -3.0351 C.3       1 <0>        -0.1506
     22 C19        -1.6647    5.6558   -4.5400 C.2       1 <0>         0.4647
     23 O1         -2.1875    6.5560   -5.1534 O.co2     1 <0>        -0.6403
     24 O2         -1.0166    4.6824   -5.1988 O.co2     1 <0>        -0.7662
     25 F1         -5.6887    7.5681    3.9106 F         1 <0>        -0.1409
     26 Cl1         0.0021   -0.0041    0.0020 Cl        1 <0>        -0.0787
     27 H2          2.0820    4.3702    0.0055 H         1 <0>         0.1356
     28 H3          2.1100    1.9097   -0.0071 H         1 <0>         0.1352
     29 H4         -2.1571    1.8516    0.0227 H         1 <0>         0.1306
     30 H5         -2.1957    4.3120    0.0449 H         1 <0>         0.1290
     31 H6         -1.4094    6.5607    2.9842 H         1 <0>         0.1377
     32 H7         -3.2316    6.9861    4.5558 H         1 <0>         0.1357
     33 H8         -5.9416    7.6375    1.3210 H         1 <0>         0.1314
     34 H9         -4.1461    7.3054   -3.9158 H         1 <0>         0.1169
     35 H10        -4.2693    5.6874   -3.1456 H         1 <0>         0.0836
     36 H11        -5.7133    6.8779   -1.6089 H         1 <0>         0.0852
     37 H12        -4.9022    8.4482   -1.9297 H         1 <0>         0.0863
     38 H13        -0.7235    5.6531   -2.6163 H         1 <0>         0.0805
     39 H14        -2.2457    4.7041   -2.7115 H         1 <0>         0.0622
@<TRIPOS>BOND
     1    1    6 ar
     2    1    2 ar
     3    1   27 1
     4    2    3 ar
     5    2   28 1
     6    3    4 ar
     7    3   26 1
     8    4    5 ar
     9    4   29 1
    10    5    6 ar
    11    5   30 1
    12    6    7 1
    13    7    8 1
    14    8   16 2
    15    8    9 1
    16    9   14 ar
    17    9   10 ar
    18   10   11 ar
    19   10   31 1
    20   11   12 ar
    21   11   32 1
    22   12   13 ar
    23   12   25 1
    24   13   14 ar
    25   13   33 1
    26   14   15 1
    27   15   20 1
    28   15   16 1
    29   16   17 1
    30   17   18 1
    31   17   19 1
    32   17   21 1
    33   19   20 1
    34   19   34 1
    35   19   35 1
    36   20   36 1
    37   20   37 1
    38   21   22 1
    39   21   38 1
    40   21   39 1
    41   22   23 2
    42   22   24 1
@<TRIPOS>MOLECULE
ZINC13437583
   39    40     0     0     0
SMALL
USER_CHARGES

@<TRIPOS>ATOM
      1 C1         -0.0167    1.3791    0.0096 C.ar      1 <0>        -0.1208
      2 C2          1.1686    2.0923    0.0021 C.ar      1 <0>        -0.1177
      3 C3          2.3774    1.4266   -0.0134 C.ar      1 <0>        -0.1048
      4 C4          2.4024    0.0329   -0.0211 C.ar      1 <0>        -0.0333
      5 C5          1.2049   -0.6804   -0.0130 C.ar      1 <0>        -0.1100
      6 C6          0.0021   -0.0041    0.0020 C.ar      1 <0>        -0.1174
      7 C7          3.6982   -0.6881   -0.0382 C.2       1 <0>        -0.0832
      8 C8          4.5318   -0.5910    1.0041 C.2       1 <0>        -0.0930
      9 C9          4.1538    0.2510    2.1954 C.3       1 <0>        -0.1021
     10 C10         4.2252   -0.6001    3.4648 C.3       1 <0>        -0.1137
     11 C11         3.8414    0.2548    4.6743 C.3       1 <0>        -0.0918
     12 C12         3.9129   -0.5963    5.9437 C.3       1 <0>        -0.1836
     13 C13         3.5349    0.2457    7.1350 C.2       1 <0>         0.4876
     14 O1          3.2360    1.4179    6.9828 O.co2     1 <0>        -0.6997
     15 O2          3.5279   -0.2452    8.2509 O.co2     1 <0>        -0.7095
     16 C14         4.0702   -1.5167   -1.2105 C.ar      1 <0>        -0.0806
     17 C15         5.1678   -1.1717   -2.0048 C.ar      1 <0>        -0.0669
     18 C16         5.4739   -1.9779   -3.0874 C.ar      1 <0>        -0.1709
     19 C17         4.6913   -3.0887   -3.3464 C.ar      1 <0>         0.0904
     20 N1          3.6615   -3.3891   -2.5790 N.ar      1 <0>        -0.4833
     21 C18         3.3349   -2.6551   -1.5350 C.ar      1 <0>         0.1096
     22 H1         -0.9603    1.9042    0.0260 H         1 <0>         0.1206
     23 H2          1.1480    3.1720    0.0081 H         1 <0>         0.1229
     24 H3          3.3022    1.9844   -0.0199 H         1 <0>         0.1223
     25 H4          1.2184   -1.7603   -0.0192 H         1 <0>         0.1203
     26 H5         -0.9264   -0.5557    0.0079 H         1 <0>         0.1221
     27 H6          5.4754   -1.1161    0.9916 H         1 <0>         0.1166
     28 H7          4.8443    1.0900    2.2811 H         1 <0>         0.0768
     29 H8          3.1389    0.6274    2.0669 H         1 <0>         0.0776
     30 H9          3.5347   -1.4391    3.3791 H         1 <0>         0.0561
     31 H10         5.2401   -0.9765    3.5933 H         1 <0>         0.0560
     32 H11         4.5320    1.0938    4.7600 H         1 <0>         0.0581
     33 H12         2.8266    0.6312    4.5458 H         1 <0>         0.0581
     34 H13         3.2223   -1.4353    5.8579 H         1 <0>         0.0542
     35 H14         4.9277   -0.9727    6.0721 H         1 <0>         0.0542
     36 H15         5.7616   -0.2982   -1.7796 H         1 <0>         0.1349
     37 H16         6.3144   -1.7421   -3.7232 H         1 <0>         0.1351
     38 H17         4.9271   -3.7198   -4.1905 H         1 <0>         0.1540
     39 H18         2.4872   -2.9359   -0.9275 H         1 <0>         0.1547
@<TRIPOS>BOND
     1    1    6 ar
     2    1    2 ar
     3    1   22 1
     4    2    3 ar
     5    2   23 1
     6    3    4 ar
     7    3   24 1
     8    4    5 ar
     9    4    7 1
    10    5    6 ar
    11    5   25 1
    12    6   26 1
    13    7    8 2
    14    7   16 1
    15    8    9 1
    16    8   27 1
    17    9   10 1
    18    9   28 1
    19    9   29 1
    20   10   11 1
    21   10   30 1
    22   10   31 1
    23   11   12 1
    24   11   32 1
    25   11   33 1
    26   12   13 1
    27   12   34 1
    28   12   35 1
    29   13   14 2
    30   13   15 1
    31   16   21 ar
    32   16   17 ar
    33   17   18 ar
    34   17   36 1
    35   18   19 ar
    36   18   37 1
    37   19   20 ar
    38   19   38 1
    39   20   21 ar
    40   21   39 1
@<TRIPOS>MOLECULE
ZINC01538600
   57    59     0     0     0
SMALL
USER_CHARGES

@<TRIPOS>ATOM
      1 C1         -0.0167    1.3786    0.0096 C.ar      1 <0>        -0.1702
      2 C2          1.1814    2.0722    0.0019 C.ar      1 <0>        -0.0662
      3 C3          2.3715    1.3394   -0.0134 C.ar      1 <0>        -0.0796
      4 C4          2.3056   -0.0530   -0.0202 C.ar      1 <0>         0.1113
      5 N1          1.1415   -0.6689   -0.0129 N.ar      1 <0>        -0.4859
      6 C5          0.0021   -0.0041    0.0020 C.ar      1 <0>         0.0893
      7 C6          3.6829    2.0318   -0.0227 C.2       1 <0>        -0.0926
      8 C7          4.0561    2.7721    1.0278 C.2       1 <0>        -0.0835
      9 C8          5.3887    3.4757    1.0184 C.3       1 <0>        -0.1050
     10 C9          5.1789    4.9688    1.2785 C.3       1 <0>        -0.0855
     11 C10         6.5319    5.6832    1.2689 C.3       1 <0>        -0.1818
     12 C11         6.3252    7.1538    1.5251 C.2       1 <0>         0.4884
     13 O1          5.2001    7.5901    1.6992 O.co2     1 <0>        -0.6994
     14 O2          7.2831    7.9073    1.5582 O.co2     1 <0>        -0.7081
     15 C12         4.5806    1.9040   -1.1961 C.ar      1 <0>        -0.0262
     16 C13         4.1976    2.4266   -2.4302 C.ar      1 <0>        -0.1015
     17 C14         5.0370    2.3046   -3.5188 C.ar      1 <0>        -0.1101
     18 C15         6.2566    1.6652   -3.3868 C.ar      1 <0>        -0.0911
     19 C16         6.6419    1.1445   -2.1645 C.ar      1 <0>        -0.1123
     20 C17         5.8131    1.2657   -1.0677 C.ar      1 <0>        -0.1037
     21 C18         7.1686    1.5348   -4.5794 C.3       1 <0>        -0.0819
     22 C19         8.0995    2.7472   -4.6445 C.3       1 <0>         0.1156
     23 N2          8.9861    2.6204   -5.8039 N.pl3     1 <0>        -1.1159
     24 S1          9.8365    3.9349   -6.3436 S.o2      1 <0>         2.6966
     25 O3         10.6134    3.4908   -7.4474 O.2       1 <0>        -0.9582
     26 O4          8.9073    5.0050   -6.4474 O.2       1 <0>        -0.9487
     27 C20        10.9740    4.3772   -5.0727 C.ar      1 <0>        -0.6793
     28 C21        10.5980    5.2743   -4.0904 C.ar      1 <0>        -0.0049
     29 C22        11.4898    5.6216   -3.0932 C.ar      1 <0>        -0.1266
     30 C23        12.7591    5.0712   -3.0783 C.ar      1 <0>         0.0192
     31 C24        13.1348    4.1735   -4.0617 C.ar      1 <0>        -0.1344
     32 C25        12.2402    3.8227   -5.0551 C.ar      1 <0>        -0.0086
     33 Cl1        13.8800    5.5074   -1.8265 Cl        1 <0>        -0.0520
     34 H1         -0.9558    1.9116    0.0259 H         1 <0>         0.1351
     35 H2          1.1961    3.1521    0.0072 H         1 <0>         0.1373
     36 H3          3.2173   -0.6319   -0.0321 H         1 <0>         0.1534
     37 H4         -0.9308   -0.5483    0.0080 H         1 <0>         0.1530
     38 H5          3.4024    2.8652    1.8824 H         1 <0>         0.1170
     39 H6          6.0261    3.0573    1.7973 H         1 <0>         0.0716
     40 H7          5.8647    3.3394    0.0473 H         1 <0>         0.0726
     41 H8          4.5416    5.3872    0.4995 H         1 <0>         0.0594
     42 H9          4.7030    5.1051    2.2495 H         1 <0>         0.0592
     43 H10         7.1692    5.2647    2.0478 H         1 <0>         0.0545
     44 H11         7.0078    5.5469    0.2978 H         1 <0>         0.0543
     45 H12         3.2455    2.9258   -2.5344 H         1 <0>         0.1211
     46 H13         4.7412    2.7089   -4.4755 H         1 <0>         0.1233
     47 H14         7.5950    0.6460   -2.0674 H         1 <0>         0.1222
     48 H15         6.1171    0.8631   -0.1128 H         1 <0>         0.1240
     49 H16         7.7623    0.6255   -4.4851 H         1 <0>         0.0800
     50 H17         6.5714    1.4859   -5.4899 H         1 <0>         0.0818
     51 H18         7.5059    3.6565   -4.7388 H         1 <0>         0.0867
     52 H19         8.6967    2.7960   -3.7340 H         1 <0>         0.0708
     53 H20         9.0751    1.7665   -6.2553 H         1 <0>         0.4193
     54 H21         9.6073    5.7041   -4.1024 H         1 <0>         0.1529
     55 H22        11.1961    6.3227   -2.3261 H         1 <0>         0.1508
     56 H23        14.1256    3.7438   -4.0507 H         1 <0>         0.1434
     57 H24        12.5318    3.1182   -5.8201 H         1 <0>         0.1487
@<TRIPOS>BOND
     1    1    6 ar
     2    1    2 ar
     3    1   34 1
     4    2    3 ar
     5    2   35 1
     6    3    4 ar
     7    3    7 1
     8    4    5 ar
     9    4   36 1
    10    5    6 ar
    11    6   37 1
    12    7    8 2
    13    7   15 1
    14    8    9 1
    15    8   38 1
    16    9   10 1
    17    9   39 1
    18    9   40 1
    19   10   11 1
    20   10   41 1
    21   10   42 1
    22   11   12 1
    23   11   43 1
    24   11   44 1
    25   12   13 2
    26   12   14 1
    27   15   20 ar
    28   15   16 ar
    29   16   17 ar
    30   16   45 1
    31   17   18 ar
    32   17   46 1
    33   18   19 ar
    34   18   21 1
    35   19   20 ar
    36   19   47 1
    37   20   48 1
    38   21   22 1
    39   21   49 1
    40   21   50 1
    41   22   23 1
    42   22   51 1
    43   22   52 1
    44   23   24 1
    45   23   53 1
    46   24   25 2
    47   24   26 2
    48   24   27 1
    49   27   32 ar
    50   27   28 ar
    51   28   29 ar
    52   28   54 1
    53   29   30 ar
    54   29   55 1
    55   30   31 ar
    56   30   33 1
    57   31   32 ar
    58   31   56 1
    59   32   57 1
@<TRIPOS>MOLECULE
ZINC01536934
   42    43     0     0     0
SMALL
USER_CHARGES
5-[3-pyridyl-[3-(trifluoromethyl)phenyl]-methylene]aminooxypentanoic acid
@<TRIPOS>ATOM
      1 C1          0.6493    1.8443   -1.1875 C.ar      1 <0>        -0.1217
      2 C2          0.6891    3.2181   -1.0616 C.ar      1 <0>        -0.0667
      3 C3         -0.1086    3.8514   -0.1093 C.ar      1 <0>        -0.0902
      4 C4         -0.9425    3.0913    0.7107 C.ar      1 <0>        -0.0234
      5 C5         -0.9771    1.7191    0.5721 C.ar      1 <0>        -0.1825
      6 C6         -0.1793    1.0959   -0.3712 C.ar      1 <0>        -0.0583
      7 C7         -1.8817    0.8968    1.4533 C.3       1 <0>         0.5084
      8 F1         -1.7400   -0.4575    1.1326 F         1 <0>        -0.1775
      9 F2         -1.5350    1.0973    2.7938 F         1 <0>        -0.1759
     10 F3         -3.2099    1.2873    1.2518 F         1 <0>        -0.1688
     11 C8         -0.0702    5.3258    0.0314 C.2       1 <0>         0.2048
     12 N1         -1.1644    5.9842    0.2847 N.2       1 <0>        -0.3140
     13 O1         -2.4090    5.3091    0.3024 O.3       1 <0>        -0.2193
     14 C9         -3.5243    6.1538    0.5936 C.3       1 <0>         0.0704
     15 C10        -4.8090    5.3228    0.5863 C.3       1 <0>        -0.1153
     16 C11        -6.0031    6.2271    0.8981 C.3       1 <0>        -0.0929
     17 C12        -7.2877    5.3961    0.8909 C.3       1 <0>        -0.1566
     18 C13        -8.4639    6.2868    1.1979 C.2       1 <0>         0.4583
     19 O2         -8.2923    7.4653    1.4017 O.co2     1 <0>        -0.6423
     20 C14         1.2134    6.0509   -0.1163 C.ar      1 <0>        -0.0950
     21 C15         1.2326    7.4439   -0.2425 C.ar      1 <0>        -0.0354
     22 C16         2.4574    8.0736   -0.3779 C.ar      1 <0>        -0.1727
     23 C17         3.6126    7.3126   -0.3841 C.ar      1 <0>         0.1106
     24 N2          3.5635    6.0001   -0.2632 N.ar      1 <0>        -0.4820
     25 C18         2.4223    5.3566   -0.1261 C.ar      1 <0>         0.1254
     26 H1          1.2667    1.3527   -1.9248 H         1 <0>         0.1415
     27 H2          1.3364    3.8014   -1.6996 H         1 <0>         0.1381
     28 H3         -1.5625    3.5763    1.4501 H         1 <0>         0.1418
     29 H4         -0.2070    0.0211   -0.4734 H         1 <0>         0.1423
     30 H5         -3.3902    6.6069    1.5758 H         1 <0>         0.0604
     31 H6         -3.5939    6.9369   -0.1614 H         1 <0>         0.0607
     32 H7         -4.9430    4.8696   -0.3959 H         1 <0>         0.0682
     33 H8         -4.7394    4.5397    1.3413 H         1 <0>         0.0680
     34 H9         -5.8690    6.6802    1.8803 H         1 <0>         0.0636
     35 H10        -6.0727    7.0102    0.1431 H         1 <0>         0.0636
     36 H11        -7.4218    4.9430   -0.0914 H         1 <0>         0.0641
     37 H12        -7.2181    4.6130    1.6458 H         1 <0>         0.0644
     38 H13         0.3150    8.0135   -0.2340 H         1 <0>         0.1463
     39 H14         2.5108    9.1477   -0.4772 H         1 <0>         0.1426
     40 H15         4.5701    7.8010   -0.4899 H         1 <0>         0.1608
     41 H16         2.4229    4.2814   -0.0248 H         1 <0>         0.1634
     42 O3         -9.7022    5.7709    1.2451 O.co2     1 <0>        -0.7770
@<TRIPOS>BOND
     1    1    6 ar
     2    1    2 ar
     3    1   26 1
     4    2    3 ar
     5    2   27 1
     6    3    4 ar
     7    3   11 1
     8    4    5 ar
     9    4   28 1
    10    5    6 ar
    11    5    7 1
    12    6   29 1
    13    7    8 1
    14    7    9 1
    15    7   10 1
    16   11   12 2
    17   11   20 1
    18   12   13 1
    19   13   14 1
    20   14   15 1
    21   14   30 1
    22   14   31 1
    23   15   16 1
    24   15   32 1
    25   15   33 1
    26   16   17 1
    27   16   34 1
    28   16   35 1
    29   17   18 1
    30   17   36 1
    31   17   37 1
    32   18   19 2
    33   18   42 1
    34   20   25 ar
    35   20   21 ar
    36   21   22 ar
    37   21   38 1
    38   22   23 ar
    39   22   39 1
    40   23   24 ar
    41   23   40 1
    42   24   25 ar
    43   25   41 1
@<TRIPOS>MOLECULE
ZINC03793091
   63    66     0     0     0
SMALL
USER_CHARGES
3-[2-[[6-[4-(pentylcarbamoyl)oxazol-2-yl]-7-oxabicyclo[2.2.1]hept-5-yl]methyl]phenyl]propanoic acid
@<TRIPOS>ATOM
      1 C1         -3.6721   -7.8847   -0.0093 C.3       1 <0>        -0.1525
      2 C2         -2.4538   -6.9591   -0.0152 C.3       1 <0>        -0.1257
      3 C3         -2.9204   -5.5020   -0.0026 C.3       1 <0>        -0.1154
      4 C4         -1.7021   -4.5764   -0.0085 C.3       1 <0>        -0.1349
      5 C5         -2.1687   -3.1193    0.0041 C.3       1 <0>         0.1200
      6 N1         -1.0022   -2.2330   -0.0015 N.am      1 <0>        -0.7107
      7 C6         -1.1717   -0.8959    0.0077 C.2       1 <0>         0.6072
      8 O1         -2.2930   -0.4252    0.0207 O.2       1 <0>        -0.5426
      9 C7          0.0021   -0.0041    0.0020 C.2       1 <0>        -0.0702
     10 C8         -0.0164    1.3567    0.0095 C.2       1 <0>         0.0082
     11 O2          1.2624    1.7655   -0.0005 O.3       1 <0>        -0.1802
     12 C9          2.0494    0.6805   -0.0139 C.2       1 <0>         0.2165
     13 N2          1.3078   -0.3865   -0.0125 N.2       1 <0>        -0.4527
     14 C10         3.5563    0.6957   -0.0277 C.3       1 <0>        -0.0220
     15 H1          3.9509   -0.3196   -0.0680 H         1 <0>         0.1300
     16 C11         4.1121    1.4551    1.2142 C.3       1 <0>         0.0723
     17 H2          3.5880    1.2657    2.1510 H         1 <0>         0.1328
     18 C12         5.6408    1.1538    1.2311 C.3       1 <0>        -0.1463
     19 C13         6.1705    2.0005    0.0457 C.3       1 <0>        -0.1507
     20 C14         4.8776    2.6786   -0.4987 C.3       1 <0>         0.0699
     21 H3          5.0355    3.5874   -1.0794 H         1 <0>         0.1351
     22 C15         4.0860    1.5424   -1.2131 C.3       1 <0>        -0.1008
     23 H4          4.7470    0.9500   -1.8457 H         1 <0>         0.1020
     24 C16         2.9266    2.1191   -2.0280 C.3       1 <0>        -0.0816
     25 C17         3.4699    2.8323   -3.2393 C.ar      1 <0>        -0.0793
     26 C18         3.6864    4.1972   -3.1987 C.ar      1 <0>        -0.1169
     27 C19         4.1851    4.8512   -4.3095 C.ar      1 <0>        -0.1326
     28 C20         4.4674    4.1405   -5.4613 C.ar      1 <0>        -0.1220
     29 C21         4.2510    2.7760   -5.5019 C.ar      1 <0>        -0.1177
     30 C22         3.7571    2.1210   -4.3890 C.ar      1 <0>        -0.0620
     31 C23         3.5270    0.6322   -4.4313 C.3       1 <0>        -0.0661
     32 C24         2.0683    0.3518   -4.7979 C.3       1 <0>        -0.1485
     33 C25         1.8382   -1.1369   -4.8402 C.2       1 <0>         0.4613
     34 O3          2.7476   -1.8958   -4.6016 O.co2     1 <0>        -0.6404
     35 O4          4.0990    2.8389    0.7323 O.3       1 <0>        -0.3627
     36 H5         -4.2640   -7.7005    0.8872 H         1 <0>         0.0519
     37 H6         -4.2804   -7.6903   -0.8926 H         1 <0>         0.0543
     38 H7         -3.3397   -8.9227   -0.0183 H         1 <0>         0.0522
     39 H8         -1.8619   -7.1433   -0.9117 H         1 <0>         0.0645
     40 H9         -1.8455   -7.1535    0.8681 H         1 <0>         0.0605
     41 H10        -3.5123   -5.3178    0.8939 H         1 <0>         0.0629
     42 H11        -3.5287   -5.3076   -0.8859 H         1 <0>         0.0667
     43 H12        -1.1102   -4.7606   -0.9050 H         1 <0>         0.0758
     44 H13        -1.0938   -4.7708    0.8749 H         1 <0>         0.0684
     45 H14        -2.7606   -2.9351    0.9007 H         1 <0>         0.0670
     46 H15        -2.7770   -2.9249   -0.8792 H         1 <0>         0.0709
     47 H16        -0.1079   -2.6084   -0.0119 H         1 <0>         0.4115
     48 H17        -0.8929    1.9876    0.0173 H         1 <0>         0.2279
     49 H18         6.0885    1.4807    2.1696 H         1 <0>         0.0787
     50 H19         5.8270    0.0927    1.0650 H         1 <0>         0.0819
     51 H20         6.8821    2.7492    0.3936 H         1 <0>         0.0753
     52 H21         6.6237    1.3621   -0.7127 H         1 <0>         0.0810
     53 H22         2.2691    1.3104   -2.3470 H         1 <0>         0.0804
     54 H23         2.3652    2.8228   -1.4135 H         1 <0>         0.0852
     55 H24         3.4662    4.7523   -2.2988 H         1 <0>         0.1182
     56 H25         4.3545    5.9173   -4.2776 H         1 <0>         0.1159
     57 H26         4.8574    4.6515   -6.3291 H         1 <0>         0.1163
     58 H27         4.4720    2.2208   -6.4016 H         1 <0>         0.1203
     59 H28         4.1820    0.1844   -5.1787 H         1 <0>         0.0705
     60 H29         3.7449    0.2030   -3.4533 H         1 <0>         0.0726
     61 H30         1.4133    0.7997   -4.0505 H         1 <0>         0.0588
     62 H31         1.8505    0.7811   -5.7759 H         1 <0>         0.0624
     63 O5          0.6230   -1.6198   -5.1429 O.co2     1 <0>        -0.7732
@<TRIPOS>BOND
     1    1    2 1
     2    1   36 1
     3    1   37 1
     4    1   38 1
     5    2    3 1
     6    2   39 1
     7    2   40 1
     8    3    4 1
     9    3   41 1
    10    3   42 1
    11    4    5 1
    12    4   43 1
    13    4   44 1
    14    5    6 1
    15    5   45 1
    16    5   46 1
    17    6    7 am
    18    6   47 1
    19    7    8 2
    20    7    9 1
    21    9   13 1
    22    9   10 2
    23   10   11 1
    24   10   48 1
    25   11   12 1
    26   12   13 2
    27   12   14 1
    28   14   15 1
    29   14   22 1
    30   14   16 1
    31   16   17 1
    32   16   35 1
    33   16   18 1
    34   18   19 1
    35   18   49 1
    36   18   50 1
    37   19   20 1
    38   19   51 1
    39   19   52 1
    40   20   21 1
    41   20   22 1
    42   20   35 1
    43   22   23 1
    44   22   24 1
    45   24   25 1
    46   24   53 1
    47   24   54 1
    48   25   30 ar
    49   25   26 ar
    50   26   27 ar
    51   26   55 1
    52   27   28 ar
    53   27   56 1
    54   28   29 ar
    55   28   57 1
    56   29   30 ar
    57   29   58 1
    58   30   31 1
    59   31   32 1
    60   31   59 1
    61   31   60 1
    62   32   33 1
    63   32   61 1
    64   32   62 1
    65   33   34 2
    66   33   63 1
@<TRIPOS>MOLECULE
ZINC00538278
   49    52     0     0     0
SMALL
USER_CHARGES

@<TRIPOS>ATOM
      1 C1         -0.0164    1.3617    0.0095 C.ar      1 <0>        -0.1503
      2 C2          1.1695    2.0834    0.0021 C.ar      1 <0>        -0.1098
      3 C3          2.3850    1.4357   -0.0135 C.ar      1 <0>        -0.1187
      4 C4          2.4282    0.0454   -0.0210 C.ar      1 <0>         0.0997
      5 C5          1.2228   -0.6826   -0.0127 C.ar      1 <0>        -0.0952
      6 C6          0.0021   -0.0041    0.0020 C.ar      1 <0>        -0.0789
      7 C7          1.6075   -2.0903   -0.0228 C.2       1 <0>        -0.1953
      8 C8          2.9533   -2.1393   -0.0365 C.2       1 <0>         0.0953
      9 N1          3.4582   -0.8697   -0.0359 N.pl3     1 <0>        -0.4640
     10 C9          4.8835   -0.5316   -0.0495 C.3       1 <0>         0.1265
     11 C10         5.3951   -0.4207    1.3882 C.3       1 <0>        -0.1963
     12 C11         6.8614   -0.0729    1.3742 C.2       1 <0>         0.4965
     13 O1          7.4432    0.0729    0.3128 O.co2     1 <0>        -0.6964
     14 O2          7.4658    0.0628    2.4244 O.co2     1 <0>        -0.6959
     15 C12         3.7446   -3.4271   -0.0513 C.3       1 <0>        -0.0602
     16 C13         2.8104   -4.5680   -0.4693 C.3       1 <0>        -0.1293
     17 C14         1.5368   -4.5231    0.3796 C.3       1 <0>         0.1535
     18 H1          1.8045   -4.4549    1.4340 H         1 <0>         0.0872
     19 C15         0.7052   -3.2972   -0.0174 C.3       1 <0>        -0.0362
     20 N2          0.7542   -5.7404    0.1517 N.pl3     1 <0>        -1.1092
     21 S1          0.9164   -7.0327    1.1744 S.o2      1 <0>         2.6953
     22 O3          0.0195   -8.0327    0.7108 O.2       1 <0>        -0.9592
     23 O4          2.3109   -7.2664    1.3156 O.2       1 <0>        -0.9476
     24 C16         0.3287   -6.5230    2.7554 C.ar      1 <0>        -0.6926
     25 C17         1.1989   -5.9495    3.6637 C.ar      1 <0>         0.0100
     26 C18         0.7389   -5.5488    4.9038 C.ar      1 <0>        -0.1720
     27 C19        -0.5939   -5.7220    5.2364 C.ar      1 <0>         0.1568
     28 C20        -1.4645   -6.2965    4.3258 C.ar      1 <0>        -0.1764
     29 C21        -1.0034   -6.6916    3.0843 C.ar      1 <0>         0.0108
     30 F1         -1.0445   -5.3311    6.4485 F         1 <0>        -0.1292
     31 H2         -0.9614    1.8845    0.0259 H         1 <0>         0.1158
     32 H3          1.1388    3.1629    0.0082 H         1 <0>         0.1203
     33 H4          3.3022    2.0059   -0.0201 H         1 <0>         0.1195
     34 H5         -0.9250   -0.5580    0.0079 H         1 <0>         0.1144
     35 H6          5.4370   -1.3112   -0.5730 H         1 <0>         0.0901
     36 H7          5.0262    0.4207   -0.5603 H         1 <0>         0.0877
     37 H8          4.8417    0.3589    1.9117 H         1 <0>         0.0628
     38 H9          5.2525   -1.3730    1.8990 H         1 <0>         0.0630
     39 H10         4.5643   -3.3449   -0.7651 H         1 <0>         0.0874
     40 H11         4.1411   -3.6246    0.9446 H         1 <0>         0.0878
     41 H12         2.5496   -4.4568   -1.5217 H         1 <0>         0.0764
     42 H13         3.3137   -5.5231   -0.3189 H         1 <0>         0.0884
     43 H14        -0.0989   -3.1503    0.7037 H         1 <0>         0.0738
     44 H15         0.2863   -3.4460   -1.0126 H         1 <0>         0.0754
     45 H16         0.1409   -5.7894   -0.5982 H         1 <0>         0.4202
     46 H17         2.2385   -5.8148    3.4043 H         1 <0>         0.1530
     47 H18         1.4190   -5.1012    5.6134 H         1 <0>         0.1486
     48 H19        -2.5043   -6.4324    4.5842 H         1 <0>         0.1460
     49 H20        -1.6832   -7.1356    2.3722 H         1 <0>         0.1507
@<TRIPOS>BOND
     1    1    6 ar
     2    1    2 ar
     3    1   31 1
     4    2    3 ar
     5    2   32 1
     6    3    4 ar
     7    3   33 1
     8    4    9 1
     9    4    5 ar
    10    5    6 ar
    11    5    7 1
    12    6   34 1
    13    7   19 1
    14    7    8 2
    15    8    9 1
    16    8   15 1
    17    9   10 1
    18   10   11 1
    19   10   35 1
    20   10   36 1
    21   11   12 1
    22   11   37 1
    23   11   38 1
    24   12   13 2
    25   12   14 1
    26   15   16 1
    27   15   39 1
    28   15   40 1
    29   16   17 1
    30   16   41 1
    31   16   42 1
    32   17   18 1
    33   17   19 1
    34   17   20 1
    35   19   43 1
    36   19   44 1
    37   20   21 1
    38   20   45 1
    39   21   22 2
    40   21   23 2
    41   21   24 1
    42   24   29 ar
    43   24   25 ar
    44   25   26 ar
    45   25   46 1
    46   26   27 ar
    47   26   47 1
    48   27   28 ar
    49   27   30 1
    50   28   29 ar
    51   28   48 1
    52   29   49 1
@<TRIPOS>MOLECULE
ZINC03798772
   49    52     0     0     0
SMALL
USER_CHARGES

@<TRIPOS>ATOM
      1 C1         -0.0164    1.3617    0.0095 C.ar      1 <0>        -0.1503
      2 C2          1.1695    2.0834    0.0021 C.ar      1 <0>        -0.1089
      3 C3          2.3851    1.4357   -0.0134 C.ar      1 <0>        -0.1195
      4 C4          2.4282    0.0454   -0.0215 C.ar      1 <0>         0.1005
      5 C5          1.2228   -0.6826   -0.0136 C.ar      1 <0>        -0.0956
      6 C6          0.0021   -0.0041    0.0020 C.ar      1 <0>        -0.0775
      7 C7          1.6074   -2.0902   -0.0259 C.2       1 <0>        -0.1906
      8 C8          2.9532   -2.1394   -0.0392 C.2       1 <0>         0.0922
      9 N1          3.4581   -0.8698   -0.0368 N.pl3     1 <0>        -0.4644
     10 C9          4.8835   -0.5317   -0.0492 C.3       1 <0>         0.1271
     11 C10         5.3943   -0.4225    1.3889 C.3       1 <0>        -0.1965
     12 C11         6.8605   -0.0747    1.3762 C.2       1 <0>         0.4963
     13 O1          7.4430    0.0722    0.3152 O.co2     1 <0>        -0.6964
     14 O2          7.4643    0.0598    2.4268 O.co2     1 <0>        -0.6959
     15 C12         3.7444   -3.4272   -0.0530 C.3       1 <0>        -0.0592
     16 C13         2.8184   -4.5723    0.3718 C.3       1 <0>        -0.1330
     17 C14         1.5284   -4.5190   -0.4515 C.3       1 <0>         0.1483
     18 H1          1.7755   -4.4401   -1.5102 H         1 <0>         0.0978
     19 C15         0.7050   -3.2971   -0.0257 C.3       1 <0>        -0.0344
     20 N2          0.7502   -5.7385   -0.2206 N.pl3     1 <0>        -1.1087
     21 S1          0.8922   -7.0204   -1.2593 S.o2      1 <0>         2.6968
     22 O3          0.0447   -8.0450   -0.7581 O.2       1 <0>        -0.9588
     23 O4          0.7581   -6.4956   -2.5729 O.2       1 <0>        -0.9517
     24 C16         2.5431   -7.6210   -1.1230 C.ar      1 <0>        -0.6929
     25 C17         3.5344   -7.1073   -1.9382 C.ar      1 <0>         0.0105
     26 C18         4.8297   -7.5772   -1.8320 C.ar      1 <0>        -0.1722
     27 C19         5.1344   -8.5628   -0.9085 C.ar      1 <0>         0.1585
     28 C20         4.1407   -9.0765   -0.0925 C.ar      1 <0>        -0.1756
     29 C21         2.8472   -8.6013   -0.1970 C.ar      1 <0>         0.0117
     30 F1          6.4002   -9.0233   -0.8040 F         1 <0>        -0.1284
     31 H2         -0.9614    1.8845    0.0259 H         1 <0>         0.1163
     32 H3          1.1388    3.1629    0.0082 H         1 <0>         0.1204
     33 H4          3.3023    2.0058   -0.0197 H         1 <0>         0.1193
     34 H5         -0.9250   -0.5580    0.0085 H         1 <0>         0.1157
     35 H6          5.4372   -1.3108   -0.5732 H         1 <0>         0.0890
     36 H7          5.0265    0.4211   -0.5589 H         1 <0>         0.0881
     37 H8          4.8406    0.3566    1.9129 H         1 <0>         0.0634
     38 H9          5.2513   -1.3753    1.8986 H         1 <0>         0.0621
     39 H10         4.1211   -3.6147   -1.0585 H         1 <0>         0.0844
     40 H11         4.5781   -3.3522    0.6452 H         1 <0>         0.0879
     41 H12         3.3185   -5.5258    0.2020 H         1 <0>         0.0744
     42 H13         2.5783   -4.4716    1.4302 H         1 <0>         0.0799
     43 H14         0.3055   -3.4557    0.9759 H         1 <0>         0.0752
     44 H15        -0.1129   -3.1431   -0.7296 H         1 <0>         0.0780
     45 H16         0.1518   -5.7951    0.5407 H         1 <0>         0.4205
     46 H17         3.2964   -6.3388   -2.6587 H         1 <0>         0.1515
     47 H18         5.6039   -7.1760   -2.4692 H         1 <0>         0.1485
     48 H19         4.3772   -9.8456    0.6279 H         1 <0>         0.1461
     49 H20         2.0729   -8.9987    0.4425 H         1 <0>         0.1505
@<TRIPOS>BOND
     1    1    6 ar
     2    1    2 ar
     3    1   31 1
     4    2    3 ar
     5    2   32 1
     6    3    4 ar
     7    3   33 1
     8    4    9 1
     9    4    5 ar
    10    5    6 ar
    11    5    7 1
    12    6   34 1
    13    7   19 1
    14    7    8 2
    15    8    9 1
    16    8   15 1
    17    9   10 1
    18   10   11 1
    19   10   35 1
    20   10   36 1
    21   11   12 1
    22   11   37 1
    23   11   38 1
    24   12   13 2
    25   12   14 1
    26   15   16 1
    27   15   39 1
    28   15   40 1
    29   16   17 1
    30   16   41 1
    31   16   42 1
    32   17   18 1
    33   17   19 1
    34   17   20 1
    35   19   43 1
    36   19   44 1
    37   20   21 1
    38   20   45 1
    39   21   22 2
    40   21   23 2
    41   21   24 1
    42   24   29 ar
    43   24   25 ar
    44   25   26 ar
    45   25   46 1
    46   26   27 ar
    47   26   47 1
    48   27   28 ar
    49   27   30 1
    50   28   29 ar
    51   28   48 1
    52   29   49 1
@<TRIPOS>MOLECULE
ZINC03794314
   56    58     0     0     0
SMALL
USER_CHARGES
7-[6-[(N'-(phenylcarbamoyl)hydrazino)methyl]-7-oxabicyclo[2.2.1]hept-5-yl]hept-5-enoic acid
@<TRIPOS>ATOM
      1 C1         -1.8752    1.5922   -1.2220 C.ar      1 <0>        -0.1389
      2 C2         -1.5570    0.3300   -1.6888 C.ar      1 <0>        -0.1029
      3 C3         -0.2769   -0.1638   -1.5312 C.ar      1 <0>        -0.1485
      4 C4          0.6941    0.6130   -0.9130 C.ar      1 <0>         0.1628
      5 C5          0.3728    1.8822   -0.4500 C.ar      1 <0>        -0.1206
      6 C6         -0.9107    2.3680   -0.6056 C.ar      1 <0>        -0.1021
      7 N1          1.9936    0.1177   -0.7565 N.am      1 <0>        -0.6790
      8 C7          3.0487    0.9505   -0.8555 C.2       1 <0>         0.7173
      9 O1          2.8698    2.1485   -0.9601 O.2       1 <0>        -0.5703
     10 N2          4.3020    0.4552   -0.8384 N.am      1 <0>        -0.5835
     11 N3          4.5030   -0.8908   -0.7207 N.3       1 <0>        -0.4534
     12 C8          5.9366   -1.2113   -0.7235 C.3       1 <0>         0.0441
     13 C9          6.1212   -2.7243   -0.5904 C.3       1 <0>        -0.1050
     14 H1          5.5940   -3.2478   -1.3879 H         1 <0>         0.0856
     15 C10         5.6397   -3.2183    0.8068 C.3       1 <0>         0.0745
     16 H2          4.7301   -2.7483    1.1807 H         1 <0>         0.1347
     17 C11         5.5936   -4.7723    0.7007 C.3       1 <0>        -0.1495
     18 C12         7.0942   -5.1606    0.6980 C.3       1 <0>        -0.1479
     19 C13         7.8080   -3.7795    0.8028 C.3       1 <0>         0.0663
     20 H3          8.8285   -3.8086    1.1849 H         1 <0>         0.1278
     21 C14         7.6261   -3.0955   -0.5856 C.3       1 <0>        -0.0963
     22 H4          7.8511   -3.8063   -1.3807 H         1 <0>         0.0855
     23 C15         8.4940   -1.8422   -0.7153 C.3       1 <0>        -0.0941
     24 C16         9.9420   -2.2436   -0.8311 C.2       1 <0>        -0.1793
     25 C17        10.6619   -1.8151   -1.8381 C.2       1 <0>        -0.1355
     26 C18        10.1069   -0.7689   -2.7700 C.3       1 <0>        -0.1029
     27 C19        11.0940    0.3954   -2.8754 C.3       1 <0>        -0.0922
     28 C20        10.5305    1.4576   -3.8215 C.3       1 <0>        -0.1576
     29 C21        11.5027    2.6044   -3.9254 C.2       1 <0>         0.4570
     30 O2         12.5399    2.5751   -3.3062 O.co2     1 <0>        -0.6416
     31 O3          6.8430   -3.0057    1.6154 O.3       1 <0>        -0.3703
     32 H5         -2.8780    1.9744   -1.3427 H         1 <0>         0.1211
     33 H6         -2.3114   -0.2717   -2.1738 H         1 <0>         0.1242
     34 H7         -0.0301   -1.1512   -1.8923 H         1 <0>         0.1235
     35 H8          1.1259    2.4889    0.0309 H         1 <0>         0.1421
     36 H9         -1.1612    3.3550   -0.2457 H         1 <0>         0.1245
     37 H10         2.1350   -0.8250   -0.5768 H         1 <0>         0.4120
     38 H11         5.0614    1.0545   -0.9096 H         1 <0>         0.4206
     39 H12         4.0186   -1.3937   -1.4491 H         1 <0>         0.3290
     40 H13         6.3830   -0.8716   -1.6581 H         1 <0>         0.0550
     41 H14         6.4224   -0.7109    0.1142 H         1 <0>         0.0990
     42 H15         5.0848   -5.2032    1.5630 H         1 <0>         0.0725
     43 H16         5.1100   -5.0819   -0.2257 H         1 <0>         0.0749
     44 H17         7.3330   -5.7850    1.5589 H         1 <0>         0.0726
     45 H18         7.3605   -5.6666   -0.2300 H         1 <0>         0.0761
     46 H19         8.1988   -1.2864   -1.6053 H         1 <0>         0.0825
     47 H20         8.3602   -1.2148    0.1659 H         1 <0>         0.0754
     48 H21        10.3860   -2.8844   -0.0838 H         1 <0>         0.1049
     49 H22        11.6533   -2.2117   -2.0006 H         1 <0>         0.1076
     50 H23         9.9536   -1.2057   -3.7568 H         1 <0>         0.0647
     51 H24         9.1556   -0.4047   -2.3821 H         1 <0>         0.0682
     52 H25        11.2473    0.8323   -1.8886 H         1 <0>         0.0608
     53 H26        12.0453    0.0312   -3.2633 H         1 <0>         0.0605
     54 H27        10.3772    1.0208   -4.8083 H         1 <0>         0.0615
     55 H28         9.5792    1.8218   -3.4336 H         1 <0>         0.0606
     56 O4         11.2165    3.6584   -4.7057 O.co2     1 <0>        -0.7780
@<TRIPOS>BOND
     1    1    6 ar
     2    1    2 ar
     3    1   32 1
     4    2    3 ar
     5    2   33 1
     6    3    4 ar
     7    3   34 1
     8    4    5 ar
     9    4    7 1
    10    5    6 ar
    11    5   35 1
    12    6   36 1
    13    7    8 am
    14    7   37 1
    15    8    9 2
    16    8   10 am
    17   10   11 1
    18   10   38 1
    19   11   12 1
    20   11   39 1
    21   12   13 1
    22   12   40 1
    23   12   41 1
    24   13   14 1
    25   13   21 1
    26   13   15 1
    27   15   16 1
    28   15   31 1
    29   15   17 1
    30   17   18 1
    31   17   42 1
    32   17   43 1
    33   18   19 1
    34   18   44 1
    35   18   45 1
    36   19   20 1
    37   19   21 1
    38   19   31 1
    39   21   22 1
    40   21   23 1
    41   23   24 1
    42   23   46 1
    43   23   47 1
    44   24   25 2
    45   24   48 1
    46   25   26 1
    47   25   49 1
    48   26   27 1
    49   26   50 1
    50   26   51 1
    51   27   28 1
    52   27   52 1
    53   27   53 1
    54   28   29 1
    55   28   54 1
    56   28   55 1
    57   29   30 2
    58   29   56 1
@<TRIPOS>MOLECULE
ZINC13815393
   56    58     0     0     0
SMALL
USER_CHARGES
(Z)-7-[(1R,4S,5R,6S)-6-[(N'-(phenylcarbamoyl)hydrazino)methyl]-7-oxabicyclo[2.2.1]heptan-5-yl]hept-5-enoic acid
@<TRIPOS>ATOM
      1 C1         -5.2516    8.8289    6.1051 C.ar      1 <0>        -0.1365
      2 C2         -3.8928    8.8694    6.3588 C.ar      1 <0>        -0.0982
      3 C3         -2.9974    8.9940    5.3146 C.ar      1 <0>        -0.1412
      4 C4         -3.4633    9.0890    4.0099 C.ar      1 <0>         0.1584
      5 C5         -4.8286    9.0533    3.7590 C.ar      1 <0>        -0.1216
      6 C6         -5.7187    8.9233    4.8071 C.ar      1 <0>        -0.1063
      7 N1         -2.5588    9.2211    2.9502 N.am      1 <0>        -0.6748
      8 C7         -2.8185    8.6335    1.7654 C.2       1 <0>         0.7187
      9 O1         -3.8767    8.0611    1.5897 O.2       1 <0>        -0.5764
     10 N2         -1.9051    8.6803    0.7755 N.am      1 <0>        -0.5872
     11 N3         -0.7162    9.3233    0.9729 N.3       1 <0>        -0.4495
     12 C8          0.1260    9.2534   -0.2286 C.3       1 <0>         0.0462
     13 C9          1.4458    9.9829    0.0305 C.3       1 <0>        -0.1100
     14 H1          1.9456    9.5736    0.9084 H         1 <0>         0.0898
     15 C10         2.3715    9.9103   -1.2207 C.3       1 <0>         0.0709
     16 H2          2.9554    8.9949   -1.3176 H         1 <0>         0.1286
     17 C11         1.4528   10.2482   -2.4331 C.3       1 <0>        -0.1572
     18 C12         1.2155   11.7712   -2.2697 C.3       1 <0>        -0.1492
     19 C13         2.0287   12.1111   -0.9847 C.3       1 <0>         0.0650
     20 H3          2.3067   13.1589   -0.8711 H         1 <0>         0.1292
     21 C14         1.2085   11.5059    0.1938 C.3       1 <0>        -0.0923
     22 H4          0.1501   11.7451    0.0906 H         1 <0>         0.0939
     23 C15         1.7482   11.9974    1.5385 C.3       1 <0>        -0.0864
     24 C16         1.3947   13.4510    1.7206 C.2       1 <0>        -0.1773
     25 C17         0.7794   13.8442    2.8082 C.2       1 <0>        -0.1357
     26 C18         0.5836   12.8832    3.9524 C.3       1 <0>        -0.1013
     27 C19         1.1278   13.5054    5.2399 C.3       1 <0>        -0.0925
     28 C20         0.9290   12.5297    6.4015 C.3       1 <0>        -0.1562
     29 C21         1.4650   13.1426    7.6696 C.2       1 <0>         0.4569
     30 O2          1.9556   14.2465    7.6467 O.co2     1 <0>        -0.6421
     31 O3          3.1340   11.1542   -1.0846 O.3       1 <0>        -0.3671
     32 H5         -5.9496    8.7277    6.9230 H         1 <0>         0.1213
     33 H6         -3.5313    8.7996    7.3741 H         1 <0>         0.1285
     34 H7         -1.9361    9.0218    5.5131 H         1 <0>         0.1280
     35 H8         -5.1941    9.1273    2.7454 H         1 <0>         0.1374
     36 H9         -6.7807    8.8951    4.6125 H         1 <0>         0.1222
     37 H10        -1.7450    9.7356    3.0684 H         1 <0>         0.4147
     38 H11        -2.0920    8.2574   -0.0772 H         1 <0>         0.4144
     39 H12        -0.2323    8.9503    1.7759 H         1 <0>         0.3353
     40 H13         0.3289    8.2100   -0.4699 H         1 <0>         0.0474
     41 H14        -0.3921    9.7253   -1.0635 H         1 <0>         0.0961
     42 H15         0.5119    9.7017   -2.3686 H         1 <0>         0.0806
     43 H16         1.9578   10.0349   -3.3752 H         1 <0>         0.0725
     44 H17         0.1564   11.9836   -2.1239 H         1 <0>         0.0763
     45 H18         1.6032   12.3195   -3.1283 H         1 <0>         0.0716
     46 H19         1.3048   11.4120    2.3439 H         1 <0>         0.0816
     47 H20         2.8318   11.8817    1.5593 H         1 <0>         0.0695
     48 H21         1.6487   14.1686    0.9545 H         1 <0>         0.1021
     49 H22         0.4124   14.8570    2.8849 H         1 <0>         0.1052
     50 H23        -0.4791   12.6721    4.0718 H         1 <0>         0.0646
     51 H24         1.1170   11.9559    3.7434 H         1 <0>         0.0704
     52 H25         2.1904   13.7165    5.1205 H         1 <0>         0.0595
     53 H26         0.5944   14.4327    5.4489 H         1 <0>         0.0592
     54 H27        -0.1337   12.3186    6.5209 H         1 <0>         0.0618
     55 H28         1.4624   11.6024    6.1925 H         1 <0>         0.0604
     56 O4          1.3973   12.4622    8.8247 O.co2     1 <0>        -0.7791
@<TRIPOS>BOND
     1    1    6 ar
     2    1    2 ar
     3    1   32 1
     4    2    3 ar
     5    2   33 1
     6    3    4 ar
     7    3   34 1
     8    4    5 ar
     9    4    7 1
    10    5    6 ar
    11    5   35 1
    12    6   36 1
    13    7    8 am
    14    7   37 1
    15    8    9 2
    16    8   10 am
    17   10   11 1
    18   10   38 1
    19   11   12 1
    20   11   39 1
    21   12   13 1
    22   12   40 1
    23   12   41 1
    24   13   14 1
    25   13   21 1
    26   13   15 1
    27   15   16 1
    28   15   31 1
    29   15   17 1
    30   17   18 1
    31   17   42 1
    32   17   43 1
    33   18   19 1
    34   18   44 1
    35   18   45 1
    36   19   20 1
    37   19   21 1
    38   19   31 1
    39   21   22 1
    40   21   23 1
    41   23   24 1
    42   23   46 1
    43   23   47 1
    44   24   25 2
    45   24   48 1
    46   25   26 1
    47   25   49 1
    48   26   27 1
    49   26   50 1
    50   26   51 1
    51   27   28 1
    52   27   52 1
    53   27   53 1
    54   28   29 1
    55   28   54 1
    56   28   55 1
    57   29   30 2
    58   29   56 1
@<TRIPOS>MOLECULE
ZINC26945880
   48    51     0     0     0
SMALL
USER_CHARGES
methyl 4-[[1-[(4-chlorophenyl)methyl]benzimidazol-2-yl]sulfanylmethyl]benzoate
@<TRIPOS>ATOM
      1 C1          2.2455    5.6963    0.0102 C.3       1 <0>         0.0326
      2 O1          2.3336    4.2470    0.0021 O.3       1 <0>        -0.3544
      3 C2          1.1726    3.5637    0.0095 C.2       1 <0>         0.5069
      4 O2          0.1157    4.1623    0.0224 O.2       1 <0>        -0.5018
      5 C3          1.1849    2.0865    0.0020 C.ar      1 <0>        -0.1183
      6 C4         -0.0166    1.3752    0.0096 C.ar      1 <0>        -0.0525
      7 C5          0.0021   -0.0041    0.0020 C.ar      1 <0>        -0.1097
      8 C6          1.2078   -0.6827   -0.0131 C.ar      1 <0>        -0.0478
      9 C7          2.4021    0.0160   -0.0203 C.ar      1 <0>        -0.1118
     10 C8          2.3980    1.3954   -0.0124 C.ar      1 <0>        -0.0598
     11 C9          1.2203   -2.1896   -0.0214 C.3       1 <0>        -0.0676
     12 S1          1.2090   -2.7838   -1.7310 S.3       1 <0>         0.0026
     13 C10         1.2262   -4.5232   -1.4506 C.2       1 <0>         0.2610
     14 N1          1.2417   -5.0959   -0.2719 N.2       1 <0>        -0.4908
     15 C11         1.2517   -6.4465   -0.4210 C.ar      1 <0>         0.0564
     16 C12         1.2689   -7.5116    0.4832 C.ar      1 <0>        -0.0650
     17 C13         1.2756   -8.8063    0.0146 C.ar      1 <0>        -0.1249
     18 C14         1.2658   -9.0615   -1.3487 C.ar      1 <0>        -0.0985
     19 C15         1.2484   -8.0208   -2.2544 C.ar      1 <0>        -0.1107
     20 C16         1.2414   -6.7107   -1.8005 C.ar      1 <0>         0.0598
     21 N2          1.2194   -5.4765   -2.4294 N.pl3     1 <0>        -0.4696
     22 C17         1.1964   -5.2379   -3.8746 C.3       1 <0>         0.1485
     23 C18         2.6092   -5.1455   -4.3910 C.ar      1 <0>        -0.1171
     24 C19         3.2490   -3.9210   -4.4380 C.ar      1 <0>        -0.0813
     25 C20         4.5467   -3.8365   -4.9062 C.ar      1 <0>        -0.1095
     26 C21         5.2014   -4.9760   -5.3385 C.ar      1 <0>        -0.0230
     27 C22         4.5585   -6.2004   -5.2966 C.ar      1 <0>        -0.1111
     28 C23         3.2628   -6.2845   -4.8229 C.ar      1 <0>        -0.0831
     29 Cl1         6.8290   -4.8697   -5.9329 Cl        1 <0>        -0.0627
     30 H1          3.2584    6.1252    0.0029 H         1 <0>         0.1067
     31 H2          1.7141    6.0263    0.9150 H         1 <0>         0.0664
     32 H3          1.6973    6.0353   -0.8812 H         1 <0>         0.0664
     33 H4         -0.9585    1.9037    0.0169 H         1 <0>         0.1426
     34 H5         -0.9265   -0.5555    0.0083 H         1 <0>         0.1387
     35 H6          3.3397   -0.5199   -0.0318 H         1 <0>         0.1374
     36 H7          3.3309    1.9395   -0.0173 H         1 <0>         0.1432
     37 H8          2.1264   -2.5515    0.4866 H         1 <0>         0.1139
     38 H9          0.3302   -2.5666    0.5037 H         1 <0>         0.1139
     39 H10         1.2766   -7.3200    1.5460 H         1 <0>         0.1300
     40 H11         1.2888   -9.6292    0.7138 H         1 <0>         0.1315
     41 H12         1.2715  -10.0815   -1.7036 H         1 <0>         0.1317
     42 H13         1.2408   -8.2262   -3.3147 H         1 <0>         0.1208
     43 H14         0.6766   -6.0682   -4.3751 H         1 <0>         0.1074
     44 H15         0.6677   -4.2959   -4.0824 H         1 <0>         0.1079
     45 H16         2.7363   -3.0308   -4.1046 H         1 <0>         0.1367
     46 H17         5.0479   -2.8804   -4.9387 H         1 <0>         0.1387
     47 H18         5.0692   -7.0904   -5.6336 H         1 <0>         0.1374
     48 H19         2.7611   -7.2403   -4.7898 H         1 <0>         0.1317
@<TRIPOS>BOND
     1    1    2 1
     2    1   30 1
     3    1   31 1
     4    1   32 1
     5    2    3 1
     6    3    4 2
     7    3    5 1
     8    5   10 ar
     9    5    6 ar
    10    6    7 ar
    11    6   33 1
    12    7    8 ar
    13    7   34 1
    14    8    9 ar
    15    8   11 1
    16    9   10 ar
    17    9   35 1
    18   10   36 1
    19   11   12 1
    20   11   37 1
    21   11   38 1
    22   12   13 1
    23   13   21 1
    24   13   14 2
    25   14   15 1
    26   15   20 ar
    27   15   16 ar
    28   16   17 ar
    29   16   39 1
    30   17   18 ar
    31   17   40 1
    32   18   19 ar
    33   18   41 1
    34   19   20 ar
    35   19   42 1
    36   20   21 1
    37   21   22 1
    38   22   23 1
    39   22   43 1
    40   22   44 1
    41   23   28 ar
    42   23   24 ar
    43   24   25 ar
    44   24   45 1
    45   25   26 ar
    46   25   46 1
    47   26   27 ar
    48   26   29 1
    49   27   28 ar
    50   27   47 1
    51   28   48 1
@<TRIPOS>MOLECULE
ZINC13649924
   57    59     0     0     0
SMALL
USER_CHARGES
(Z)-7-[(1R,4S,5R,6R)-6-[(E,3R)-3-hydroxy-4-(4-iodophenoxy)but-1-enyl]-7-oxabicyclo[2.2.1]heptan-5-yl]hept-5-enoic acid
@<TRIPOS>ATOM
      1 C1          0.2719   10.0843   -6.3505 C.ar      1 <0>        -0.2074
      2 C2          0.3900   11.3855   -6.7992 C.ar      1 <0>        -0.0431
      3 C3          0.8964   11.6397   -8.0609 C.ar      1 <0>        -0.1402
      4 C4          1.2902   10.5926   -8.8743 C.ar      1 <0>        -0.0451
      5 C5          1.1792    9.2901   -8.4275 C.ar      1 <0>        -0.1476
      6 C6          0.6719    9.0328   -7.1622 C.ar      1 <0>         0.1518
      7 O1          0.5619    7.7522   -6.7206 O.3       1 <0>        -0.2998
      8 C7          0.0312    7.5621   -5.4075 C.3       1 <0>         0.0302
      9 C8         -0.0163    6.0665   -5.0882 C.3       1 <0>         0.1438
     10 H1          0.9753    5.6346   -5.2229 H         1 <0>         0.1211
     11 C9         -0.4596    5.8714   -3.6611 C.2       1 <0>        -0.2019
     12 C10        -1.4918    5.1102   -3.3942 C.2       1 <0>        -0.1190
     13 C11        -1.9351    4.9150   -1.9671 C.3       1 <0>        -0.0882
     14 H2         -1.2554    5.4199   -1.2807 H         1 <0>         0.0896
     15 C12        -3.3975    5.4154   -1.7700 C.3       1 <0>         0.0714
     16 H3         -3.5063    6.4872   -1.6036 H         1 <0>         0.1273
     17 C13        -4.1954    4.8428   -2.9797 C.3       1 <0>        -0.1537
     18 C14        -4.3000    3.3344   -2.6386 C.3       1 <0>        -0.1492
     19 C15        -3.5487    3.2358   -1.2771 C.3       1 <0>         0.0674
     20 H4         -3.7923    2.3632   -0.6710 H         1 <0>         0.1299
     21 C16        -2.0397    3.4066   -1.6260 C.3       1 <0>        -0.0961
     22 H5         -1.7681    2.7962   -2.4872 H         1 <0>         0.0865
     23 C17        -1.1623    3.0613   -0.4211 C.3       1 <0>        -0.0901
     24 C18        -1.1889    1.5723   -0.1906 C.2       1 <0>        -0.1790
     25 C19        -0.0667    0.9004   -0.1182 C.2       1 <0>        -0.1353
     26 C20         1.2502    1.6330   -0.1006 C.3       1 <0>        -0.1040
     27 C21         2.0793    1.1630    1.0963 C.3       1 <0>        -0.0921
     28 C22         3.4163    1.9067    1.1142 C.3       1 <0>        -0.1577
     29 C23         4.2329    1.4437    2.2931 C.2       1 <0>         0.4572
     30 O2          3.7909    0.6050    3.0422 O.co2     1 <0>        -0.6418
     31 O3         -3.8550    4.5414   -0.6865 O.3       1 <0>        -0.3690
     32 O4         -0.9404    5.4210   -5.9665 O.3       1 <0>        -0.5467
     33 I1          1.0667   13.6138   -8.7414 I         1 <0>        -0.0453
     34 H6         -0.1274    9.8860   -5.3668 H         1 <0>         0.1357
     35 H7          0.0828   12.2046   -6.1659 H         1 <0>         0.1316
     36 H8          1.6850   10.7934   -9.8593 H         1 <0>         0.1359
     37 H9          1.4874    8.4728   -9.0627 H         1 <0>         0.1405
     38 H10        -0.9760    7.9761   -5.3592 H         1 <0>         0.0691
     39 H11         0.6674    8.0685   -4.6816 H         1 <0>         0.0774
     40 H12         0.0737    6.3591   -2.8585 H         1 <0>         0.1233
     41 H13        -2.0250    4.6225   -4.1968 H         1 <0>         0.1251
     42 H14        -5.1854    5.2950   -3.0383 H         1 <0>         0.0706
     43 H15        -3.6477    4.9941   -3.9100 H         1 <0>         0.0810
     44 H16        -5.3421    3.0350   -2.5272 H         1 <0>         0.0720
     45 H17        -3.8030    2.7313   -3.3985 H         1 <0>         0.0764
     46 H18        -1.5420    3.5727    0.4634 H         1 <0>         0.0726
     47 H19        -0.1381    3.3808   -0.6139 H         1 <0>         0.0811
     48 H20        -2.1333    1.0590   -0.0850 H         1 <0>         0.1040
     49 H21        -0.0850   -0.1786   -0.0757 H         1 <0>         0.1071
     50 H22         1.7935    1.4259   -1.0226 H         1 <0>         0.0652
     51 H23         1.0688    2.7046   -0.0186 H         1 <0>         0.0706
     52 H24         1.5360    1.3700    2.0183 H         1 <0>         0.0601
     53 H25         2.2607    0.0913    1.0143 H         1 <0>         0.0599
     54 H26         3.9595    1.6996    0.1921 H         1 <0>         0.0618
     55 H27         3.2349    2.9783    1.1962 H         1 <0>         0.0611
     56 H28        -1.8452    5.7558   -5.9005 H         1 <0>         0.3728
     57 O5          5.4513    1.9631    2.5110 O.co2     1 <0>        -0.7791
@<TRIPOS>BOND
     1    1    6 ar
     2    1    2 ar
     3    1   34 1
     4    2    3 ar
     5    2   35 1
     6    3    4 ar
     7    3   33 1
     8    4    5 ar
     9    4   36 1
    10    5    6 ar
    11    5   37 1
    12    6    7 1
    13    7    8 1
    14    8    9 1
    15    8   38 1
    16    8   39 1
    17    9   10 1
    18    9   11 1
    19    9   32 1
    20   11   12 2
    21   11   40 1
    22   12   13 1
    23   12   41 1
    24   13   14 1
    25   13   21 1
    26   13   15 1
    27   15   16 1
    28   15   31 1
    29   15   17 1
    30   17   18 1
    31   17   42 1
    32   17   43 1
    33   18   19 1
    34   18   44 1
    35   18   45 1
    36   19   20 1
    37   19   21 1
    38   19   31 1
    39   21   22 1
    40   21   23 1
    41   23   24 1
    42   23   46 1
    43   23   47 1
    44   24   25 2
    45   24   48 1
    46   25   26 1
    47   25   49 1
    48   26   27 1
    49   26   50 1
    50   26   51 1
    51   27   28 1
    52   27   52 1
    53   27   53 1
    54   28   29 1
    55   28   54 1
    56   28   55 1
    57   29   30 2
    58   29   57 1
    59   32   56 1
@<TRIPOS>MOLECULE
ZINC27646610
   47    50     0     0     0
SMALL
USER_CHARGES
2-[(3S)-4-[(4-chlorophenyl)methyl]-7-fluoro-5-methylsulfonyl-2,3-dihydro-1H-cyclopenta[b]indol-3-yl]acetic acid
@<TRIPOS>ATOM
      1 C1          6.6124    3.3508   -1.8939 C.3       1 <0>        -0.6698
      2 S1          7.2485    1.9458   -0.9389 S.o2      1 <0>         2.4819
      3 O1          7.3367    2.2891    0.4372 O.2       1 <0>        -0.9110
      4 O2          8.3537    1.3575   -1.6110 O.2       1 <0>        -0.9369
      5 C2          5.9752    0.7305   -1.0185 C.ar      1 <0>        -0.6399
      6 C3          6.1622   -0.4166   -1.7578 C.ar      1 <0>        -0.0295
      7 C4          5.1662   -1.3834   -1.8307 C.ar      1 <0>         0.0436
      8 C5          3.9744   -1.2065   -1.1612 C.ar      1 <0>        -0.0463
      9 C6          3.7725   -0.0487   -0.4074 C.ar      1 <0>        -0.0674
     10 C7          4.7799    0.9287   -0.3351 C.ar      1 <0>         0.1734
     11 N1          4.3042    1.9416    0.4664 N.pl3     1 <0>        -0.4626
     12 C8          3.0359    1.6403    0.9037 C.2       1 <0>         0.0883
     13 C9          2.6614    0.4517    0.4092 C.2       1 <0>        -0.1903
     14 C10         1.2670    0.0949    0.8760 C.3       1 <0>        -0.0516
     15 C11         0.9986    1.0291    2.0761 C.3       1 <0>        -0.0893
     16 C12         1.9292    2.2206    1.7635 C.3       1 <0>         0.0008
     17 H1          1.4097    3.0430    1.2499 H         1 <0>         0.1008
     18 C13         2.5080    2.7973    3.0570 C.3       1 <0>        -0.1554
     19 C14         1.4187    3.5006    3.8250 C.2       1 <0>         0.4621
     20 O3          0.2948    3.5369    3.3831 O.co2     1 <0>        -0.6387
     21 O4          1.6971    4.0867    5.0001 O.co2     1 <0>        -0.7695
     22 C15         5.0412    3.1619    0.8041 C.3       1 <0>         0.1307
     23 C16         5.6893    2.9997    2.1549 C.ar      1 <0>        -0.0515
     24 C17         6.3283    4.0726    2.7479 C.ar      1 <0>        -0.0926
     25 C18         6.9180    3.9260    3.9894 C.ar      1 <0>        -0.1044
     26 C19         6.8783    2.7022    4.6335 C.ar      1 <0>        -0.0307
     27 C20         6.2435    1.6273    4.0370 C.ar      1 <0>        -0.1047
     28 C21         5.6494    1.7767    2.7981 C.ar      1 <0>        -0.0780
     29 Cl1         7.6244    2.5156    6.1899 Cl        1 <0>        -0.0814
     30 F1          5.3671   -2.5017   -2.5617 F         1 <0>        -0.1390
     31 H2          6.5487    3.0732   -2.9564 H         1 <0>         0.1388
     32 H3          7.2906    4.2092   -1.7792 H         1 <0>         0.1403
     33 H4          5.6122    3.6220   -1.5252 H         1 <0>         0.1346
     34 H5          7.0920   -0.5661   -2.2865 H         1 <0>         0.1570
     35 H6          3.1999   -1.9566   -1.2229 H         1 <0>         0.1431
     36 H7          0.5514    0.2670    0.0585 H         1 <0>         0.0735
     37 H8          1.2389   -0.9645    1.1709 H         1 <0>         0.0677
     38 H9         -0.0660    1.3052    2.0949 H         1 <0>         0.0924
     39 H10         1.2594    0.5101    3.0103 H         1 <0>         0.0720
     40 H11         2.9207    1.9821    3.6694 H         1 <0>         0.0661
     41 H12         3.3065    3.5138    2.8140 H         1 <0>         0.0639
     42 H13         5.8162    3.3441    0.0450 H         1 <0>         0.0904
     43 H14         4.3465    4.0143    0.8307 H         1 <0>         0.1097
     44 H15         6.3630    5.0267    2.2430 H         1 <0>         0.1282
     45 H16         7.4134    4.7654    4.4545 H         1 <0>         0.1309
     46 H17         6.2120    0.6719    4.5395 H         1 <0>         0.1279
     47 H18         5.1535    0.9378    2.3325 H         1 <0>         0.1228
@<TRIPOS>BOND
     1    1    2 1
     2    1   31 1
     3    1   32 1
     4    1   33 1
     5    2    3 2
     6    2    4 2
     7    2    5 1
     8    5   10 ar
     9    5    6 ar
    10    6    7 ar
    11    6   34 1
    12    7    8 ar
    13    7   30 1
    14    8    9 ar
    15    8   35 1
    16    9   13 1
    17    9   10 ar
    18   10   11 1
    19   11   12 1
    20   11   22 1
    21   12   16 1
    22   12   13 2
    23   13   14 1
    24   14   15 1
    25   14   36 1
    26   14   37 1
    27   15   16 1
    28   15   38 1
    29   15   39 1
    30   16   17 1
    31   16   18 1
    32   18   19 1
    33   18   40 1
    34   18   41 1
    35   19   20 2
    36   19   21 1
    37   22   23 1
    38   22   42 1
    39   22   43 1
    40   23   28 ar
    41   23   24 ar
    42   24   25 ar
    43   24   44 1
    44   25   26 ar
    45   25   45 1
    46   26   27 ar
    47   26   29 1
    48   27   28 ar
    49   27   46 1
    50   28   47 1
@<TRIPOS>MOLECULE
ZINC03961849
   47    50     0     0     0
SMALL
USER_CHARGES
2-[(4-chlorophenyl)methyl-fluoro-methylsulfonyl-BLAHyl]acetic acid
@<TRIPOS>ATOM
      1 C1         -6.4410    3.4422   -0.0771 C.3       1 <0>        -0.6680
      2 S1         -6.2263    5.1766    0.4093 S.o2      1 <0>         2.4753
      3 O1         -6.2757    5.2978    1.8243 O.2       1 <0>        -0.9191
      4 O2         -7.0177    6.0184   -0.4179 O.2       1 <0>        -0.9355
      5 C2         -4.5612    5.5638   -0.0173 C.ar      1 <0>        -0.6388
      6 C3         -4.2992    6.5062   -0.9872 C.ar      1 <0>        -0.0283
      7 C4         -2.9909    6.8221   -1.3340 C.ar      1 <0>         0.0424
      8 C5         -1.9346    6.1941   -0.7095 C.ar      1 <0>        -0.0445
      9 C6         -2.1863    5.2365    0.2749 C.ar      1 <0>        -0.0680
     10 C7         -3.5098    4.9174    0.6244 C.ar      1 <0>         0.1754
     11 N1         -3.4482    3.9554    1.6069 N.pl3     1 <0>        -0.4588
     12 C8         -2.1367    3.6549    1.8906 C.2       1 <0>         0.0813
     13 C9         -1.3294    4.3965    1.1188 C.2       1 <0>        -0.1840
     14 C10         0.1222    4.0855    1.4114 C.3       1 <0>        -0.0512
     15 C11         0.0955    2.7384    2.1661 C.3       1 <0>        -0.0908
     16 C12        -1.3147    2.7562    2.7946 C.3       1 <0>        -0.0057
     17 H1         -1.2744    3.1663    3.8037 H         1 <0>         0.0987
     18 C13        -1.9038    1.3444    2.8187 C.3       1 <0>        -0.1654
     19 C14        -1.0210    0.4458    3.6458 C.2       1 <0>         0.4635
     20 O3         -0.0204    0.8879    4.1589 O.co2     1 <0>        -0.6318
     21 C15        -4.6097    3.3411    2.2547 C.3       1 <0>         0.1233
     22 C16        -4.6851    3.7981    3.6888 C.ar      1 <0>        -0.1087
     23 C17        -3.6604    3.4941    4.5656 C.ar      1 <0>        -0.1050
     24 C18        -3.7264    3.9178    5.8795 C.ar      1 <0>        -0.1157
     25 C19        -4.8234    4.6366    6.3201 C.ar      1 <0>        -0.0240
     26 C20        -5.8512    4.9356    5.4435 C.ar      1 <0>        -0.1266
     27 C21        -5.7815    4.5162    4.1284 C.ar      1 <0>        -0.0643
     28 Cl1        -4.9105    5.1625    7.9722 Cl        1 <0>        -0.0786
     29 F1         -2.7532    7.7493   -2.2873 F         1 <0>        -0.1388
     30 H2         -5.6239    2.8468    0.3303 H         1 <0>         0.1359
     31 H3         -7.3896    3.0709    0.3107 H         1 <0>         0.1413
     32 H4         -6.4384    3.3669   -1.1645 H         1 <0>         0.1398
     33 H5         -5.1189    7.0050   -1.4830 H         1 <0>         0.1576
     34 H6         -0.9186    6.4415   -0.9797 H         1 <0>         0.1436
     35 H7          0.5575    4.8631    2.0390 H         1 <0>         0.0746
     36 H8          0.6855    3.9889    0.4832 H         1 <0>         0.0692
     37 H9          0.8655    2.7079    2.9370 H         1 <0>         0.0988
     38 H10         0.2040    1.9022    1.4754 H         1 <0>         0.0724
     39 H11        -1.9636    0.9582    1.8011 H         1 <0>         0.0704
     40 H12        -2.9022    1.3747    3.2551 H         1 <0>         0.0660
     41 H13        -5.5178    3.6386    1.7304 H         1 <0>         0.0915
     42 H14        -4.5112    2.2560    2.2239 H         1 <0>         0.1076
     43 H15        -2.8062    2.9293    4.2227 H         1 <0>         0.1531
     44 H16        -2.9238    3.6841    6.5634 H         1 <0>         0.1351
     45 H17        -6.7080    5.4963    5.7869 H         1 <0>         0.1316
     46 H18        -6.5839    4.7492    3.4441 H         1 <0>         0.1730
     47 O4         -1.3434   -0.8471    3.8080 O.co2     1 <0>        -0.7697
@<TRIPOS>BOND
     1    1    2 1
     2    1   30 1
     3    1   31 1
     4    1   32 1
     5    2    3 2
     6    2    4 2
     7    2    5 1
     8    5   10 ar
     9    5    6 ar
    10    6    7 ar
    11    6   33 1
    12    7    8 ar
    13    7   29 1
    14    8    9 ar
    15    8   34 1
    16    9   13 1
    17    9   10 ar
    18   10   11 1
    19   11   12 1
    20   11   21 1
    21   12   16 1
    22   12   13 2
    23   13   14 1
    24   14   15 1
    25   14   35 1
    26   14   36 1
    27   15   16 1
    28   15   37 1
    29   15   38 1
    30   16   17 1
    31   16   18 1
    32   18   19 1
    33   18   39 1
    34   18   40 1
    35   19   20 2
    36   19   47 1
    37   21   22 1
    38   21   41 1
    39   21   42 1
    40   22   27 ar
    41   22   23 ar
    42   23   24 ar
    43   23   43 1
    44   24   25 ar
    45   24   44 1
    46   25   26 ar
    47   25   28 1
    48   26   27 ar
    49   26   45 1
    50   27   46 1
@<TRIPOS>MOLECULE
ZINC08716754
   58    59     0     0     0
SMALL
USER_CHARGES

@<TRIPOS>ATOM
      1 C1          0.3664    1.5715    1.9641 C.3       1 <0>        -0.1538
      2 C2          0.3371    0.0772    1.6365 C.3       1 <0>        -0.1254
      3 C3         -1.1148   -0.3912    1.5211 C.3       1 <0>        -0.1213
      4 C4         -1.1441   -1.8854    1.1934 C.3       1 <0>        -0.1167
      5 C5         -2.5961   -2.3539    1.0780 C.3       1 <0>        -0.1457
      6 C6         -2.6254   -3.8481    0.7503 C.3       1 <0>         0.1367
      7 H1         -2.0502   -4.3952    1.4973 H         1 <0>         0.1054
      8 C7         -4.0512   -4.3361    0.7577 C.2       1 <0>        -0.1934
      9 C8         -4.5394   -4.9479   -0.2927 C.2       1 <0>        -0.1329
     10 C9         -5.9652   -5.4360   -0.2854 C.3       1 <0>        -0.0849
     11 H2         -6.4468   -5.1881    0.6605 H         1 <0>         0.0906
     12 C10        -6.7580   -4.8198   -1.4783 C.3       1 <0>         0.0764
     13 H3         -6.5597   -3.7678   -1.6834 H         1 <0>         0.1242
     14 C11        -6.3890   -5.8233   -2.6265 C.3       1 <0>        -0.1554
     15 C12        -6.8673   -7.0976   -1.8391 C.3       1 <0>        -0.1294
     16 H4         -6.8255   -8.0505   -2.3667 H         1 <0>         0.1150
     17 C13        -6.0154   -6.9622   -0.5339 C.3       1 <0>        -0.0707
     18 H5         -5.0116   -7.3579   -0.6885 H         1 <0>         0.0786
     19 C14        -6.7010   -7.6742    0.6340 C.3       1 <0>        -0.1002
     20 C15        -5.8434   -7.5560    1.8675 C.2       1 <0>        -0.1725
     21 C16        -6.3487   -7.0650    2.9719 C.2       1 <0>        -0.1375
     22 C17        -7.8276   -6.7913    3.0674 C.3       1 <0>        -0.1032
     23 C18        -8.3945   -7.4798    4.3106 C.3       1 <0>        -0.0856
     24 C19        -9.8959   -7.2018    4.4075 C.3       1 <0>        -0.1834
     25 C20       -10.4543   -7.8800    5.6320 C.2       1 <0>         0.4879
     26 O1         -9.7194   -8.5257    6.3597 O.co2     1 <0>        -0.6999
     27 O2        -11.6408   -7.7829    5.8950 O.co2     1 <0>        -0.7092
     28 C21        -8.2812   -6.5949   -1.4080 C.3       1 <0>         0.0385
     29 O3         -8.1470   -5.1573   -1.2128 O.3       1 <0>        -0.3766
     30 O4         -2.0548   -4.0636   -0.5419 O.3       1 <0>        -0.5587
     31 H6          1.4008    1.9052    2.0463 H         1 <0>         0.0524
     32 H7         -0.1327    2.1273    1.1704 H         1 <0>         0.0527
     33 H8         -0.1480    1.7464    2.9090 H         1 <0>         0.0535
     34 H9          0.8515   -0.0977    0.6915 H         1 <0>         0.0600
     35 H10         0.8362   -0.4786    2.4302 H         1 <0>         0.0605
     36 H11        -1.6292   -0.2163    2.4660 H         1 <0>         0.0608
     37 H12        -1.6140    0.1647    0.7273 H         1 <0>         0.0597
     38 H13        -0.6297   -2.0603    0.2485 H         1 <0>         0.0671
     39 H14        -0.6450   -2.4413    1.9871 H         1 <0>         0.0609
     40 H15        -3.1105   -2.1789    2.0229 H         1 <0>         0.0733
     41 H16        -3.0952   -1.7980    0.2843 H         1 <0>         0.0653
     42 H17        -4.6704   -4.1814    1.6289 H         1 <0>         0.1166
     43 H18        -3.9202   -5.1026   -1.1639 H         1 <0>         0.1148
     44 H19        -6.9744   -5.6515   -3.5298 H         1 <0>         0.0779
     45 H20        -5.3186   -5.8415   -2.8316 H         1 <0>         0.0840
     46 H21        -7.6714   -7.2144    0.8207 H         1 <0>         0.0886
     47 H22        -6.8392   -8.7268    0.3870 H         1 <0>         0.0685
     48 H23        -4.8123   -7.8761    1.8411 H         1 <0>         0.1020
     49 H24        -5.7055   -6.8564    3.8140 H         1 <0>         0.1050
     50 H25        -7.9942   -5.7165    3.1395 H         1 <0>         0.0626
     51 H26        -8.3267   -7.1776    2.1787 H         1 <0>         0.0680
     52 H27        -8.2278   -8.5545    4.2385 H         1 <0>         0.0583
     53 H28        -7.8953   -7.0935    5.1993 H         1 <0>         0.0579
     54 H29       -10.0625   -6.1271    4.4796 H         1 <0>         0.0548
     55 H30       -10.3950   -7.5881    3.5188 H         1 <0>         0.0543
     56 H31        -9.0106   -6.8048   -2.1902 H         1 <0>         0.0677
     57 H32        -8.5816   -7.0699   -0.4741 H         1 <0>         0.0836
     58 H33        -2.5168   -3.6055   -1.2573 H         1 <0>         0.3721
@<TRIPOS>BOND
     1    1    2 1
     2    1   31 1
     3    1   32 1
     4    1   33 1
     5    2    3 1
     6    2   34 1
     7    2   35 1
     8    3    4 1
     9    3   36 1
    10    3   37 1
    11    4    5 1
    12    4   38 1
    13    4   39 1
    14    5    6 1
    15    5   40 1
    16    5   41 1
    17    6    7 1
    18    6    8 1
    19    6   30 1
    20    8    9 2
    21    8   42 1
    22    9   10 1
    23    9   43 1
    24   10   11 1
    25   10   17 1
    26   10   12 1
    27   12   13 1
    28   12   29 1
    29   12   14 1
    30   14   15 1
    31   14   44 1
    32   14   45 1
    33   15   16 1
    34   15   17 1
    35   15   28 1
    36   17   18 1
    37   17   19 1
    38   19   20 1
    39   19   46 1
    40   19   47 1
    41   20   21 2
    42   20   48 1
    43   21   22 1
    44   21   49 1
    45   22   23 1
    46   22   50 1
    47   22   51 1
    48   23   24 1
    49   23   52 1
    50   23   53 1
    51   24   25 1
    52   24   54 1
    53   24   55 1
    54   25   26 2
    55   25   27 1
    56   28   29 1
    57   28   56 1
    58   28   57 1
    59   30   58 1
@<TRIPOS>MOLECULE
ZINC08437239
   51    52     0     0     0
SMALL
USER_CHARGES
7-phenyl-7-(2,4,5-trimethyl-3,6-dioxo-1-cyclohexa-1,4-dienyl)-heptanoic acid
@<TRIPOS>ATOM
      1 C1          3.3290    6.0011    4.9150 C.3       1 <0>        -0.1166
      2 C2          2.8621    5.3068    3.6616 C.2       1 <0>        -0.1298
      3 C3          3.5298    5.4781    2.5124 C.2       1 <0>        -0.1204
      4 C4          3.0728    4.7967    1.2841 C.2       1 <0>         0.4081
      5 O1          3.6779    4.9520    0.2426 O.2       1 <0>        -0.3984
      6 C5          1.8801    3.9262    1.3226 C.2       1 <0>        -0.1075
      7 C6          1.2094    3.7590    2.4707 C.2       1 <0>        -0.1221
      8 C7          1.6688    4.4370    3.6999 C.2       1 <0>         0.4125
      9 O2          1.0640    4.2815    4.7414 O.2       1 <0>        -0.4180
     10 C8         -0.0110    2.8757    2.5086 C.3       1 <0>        -0.1206
     11 C9          1.4138    3.2311    0.0694 C.3       1 <0>        -0.0116
     12 H1          0.3865    2.8921    0.2027 H         1 <0>         0.1009
     13 C10         1.4808    4.2048   -1.1089 C.3       1 <0>        -0.1219
     14 C11         0.8913    3.5396   -2.3543 C.3       1 <0>        -0.1150
     15 C12         0.9583    4.5132   -3.5326 C.3       1 <0>        -0.1178
     16 C13         0.3688    3.8480   -4.7780 C.3       1 <0>        -0.0972
     17 C14         0.4358    4.8217   -5.9563 C.3       1 <0>        -0.1580
     18 C15        -0.1448    4.1665   -7.1829 C.2       1 <0>         0.4572
     19 O3         -0.5686    3.0367   -7.1211 O.co2     1 <0>        -0.6426
     20 C16         2.3020    2.0456   -0.2075 C.ar      1 <0>        -0.0690
     21 C17         1.7493    0.7869   -0.3532 C.ar      1 <0>        -0.1116
     22 C18         2.5640   -0.3005   -0.6076 C.ar      1 <0>        -0.1188
     23 C19         3.9313   -0.1292   -0.7169 C.ar      1 <0>        -0.1223
     24 C20         4.4840    1.1295   -0.5713 C.ar      1 <0>        -0.1195
     25 C21         3.6693    2.2169   -0.3169 C.ar      1 <0>        -0.1239
     26 C22         4.7473    6.3654    2.4733 C.3       1 <0>        -0.1196
     27 H2          2.8466    6.9755    4.9918 H         1 <0>         0.0837
     28 H3          3.0678    5.3969    5.7838 H         1 <0>         0.0791
     29 H4          4.4103    6.1331    4.8760 H         1 <0>         0.0797
     30 H5          0.2950    1.8390    2.6489 H         1 <0>         0.0844
     31 H6         -0.6540    3.1797    3.3345 H         1 <0>         0.0797
     32 H7         -0.5567    2.9695    1.5697 H         1 <0>         0.0846
     33 H8          0.9095    5.1022   -0.8715 H         1 <0>         0.0619
     34 H9          2.5196    4.4749   -1.2985 H         1 <0>         0.0920
     35 H10         1.4626    2.6421   -2.5917 H         1 <0>         0.0639
     36 H11        -0.1475    3.2695   -2.1647 H         1 <0>         0.0584
     37 H12         0.3870    5.4107   -3.2952 H         1 <0>         0.0549
     38 H13         1.9971    4.7833   -3.7222 H         1 <0>         0.0566
     39 H14         0.9401    2.9506   -5.0153 H         1 <0>         0.0582
     40 H15        -0.6700    3.5779   -4.5884 H         1 <0>         0.0579
     41 H16        -0.1355    5.7191   -5.7189 H         1 <0>         0.0608
     42 H17         1.4746    5.0918   -6.1458 H         1 <0>         0.0611
     43 H18         0.6806    0.6538   -0.2726 H         1 <0>         0.1217
     44 H19         2.1322   -1.2839   -0.7213 H         1 <0>         0.1214
     45 H20         4.5678   -0.9787   -0.9156 H         1 <0>         0.1190
     46 H21         5.5524    1.2632   -0.6560 H         1 <0>         0.1190
     47 H22         4.1012    3.2002   -0.2028 H         1 <0>         0.1380
     48 H23         5.1529    6.3814    1.4618 H         1 <0>         0.0829
     49 H24         4.4692    7.3769    2.7693 H         1 <0>         0.0823
     50 H25         5.5002    5.9797    3.1607 H         1 <0>         0.0826
     51 O4         -0.1911    4.8380   -8.3442 O.co2     1 <0>        -0.7803
@<TRIPOS>BOND
     1    1    2 1
     2    1   27 1
     3    1   28 1
     4    1   29 1
     5    2    8 1
     6    2    3 2
     7    3    4 1
     8    3   26 1
     9    4    5 2
    10    4    6 1
    11    6    7 2
    12    6   11 1
    13    7    8 1
    14    7   10 1
    15    8    9 2
    16   10   30 1
    17   10   31 1
    18   10   32 1
    19   11   12 1
    20   11   13 1
    21   11   20 1
    22   13   14 1
    23   13   33 1
    24   13   34 1
    25   14   15 1
    26   14   35 1
    27   14   36 1
    28   15   16 1
    29   15   37 1
    30   15   38 1
    31   16   17 1
    32   16   39 1
    33   16   40 1
    34   17   18 1
    35   17   41 1
    36   17   42 1
    37   18   19 2
    38   18   51 1
    39   20   25 ar
    40   20   21 ar
    41   21   22 ar
    42   21   43 1
    43   22   23 ar
    44   22   44 1
    45   23   24 ar
    46   23   45 1
    47   24   25 ar
    48   24   46 1
    49   25   47 1
    50   26   48 1
    51   26   49 1
    52   26   50 1
@<TRIPOS>MOLECULE
ZINC36190184
   51    52     0     0     0
SMALL
USER_CHARGES

@<TRIPOS>ATOM
      1 C1         -2.3763    0.8069   -0.9472 C.3       1 <0>        -0.1176
      2 C2         -1.7687   -0.5588   -0.7555 C.2       1 <0>        -0.1295
      3 C3         -2.5123   -1.6564   -0.9512 C.2       1 <0>        -0.1217
      4 C4         -1.9166   -2.9950   -0.7638 C.2       1 <0>         0.4060
      5 O1         -2.5904   -3.9897   -0.9412 O.2       1 <0>        -0.3960
      6 C5         -0.5013   -3.1239   -0.3612 C.2       1 <0>        -0.1090
      7 C6          0.2422   -2.0263   -0.1655 C.2       1 <0>        -0.1205
      8 C7         -0.3520   -0.6877   -0.3578 C.2       1 <0>         0.4125
      9 O2          0.3231    0.3069   -0.1849 O.2       1 <0>        -0.4175
     10 C8          1.6860   -2.1577    0.2458 C.3       1 <0>        -0.1211
     11 C9          0.1064   -4.4896   -0.1700 C.3       1 <0>        -0.0112
     12 H1          1.1931   -4.4059   -0.1626 H         1 <0>         0.1014
     13 C10        -0.3268   -5.4056   -1.3165 C.3       1 <0>        -0.1197
     14 C11         0.3880   -6.7525   -1.1910 C.3       1 <0>        -0.1169
     15 C12        -0.0452   -7.6685   -2.3374 C.3       1 <0>        -0.1186
     16 C13         0.6695   -9.0154   -2.2119 C.3       1 <0>        -0.0916
     17 C14         0.2364   -9.9314   -3.3584 C.3       1 <0>        -0.1838
     18 C15         0.9404  -11.2581   -3.2348 C.2       1 <0>         0.4877
     19 O3          1.7166  -11.4530   -2.3150 O.co2     1 <0>        -0.7000
     20 O4          0.7337  -12.1366   -4.0546 O.co2     1 <0>        -0.7103
     21 C16        -0.3618   -5.0689    1.1400 C.ar      1 <0>        -0.0682
     22 C17        -1.6511   -4.8322    1.5790 C.ar      1 <0>        -0.1201
     23 C18        -2.0806   -5.3635    2.7807 C.ar      1 <0>        -0.1196
     24 C19        -1.2209   -6.1319    3.5433 C.ar      1 <0>        -0.1226
     25 C20         0.0681   -6.3693    3.1039 C.ar      1 <0>        -0.1163
     26 C21         0.4962   -5.8415    1.9001 C.ar      1 <0>        -0.1094
     27 C22        -3.9562   -1.5249   -1.3620 C.3       1 <0>        -0.1186
     28 H2         -1.6238    1.5703   -0.7494 H         1 <0>         0.0800
     29 H3         -2.7329    0.9053   -1.9725 H         1 <0>         0.0817
     30 H4         -3.2115    0.9329   -0.2583 H         1 <0>         0.0823
     31 H5          2.3182   -2.1576   -0.6421 H         1 <0>         0.0851
     32 H6          1.9591   -1.3192    0.8864 H         1 <0>         0.0801
     33 H7          1.8251   -3.0915    0.7907 H         1 <0>         0.0836
     34 H8         -1.4047   -5.5605   -1.2703 H         1 <0>         0.0912
     35 H9         -0.0666   -4.9435   -2.2688 H         1 <0>         0.0620
     36 H10         1.4659   -6.5976   -1.2372 H         1 <0>         0.0585
     37 H11         0.1278   -7.2146   -0.2387 H         1 <0>         0.0654
     38 H12        -1.1231   -7.8235   -2.2912 H         1 <0>         0.0548
     39 H13         0.2150   -7.2064   -3.2898 H         1 <0>         0.0530
     40 H14         1.7475   -8.8605   -2.2581 H         1 <0>         0.0566
     41 H15         0.4094   -9.4775   -1.2596 H         1 <0>         0.0570
     42 H16        -0.8415  -10.0864   -3.3122 H         1 <0>         0.0539
     43 H17         0.4966   -9.4694   -4.3107 H         1 <0>         0.0536
     44 H18        -2.3228   -4.2319    0.9832 H         1 <0>         0.1220
     45 H19        -3.0877   -5.1781    3.1239 H         1 <0>         0.1182
     46 H20        -1.5563   -6.5464    4.4825 H         1 <0>         0.1194
     47 H21         0.7398   -6.9693    3.6999 H         1 <0>         0.1229
     48 H22         1.5020   -6.0301    1.5551 H         1 <0>         0.1243
     49 H23        -4.0243   -1.5067   -2.4497 H         1 <0>         0.0854
     50 H24        -4.5222   -2.3731   -0.9768 H         1 <0>         0.0815
     51 H25        -4.3665   -0.6000   -0.9567 H         1 <0>         0.0796
@<TRIPOS>BOND
     1    1    2 1
     2    1   28 1
     3    1   29 1
     4    1   30 1
     5    2    8 1
     6    2    3 2
     7    3    4 1
     8    3   27 1
     9    4    5 2
    10    4    6 1
    11    6    7 2
    12    6   11 1
    13    7    8 1
    14    7   10 1
    15    8    9 2
    16   10   31 1
    17   10   32 1
    18   10   33 1
    19   11   12 1
    20   11   13 1
    21   11   21 1
    22   13   14 1
    23   13   34 1
    24   13   35 1
    25   14   15 1
    26   14   36 1
    27   14   37 1
    28   15   16 1
    29   15   38 1
    30   15   39 1
    31   16   17 1
    32   16   40 1
    33   16   41 1
    34   17   18 1
    35   17   42 1
    36   17   43 1
    37   18   19 2
    38   18   20 1
    39   21   26 ar
    40   21   22 ar
    41   22   23 ar
    42   22   44 1
    43   23   24 ar
    44   23   45 1
    45   24   25 ar
    46   24   46 1
    47   25   26 ar
    48   25   47 1
    49   26   48 1
    50   27   49 1
    51   27   50 1
    52   27   51 1
@<TRIPOS>MOLECULE
ZINC00608296
   38    39     0     0     0
SMALL
USER_CHARGES

@<TRIPOS>ATOM
      1 C1         -0.0167    1.3781    0.0096 C.ar      1 <0>        -0.1103
      2 C2          1.1709    2.0855    0.0021 C.ar      1 <0>        -0.1154
      3 C3          2.3773    1.4107   -0.0130 C.ar      1 <0>        -0.0152
      4 C4          2.3960    0.0285   -0.0201 C.ar      1 <0>        -0.1164
      5 C5          1.2085   -0.6789   -0.0117 C.ar      1 <0>        -0.1113
      6 C6          0.0021   -0.0041    0.0020 C.ar      1 <0>        -0.1179
      7 C7         -1.2926   -0.7753    0.0107 C.3       1 <0>        -0.0754
      8 C8         -1.7450   -1.0285   -1.4288 C.3       1 <0>         0.1176
      9 N1         -3.0037   -1.7782   -1.4204 N.pl3     1 <0>        -1.1146
     10 S1         -3.9186   -1.8756   -2.7972 S.o2      1 <0>         2.6966
     11 O1         -5.0460   -2.6802   -2.4795 O.2       1 <0>        -0.9583
     12 O2         -4.0443   -0.5509   -3.2958 O.2       1 <0>        -0.9508
     13 C9         -2.9777   -2.7739   -3.9856 C.ar      1 <0>        -0.6766
     14 C10        -2.1229   -2.1031   -4.8402 C.ar      1 <0>        -0.0058
     15 C11        -1.3845   -2.8071   -5.7726 C.ar      1 <0>        -0.1305
     16 C12        -1.5010   -4.1835   -5.8505 C.ar      1 <0>         0.0175
     17 C13        -2.3566   -4.8543   -4.9949 C.ar      1 <0>        -0.1333
     18 C14        -3.0902   -4.1497   -4.0592 C.ar      1 <0>        -0.0057
     19 Cl1        -0.5743   -5.0685   -7.0218 Cl        1 <0>        -0.0553
     20 C15         3.6720    2.1819   -0.0222 C.3       1 <0>        -0.1614
     21 C16         4.1176    2.4323    1.3954 C.2       1 <0>         0.4967
     22 O3          3.4461    2.0226    2.3269 O.co2     1 <0>        -0.6870
     23 O4          5.1496    3.0447    1.6109 O.co2     1 <0>        -0.7024
     24 H1         -0.9591    1.9053    0.0259 H         1 <0>         0.1152
     25 H2          1.1563    3.1654    0.0076 H         1 <0>         0.1150
     26 H3          3.3385   -0.4987   -0.0326 H         1 <0>         0.1140
     27 H4          1.2231   -1.7588   -0.0179 H         1 <0>         0.1129
     28 H5         -1.1443   -1.7285    0.5180 H         1 <0>         0.0760
     29 H6         -2.0551   -0.1993    0.5352 H         1 <0>         0.0784
     30 H7         -1.8934   -0.0752   -1.9361 H         1 <0>         0.0844
     31 H8         -0.9826   -1.6044   -1.9533 H         1 <0>         0.0680
     32 H9         -3.3011   -2.2175   -0.6083 H         1 <0>         0.4204
     33 H10        -2.0323   -1.0286   -4.7796 H         1 <0>         0.1522
     34 H11        -0.7170   -2.2829   -6.4405 H         1 <0>         0.1459
     35 H12        -2.4482   -5.9287   -5.0555 H         1 <0>         0.1442
     36 H13        -3.7546   -4.6737   -3.3880 H         1 <0>         0.1504
     37 H14         4.4344    1.6056   -0.5463 H         1 <0>         0.0689
     38 H15         3.5237    3.1349   -0.5302 H         1 <0>         0.0694
@<TRIPOS>BOND
     1    1    6 ar
     2    1    2 ar
     3    1   24 1
     4    2    3 ar
     5    2   25 1
     6    3    4 ar
     7    3   20 1
     8    4    5 ar
     9    4   26 1
    10    5    6 ar
    11    5   27 1
    12    6    7 1
    13    7    8 1
    14    7   28 1
    15    7   29 1
    16    8    9 1
    17    8   30 1
    18    8   31 1
    19    9   10 1
    20    9   32 1
    21   10   11 2
    22   10   12 2
    23   10   13 1
    24   13   18 ar
    25   13   14 ar
    26   14   15 ar
    27   14   33 1
    28   15   16 ar
    29   15   34 1
    30   16   17 ar
    31   16   19 1
    32   17   18 ar
    33   17   35 1
    34   18   36 1
    35   20   21 1
    36   20   37 1
    37   20   38 1
    38   21   22 2
    39   21   23 1
@<TRIPOS>MOLECULE
ZINC03966770
   55    56     0     0     0
SMALL
USER_CHARGES

@<TRIPOS>ATOM
      1 C1         -0.0187    1.5258    0.0104 C.3       1 <0>        -0.1528
      2 C2          0.0021   -0.0041    0.0020 C.3       1 <0>        -0.1238
      3 C3          0.7421   -0.5109    1.2415 C.3       1 <0>        -0.1172
      4 C4          0.7628   -2.0407    1.2331 C.3       1 <0>        -0.1300
      5 C5          1.5028   -2.5476    2.4727 C.3       1 <0>         0.1402
      6 N1          1.5227   -4.0124    2.4646 N.pl3     1 <0>        -0.7229
      7 C6          2.1364   -4.6965    3.4852 C.2       1 <0>         0.6846
      8 O1          2.7219   -4.0186    4.4965 O.3       1 <0>        -0.7440
      9 N2          2.1541   -5.9973    3.4780 N.2       1 <0>        -1.1046
     10 S1          2.8941   -6.8221    4.7086 S.o2      1 <0>         2.6756
     11 O2          4.2815   -6.5288    4.6174 O.2       1 <0>        -0.9988
     12 O3          2.1367   -6.5649    5.8831 O.2       1 <0>        -1.0055
     13 C7          2.7190   -8.5410    4.3629 C.ar      1 <0>        -0.7133
     14 C8          3.8360   -9.3119    4.1059 C.ar      1 <0>         0.0905
     15 C9          3.6994  -10.6607    3.8346 C.ar      1 <0>        -0.1390
     16 C10         2.4449  -11.2428    3.8194 C.ar      1 <0>         0.0249
     17 C11         1.3241  -10.4780    4.0755 C.ar      1 <0>        -0.2174
     18 C12         1.4582   -9.1235    4.3541 C.ar      1 <0>         0.3572
     19 N3          0.3271   -8.3481    4.6192 N.pl3     1 <0>        -0.7055
     20 C13        -1.0020   -8.9642    4.6095 C.3       1 <0>         0.1417
     21 C14        -1.5394   -8.9951    3.1773 C.3       1 <0>        -0.1382
     22 C15        -2.9275   -9.6385    3.1672 C.3       1 <0>        -0.1152
     23 C16        -3.8743   -8.8225    4.0496 C.3       1 <0>        -0.1233
     24 C17        -3.3369   -8.7915    5.4818 C.3       1 <0>        -0.1130
     25 C18        -1.9488   -8.1481    5.4919 C.3       1 <0>        -0.1318
     26 N4          4.8985  -11.4835    3.5592 N.pl3     1 <0>         0.0523
     27 O4          5.9958  -10.9761    3.5717 O.2       1 <0>        -0.1747
     28 O5          4.7807  -12.6631    3.3218 O.3       1 <0>        -0.1843
     29 H1          1.0039    1.9031    0.0027 H         1 <0>         0.0534
     30 H2         -0.5459    1.8868   -0.8726 H         1 <0>         0.0504
     31 H3         -0.5289    1.8773    0.9072 H         1 <0>         0.0531
     32 H4         -1.0205   -0.3814    0.0098 H         1 <0>         0.0597
     33 H5          0.5123   -0.3556   -0.8948 H         1 <0>         0.0602
     34 H6          1.7647   -0.1336    1.2338 H         1 <0>         0.0644
     35 H7          0.2319   -0.1594    2.1383 H         1 <0>         0.0638
     36 H8         -0.2598   -2.4180    1.2409 H         1 <0>         0.0641
     37 H9          1.2730   -2.3923    0.3363 H         1 <0>         0.0650
     38 H10         2.5254   -2.1703    2.4649 H         1 <0>         0.0554
     39 H11         0.9926   -2.1961    3.3695 H         1 <0>         0.0547
     40 H12         1.1023   -4.4992    1.7385 H         1 <0>         0.3927
     41 H13         4.8170   -8.8604    4.1166 H         1 <0>         0.1657
     42 H14         2.3417  -12.2966    3.6068 H         1 <0>         0.1520
     43 H15         0.3447  -10.9330    4.0631 H         1 <0>         0.1479
     44 H16         0.4216   -7.4017    4.8097 H         1 <0>         0.4204
     45 H17        -0.9336   -9.9818    4.9940 H         1 <0>         0.0853
     46 H18        -1.6078   -7.9775    2.7928 H         1 <0>         0.0748
     47 H19        -0.8649   -9.5765    2.5487 H         1 <0>         0.0694
     48 H20        -3.3103   -9.6606    2.1469 H         1 <0>         0.0657
     49 H21        -2.8591  -10.6562    3.5517 H         1 <0>         0.0623
     50 H22        -3.9427   -7.8049    3.6651 H         1 <0>         0.0647
     51 H23        -4.8632   -9.2809    4.0424 H         1 <0>         0.0624
     52 H24        -4.0114   -8.2102    6.1104 H         1 <0>         0.0678
     53 H25        -3.2685   -9.8092    5.8663 H         1 <0>         0.0638
     54 H26        -1.5660   -8.1261    6.5123 H         1 <0>         0.0747
     55 H27        -2.0172   -7.1305    5.1074 H         1 <0>         0.0745
@<TRIPOS>BOND
     1    1    2 1
     2    1   29 1
     3    1   30 1
     4    1   31 1
     5    2    3 1
     6    2   32 1
     7    2   33 1
     8    3    4 1
     9    3   34 1
    10    3   35 1
    11    4    5 1
    12    4   36 1
    13    4   37 1
    14    5    6 1
    15    5   38 1
    16    5   39 1
    17    6    7 1
    18    6   40 1
    19    7    8 1
    20    7    9 2
    21    9   10 1
    22   10   11 2
    23   10   12 2
    24   10   13 1
    25   13   18 ar
    26   13   14 ar
    27   14   15 ar
    28   14   41 1
    29   15   16 ar
    30   15   26 1
    31   16   17 ar
    32   16   42 1
    33   17   18 ar
    34   17   43 1
    35   18   19 1
    36   19   20 1
    37   19   44 1
    38   20   25 1
    39   20   21 1
    40   20   45 1
    41   21   22 1
    42   21   46 1
    43   21   47 1
    44   22   23 1
    45   22   48 1
    46   22   49 1
    47   23   24 1
    48   23   50 1
    49   23   51 1
    50   24   25 1
    51   24   52 1
    52   24   53 1
    53   25   54 1
    54   25   55 1
    55   26   27 2
    56   26   28 1
