@<TRIPOS>MOLECULE
ZINC04668239
   50    52     0     0     0
SMALL
USER_CHARGES

@<TRIPOS>ATOM
      1 C1          1.3417   -1.8253   -2.7352 C.3       1 <0>        -0.1480
      2 C2          0.7640   -1.6430   -1.3302 C.3       1 <0>        -0.0896
      3 C3          1.6036   -2.4371   -0.3268 C.3       1 <0>        -0.1281
      4 C4          1.0432   -2.2245    1.0830 C.3       1 <0>         0.1446
      5 N1         -0.3843   -2.5722    1.0819 N.pl3     1 <0>        -0.6766
      6 C5         -1.2663   -1.9332    0.0957 C.3       1 <0>         0.1463
      7 C6         -0.6800   -2.1491   -1.3030 C.3       1 <0>        -0.1291
      8 C7         -0.8909   -3.4889    1.9965 C.ar      1 <0>         0.2782
      9 C8         -0.9971   -4.8326    1.6471 C.ar      1 <0>        -0.1336
     10 C9         -1.4980   -5.7422    2.5498 C.ar      1 <0>        -0.0304
     11 C10        -1.9005   -5.3159    3.8192 C.ar      1 <0>        -0.1432
     12 C11        -1.7925   -3.9663    4.1669 C.ar      1 <0>         0.0110
     13 C12        -1.2854   -3.0624    3.2614 C.ar      1 <0>        -0.0724
     14 N2         -1.1647   -1.6342    3.6311 N.pl3     1 <0>         0.0364
     15 O1         -1.4178   -1.2780    4.7583 O.2       1 <0>        -0.1716
     16 O2         -0.8130   -0.8238    2.8057 O.3       1 <0>        -0.1244
     17 C13        -2.4383   -6.2883    4.7891 C.2       1 <0>         0.5625
     18 O3         -2.7879   -5.9162    5.8928 O.2       1 <0>        -0.4979
     19 N3         -2.5421   -7.5891    4.4522 N.am      1 <0>        -0.6659
     20 C14        -3.1503   -8.4923    5.3298 C.ar      1 <0>         0.1818
     21 C15        -2.7021   -9.8058    5.3971 C.ar      1 <0>        -0.1802
     22 C16        -3.3028  -10.6977    6.2639 C.ar      1 <0>        -0.0586
     23 C17        -4.3505  -10.2866    7.0662 C.ar      1 <0>        -0.2207
     24 C18        -4.8020   -8.9759    7.0036 C.ar      1 <0>         0.1488
     25 C19        -4.1983   -8.0764    6.1388 C.ar      1 <0>        -0.1549
     26 O4         -5.8325   -8.5734    7.7928 O.3       1 <0>        -0.3139
     27 C20        -6.4040   -9.5522    8.6631 C.3       1 <0>         0.0264
     28 H1          0.7445   -1.2589   -3.4498 H         1 <0>         0.0550
     29 H2          2.3702   -1.4650   -2.7548 H         1 <0>         0.0549
     30 H3          1.3218   -2.8820   -3.0019 H         1 <0>         0.0524
     31 H4          0.7835   -0.5863   -1.0639 H         1 <0>         0.0739
     32 H5          1.5643   -3.4970   -0.5779 H         1 <0>         0.0631
     33 H6          2.6369   -2.0920   -0.3634 H         1 <0>         0.0721
     34 H7          1.5746   -2.8641    1.7877 H         1 <0>         0.0627
     35 H8          1.1647   -1.1802    1.3709 H         1 <0>         0.0684
     36 H9         -2.2588   -2.3807    0.1490 H         1 <0>         0.0647
     37 H10        -1.3331   -0.8652    0.3031 H         1 <0>         0.0686
     38 H11        -1.2721   -1.5991   -2.0345 H         1 <0>         0.0721
     39 H12        -0.6978   -3.2118   -1.5449 H         1 <0>         0.0630
     40 H13        -0.6864   -5.1611    0.6663 H         1 <0>         0.1548
     41 H14        -1.5805   -6.7841    2.2780 H         1 <0>         0.1457
     42 H15        -2.1029   -3.6340    5.1465 H         1 <0>         0.1672
     43 H16        -2.1951   -7.8989    3.6011 H         1 <0>         0.4125
     44 H17        -1.8839  -10.1296    4.7710 H         1 <0>         0.1288
     45 H18        -2.9534  -11.7183    6.3146 H         1 <0>         0.1320
     46 H19        -4.8187  -10.9865    7.7425 H         1 <0>         0.1312
     47 H20        -4.5456   -7.0548    6.0917 H         1 <0>         0.1434
     48 H21        -7.2145   -9.1008    9.2352 H         1 <0>         0.1023
     49 H22        -6.7941  -10.3806    8.0717 H         1 <0>         0.0570
     50 H23        -5.6391   -9.9219    9.3461 H         1 <0>         0.0573
@<TRIPOS>BOND
     1    1    2 1
     2    1   28 1
     3    1   29 1
     4    1   30 1
     5    2    7 1
     6    2    3 1
     7    2   31 1
     8    3    4 1
     9    3   32 1
    10    3   33 1
    11    4    5 1
    12    4   34 1
    13    4   35 1
    14    5    6 1
    15    5    8 1
    16    6    7 1
    17    6   36 1
    18    6   37 1
    19    7   38 1
    20    7   39 1
    21    8   13 ar
    22    8    9 ar
    23    9   10 ar
    24    9   40 1
    25   10   11 ar
    26   10   41 1
    27   11   12 ar
    28   11   17 1
    29   12   13 ar
    30   12   42 1
    31   13   14 1
    32   14   15 2
    33   14   16 1
    34   17   18 2
    35   17   19 am
    36   19   20 1
    37   19   43 1
    38   20   25 ar
    39   20   21 ar
    40   21   22 ar
    41   21   44 1
    42   22   23 ar
    43   22   45 1
    44   23   24 ar
    45   23   46 1
    46   24   25 ar
    47   24   26 1
    48   25   47 1
    49   26   27 1
    50   27   48 1
    51   27   49 1
    52   27   50 1
@<TRIPOS>MOLECULE
ZINC00361399
   30    31     0     0     0
SMALL
USER_CHARGES
3,4-dichloro-N-(3-methoxyphenyl)-benzamide
@<TRIPOS>ATOM
      1 C1          4.1122    5.7504   -0.1730 C.3       1 <0>         0.0265
      2 O1          2.7867    5.2286   -0.0609 O.3       1 <0>        -0.3142
      3 C2          2.6477    3.8783   -0.1251 C.ar      1 <0>         0.1484
      4 C3          3.7653    3.0723   -0.2926 C.ar      1 <0>        -0.2215
      5 C4          3.6256    1.6992   -0.3590 C.ar      1 <0>        -0.0586
      6 C5          2.3734    1.1240   -0.2588 C.ar      1 <0>        -0.1809
      7 C6          1.2514    1.9256   -0.0910 C.ar      1 <0>         0.1831
      8 C7          1.3895    3.3055   -0.0290 C.ar      1 <0>        -0.1552
      9 N1         -0.0162    1.3436    0.0094 N.am      1 <0>        -0.6663
     10 C8         -0.9584    1.9109    0.7884 C.2       1 <0>         0.5615
     11 O2         -0.6789    2.8724    1.4779 O.2       1 <0>        -0.5003
     12 C9         -2.3311    1.3643    0.8044 C.ar      1 <0>        -0.1215
     13 C10        -2.6565    0.2636    0.0091 C.ar      1 <0>        -0.0693
     14 C11        -3.9376   -0.2457    0.0318 C.ar      1 <0>        -0.1032
     15 C12        -4.9046    0.3390    0.8327 C.ar      1 <0>        -0.0062
     16 C13        -4.5896    1.4350    1.6205 C.ar      1 <0>        -0.0399
     17 C14        -3.3091    1.9499    1.6103 C.ar      1 <0>        -0.0361
     18 Cl1        -5.8076    2.1609    2.6221 Cl        1 <0>        -0.0326
     19 Cl2        -6.5172   -0.3036    0.8502 Cl        1 <0>        -0.0335
     20 H1          4.7283    5.3539    0.6340 H         1 <0>         0.0571
     21 H2          4.5381    5.4574   -1.1327 H         1 <0>         0.0570
     22 H3          4.0815    6.8379   -0.1060 H         1 <0>         0.1020
     23 H4          4.7454    3.5190   -0.3716 H         1 <0>         0.1308
     24 H5          4.4968    1.0745   -0.4898 H         1 <0>         0.1317
     25 H6          2.2668    0.0506   -0.3114 H         1 <0>         0.1289
     26 H7          0.5183    3.9312    0.0970 H         1 <0>         0.1429
     27 H8         -0.2161    0.5293   -0.4784 H         1 <0>         0.4132
     28 H9         -1.9048   -0.1908   -0.6193 H         1 <0>         0.1436
     29 H10        -4.1889   -1.0996   -0.5800 H         1 <0>         0.1535
     30 H11        -3.0643    2.8041    2.2241 H         1 <0>         0.1591
@<TRIPOS>BOND
     1    1    2 1
     2    1   20 1
     3    1   21 1
     4    1   22 1
     5    2    3 1
     6    3    8 ar
     7    3    4 ar
     8    4    5 ar
     9    4   23 1
    10    5    6 ar
    11    5   24 1
    12    6    7 ar
    13    6   25 1
    14    7    8 ar
    15    7    9 1
    16    8   26 1
    17    9   10 am
    18    9   27 1
    19   10   11 2
    20   10   12 1
    21   12   17 ar
    22   12   13 ar
    23   13   14 ar
    24   13   28 1
    25   14   15 ar
    26   14   29 1
    27   15   16 ar
    28   15   19 1
    29   16   17 ar
    30   16   18 1
    31   17   30 1
@<TRIPOS>MOLECULE
ZINC00040854
   26    27     0     0     0
SMALL
USER_CHARGES
3,4-dichloro-N-(3-chlorophenyl)-benzamide
@<TRIPOS>ATOM
      1 C1         -0.8340   -2.1288    0.6716 C.ar      1 <0>        -0.0870
      2 C2         -0.8977   -0.7491    0.6886 C.ar      1 <0>        -0.1380
      3 C3          0.0454   -0.0027   -0.0059 C.ar      1 <0>         0.1534
      4 C4          1.0473   -0.6466   -0.7205 C.ar      1 <0>        -0.1131
      5 C5          1.1090   -2.0273   -0.7294 C.ar      1 <0>        -0.0167
      6 C6          0.1674   -2.7677   -0.0356 C.ar      1 <0>        -0.1222
      7 Cl1         2.3645   -2.8336   -1.6168 Cl        1 <0>        -0.0610
      8 N1         -0.0169    1.3943    0.0097 N.am      1 <0>        -0.6664
      9 C7          1.1190    2.1196    0.0033 C.2       1 <0>         0.5628
     10 O1          2.1949    1.5632   -0.1013 O.2       1 <0>        -0.5029
     11 C8          1.0568    3.5909    0.1235 C.ar      1 <0>        -0.1223
     12 C9         -0.1780    4.2332    0.2380 C.ar      1 <0>        -0.0692
     13 C10        -0.2301    5.6059    0.3562 C.ar      1 <0>        -0.1031
     14 C11         0.9384    6.3496    0.3490 C.ar      1 <0>        -0.0055
     15 C12         2.1669    5.7189    0.2298 C.ar      1 <0>        -0.0400
     16 C13         2.2317    4.3448    0.1172 C.ar      1 <0>        -0.0355
     17 Cl2         3.6264    6.6588    0.2229 Cl        1 <0>        -0.0318
     18 Cl3         0.8640    8.0782    0.4903 Cl        1 <0>        -0.0326
     19 H1         -1.5676   -2.7093    1.2114 H         1 <0>         0.1392
     20 H2         -1.6807   -0.2510    1.2412 H         1 <0>         0.1339
     21 H3          1.7793   -0.0691   -1.2655 H         1 <0>         0.1508
     22 H4          0.2150   -3.8466   -0.0472 H         1 <0>         0.1367
     23 H5         -0.8777    1.8412    0.0211 H         1 <0>         0.4138
     24 H6         -1.0903    3.6552    0.2390 H         1 <0>         0.1434
     25 H7         -1.1844    6.1028    0.4496 H         1 <0>         0.1538
     26 H8          3.1892    3.8540    0.0240 H         1 <0>         0.1593
@<TRIPOS>BOND
     1    1    6 ar
     2    1    2 ar
     3    1   19 1
     4    2    3 ar
     5    2   20 1
     6    3    4 ar
     7    3    8 1
     8    4    5 ar
     9    4   21 1
    10    5    6 ar
    11    5    7 1
    12    6   22 1
    13    8    9 am
    14    8   23 1
    15    9   10 2
    16    9   11 1
    17   11   16 ar
    18   11   12 ar
    19   12   13 ar
    20   12   24 1
    21   13   14 ar
    22   13   25 1
    23   14   15 ar
    24   14   18 1
    25   15   16 ar
    26   15   17 1
    27   16   26 1
@<TRIPOS>MOLECULE
ZINC00091556
   26    27     0     0     0
SMALL
USER_CHARGES
3,4-dichloro-N-phenyl-benzamide
@<TRIPOS>ATOM
      1 C1         -0.0180    1.3766   -0.0080 C.ar      1 <0>        -0.1319
      2 C2          1.0368    1.8635   -0.7580 C.ar      1 <0>        -0.0997
      3 C3          2.2448    1.1942   -0.7695 C.ar      1 <0>        -0.1199
      4 C4          2.3994    0.0306   -0.0271 C.ar      1 <0>         0.1415
      5 C5          1.3379   -0.4558    0.7251 C.ar      1 <0>        -0.1437
      6 C6          0.1327    0.2186    0.7327 C.ar      1 <0>        -0.1002
      7 N1          3.6210   -0.6501   -0.0373 N.am      1 <0>        -0.6672
      8 C7          4.7748    0.0378   -0.1464 C.2       1 <0>         0.5619
      9 O1          4.7608    1.2534   -0.1391 O.2       1 <0>        -0.5054
     10 C8          6.0569   -0.6855   -0.2748 C.ar      1 <0>        -0.1219
     11 C9          6.0766   -2.0818   -0.2777 C.ar      1 <0>        -0.0696
     12 C10         7.2750   -2.7518   -0.4045 C.ar      1 <0>        -0.1031
     13 C11         8.4598   -2.0430   -0.5160 C.ar      1 <0>        -0.0063
     14 C12         8.4479   -0.6571   -0.5076 C.ar      1 <0>        -0.0399
     15 C13         7.2536    0.0244   -0.3879 C.ar      1 <0>        -0.0364
     16 Cl1         9.9375    0.2232   -0.6484 Cl        1 <0>        -0.0326
     17 Cl2         9.9654   -2.8938   -0.6674 Cl        1 <0>        -0.0333
     18 H1         -0.9630    1.8994   -0.0042 H         1 <0>         0.1251
     19 H2          0.9158    2.7680   -1.3356 H         1 <0>         0.1275
     20 H3          3.0684    1.5752   -1.3552 H         1 <0>         0.1344
     21 H4          1.4548   -1.3605    1.3032 H         1 <0>         0.1262
     22 H5         -0.6930   -0.1591    1.3174 H         1 <0>         0.1279
     23 H6          3.6379   -1.6173    0.0341 H         1 <0>         0.4109
     24 H7          5.1542   -2.6360   -0.1857 H         1 <0>         0.1432
     25 H8          7.2905   -3.8316   -0.4117 H         1 <0>         0.1535
     26 H9          7.2449    1.1043   -0.3814 H         1 <0>         0.1589
@<TRIPOS>BOND
     1    1    6 ar
     2    1    2 ar
     3    1   18 1
     4    2    3 ar
     5    2   19 1
     6    3    4 ar
     7    3   20 1
     8    4    5 ar
     9    4    7 1
    10    5    6 ar
    11    5   21 1
    12    6   22 1
    13    7    8 am
    14    7   23 1
    15    8    9 2
    16    8   10 1
    17   10   15 ar
    18   10   11 ar
    19   11   12 ar
    20   11   24 1
    21   12   13 ar
    22   12   25 1
    23   13   14 ar
    24   13   17 1
    25   14   15 ar
    26   14   16 1
    27   15   26 1
@<TRIPOS>MOLECULE
ZINC16505229
   34    35     0     0     0
SMALL
USER_CHARGES
4-amino-N-(3-methoxyphenyl)-3-nitro-benzamide
@<TRIPOS>ATOM
      1 C1         -3.8060    0.3784   -2.1138 C.3       1 <0>         0.0266
      2 O1         -4.5930    0.7823   -0.9916 O.3       1 <0>        -0.3140
      3 C2         -3.9703    0.8244    0.2156 C.ar      1 <0>         0.1484
      4 C3         -2.6285    0.4836    0.3171 C.ar      1 <0>        -0.2219
      5 C4         -1.9938    0.5264    1.5437 C.ar      1 <0>        -0.0589
      6 C5         -2.6922    0.9083    2.6729 C.ar      1 <0>        -0.1817
      7 C6         -4.0352    1.2499    2.5775 C.ar      1 <0>         0.1842
      8 C7         -4.6730    1.2131    1.3450 C.ar      1 <0>        -0.1554
      9 N1         -4.7422    1.6370    3.7203 N.am      1 <0>        -0.6685
     10 C8         -6.0507    1.3360    3.8375 C.2       1 <0>         0.5673
     11 O2         -6.5939    0.6474    2.9952 O.2       1 <0>        -0.5046
     12 C9         -6.8237    1.8417    4.9873 C.ar      1 <0>        -0.1933
     13 C10        -6.1991    2.6288    5.9597 C.ar      1 <0>         0.0077
     14 C11        -6.9239    3.1026    7.0288 C.ar      1 <0>        -0.1976
     15 C12        -8.2758    2.7911    7.1482 C.ar      1 <0>         0.3084
     16 C13        -8.8993    2.0034    6.1846 C.ar      1 <0>        -0.1286
     17 C14        -8.1809    1.5304    5.1103 C.ar      1 <0>         0.0531
     18 N2        -10.3366    1.6746    6.3154 N.pl3     1 <0>         0.0458
     19 O3        -10.8559    0.8940    5.5380 O.2       1 <0>        -0.1498
     20 O4        -10.9999    2.1848    7.2004 O.3       1 <0>        -0.1863
     21 N3         -9.0044    3.2675    8.2325 N.pl3     1 <0>        -0.8407
     22 H1         -2.9710    1.0677   -2.2390 H         1 <0>         0.0568
     23 H2         -4.4228    0.3879   -3.0125 H         1 <0>         0.1020
     24 H3         -3.4239   -0.6286   -1.9461 H         1 <0>         0.0571
     25 H4         -2.0798    0.1851   -0.5639 H         1 <0>         0.1305
     26 H5         -0.9497    0.2611    1.6198 H         1 <0>         0.1313
     27 H6         -2.1936    0.9415    3.6303 H         1 <0>         0.1283
     28 H7         -5.7159    1.4828    1.2672 H         1 <0>         0.1433
     29 H8         -4.2908    2.1221    4.4287 H         1 <0>         0.4115
     30 H9         -5.1496    2.8673    5.8698 H         1 <0>         0.1453
     31 H10        -6.4430    3.7137    7.7783 H         1 <0>         0.1548
     32 H11        -8.6651    0.9190    4.3632 H         1 <0>         0.1677
     33 H12        -9.8003    2.7972    8.5263 H         1 <0>         0.4201
     34 H13        -8.7169    4.0702    8.6950 H         1 <0>         0.4111
@<TRIPOS>BOND
     1    1    2 1
     2    1   22 1
     3    1   23 1
     4    1   24 1
     5    2    3 1
     6    3    8 ar
     7    3    4 ar
     8    4    5 ar
     9    4   25 1
    10    5    6 ar
    11    5   26 1
    12    6    7 ar
    13    6   27 1
    14    7    8 ar
    15    7    9 1
    16    8   28 1
    17    9   10 am
    18    9   29 1
    19   10   11 2
    20   10   12 1
    21   12   17 ar
    22   12   13 ar
    23   13   14 ar
    24   13   30 1
    25   14   15 ar
    26   14   31 1
    27   15   16 ar
    28   15   21 1
    29   16   17 ar
    30   16   18 1
    31   17   32 1
    32   18   19 2
    33   18   20 1
    34   21   33 1
    35   21   34 1
@<TRIPOS>MOLECULE
ZINC16505435
   44    46     0     0     0
SMALL
USER_CHARGES

@<TRIPOS>ATOM
      1 C1          3.1900    1.6719    2.7941 C.3       1 <0>         0.0263
      2 O1          3.3182    0.2550    2.9278 O.3       1 <0>        -0.3135
      3 C2          2.3035   -0.5052    2.4386 C.ar      1 <0>         0.1503
      4 C3          1.2094    0.1010    1.8369 C.ar      1 <0>        -0.2232
      5 C4          0.1769   -0.6705    1.3390 C.ar      1 <0>        -0.0567
      6 C5          0.2299   -2.0475    1.4384 C.ar      1 <0>        -0.1843
      7 C6          1.3226   -2.6597    2.0391 C.ar      1 <0>         0.1827
      8 C7          2.3632   -1.8864    2.5352 C.ar      1 <0>        -0.1633
      9 N1          1.3762   -4.0535    2.1402 N.am      1 <0>        -0.6623
     10 C8          2.0940   -4.6307    3.1241 C.2       1 <0>         0.5617
     11 O2          2.6055   -3.9433    3.9871 O.2       1 <0>        -0.4942
     12 C9          2.2591   -6.0960    3.1542 C.ar      1 <0>        -0.1384
     13 C10         1.6763   -6.8873    2.1595 C.ar      1 <0>        -0.0274
     14 C11         1.8321   -8.2539    2.1904 C.ar      1 <0>        -0.1292
     15 C12         2.5692   -8.8493    3.2108 C.ar      1 <0>         0.2510
     16 C13         3.1506   -8.0642    4.2026 C.ar      1 <0>        -0.0664
     17 C14         3.0033   -6.6962    4.1741 C.ar      1 <0>         0.0136
     18 N2          3.9334   -8.7011    5.2856 N.pl3     1 <0>         0.0341
     19 O3          4.5096   -8.0161    6.0982 O.2       1 <0>        -0.1643
     20 O4          3.9965   -9.9063    5.3575 O.3       1 <0>        -0.1230
     21 N3          2.7245  -10.2313    3.2395 N.pl3     1 <0>        -0.7024
     22 C15         1.9914  -10.9979    4.1490 C.ar      1 <0>         0.2217
     23 C16         1.0256  -10.3971    4.9466 C.ar      1 <0>        -0.1910
     24 C17         0.3026  -11.1579    5.8441 C.ar      1 <0>        -0.0743
     25 C18         0.5394  -12.5163    5.9497 C.ar      1 <0>        -0.1628
     26 C19         1.5003  -13.1175    5.1576 C.ar      1 <0>        -0.0728
     27 C20         2.2227  -12.3638    4.2536 C.ar      1 <0>        -0.1668
     28 H1          2.2946    2.0067    3.3177 H         1 <0>         0.0573
     29 H2          4.0656    2.1581    3.2243 H         1 <0>         0.1024
     30 H3          3.1121    1.9317    1.7384 H         1 <0>         0.0570
     31 H4          1.1649    1.1772    1.7581 H         1 <0>         0.1309
     32 H5         -0.6734   -0.1962    0.8716 H         1 <0>         0.1319
     33 H6         -0.5787   -2.6482    1.0491 H         1 <0>         0.1287
     34 H7          3.2158   -2.3600    2.9990 H         1 <0>         0.1512
     35 H8          0.8967   -4.6048    1.5022 H         1 <0>         0.4130
     36 H9          1.1042   -6.4262    1.3680 H         1 <0>         0.1503
     37 H10         1.3819   -8.8657    1.4226 H         1 <0>         0.1604
     38 H11         3.4587   -6.0873    4.9411 H         1 <0>         0.1714
     39 H12         3.3417  -10.6628    2.6281 H         1 <0>         0.4196
     40 H13         0.8407   -9.3362    4.8651 H         1 <0>         0.1073
     41 H14        -0.4484  -10.6914    6.4645 H         1 <0>         0.1212
     42 H15        -0.0273  -13.1089    6.6527 H         1 <0>         0.1217
     43 H16         1.6830  -14.1786    5.2428 H         1 <0>         0.1258
     44 H17         2.9697  -12.8348    3.6318 H         1 <0>         0.1247
@<TRIPOS>BOND
     1    1    2 1
     2    1   28 1
     3    1   29 1
     4    1   30 1
     5    2    3 1
     6    3    8 ar
     7    3    4 ar
     8    4    5 ar
     9    4   31 1
    10    5    6 ar
    11    5   32 1
    12    6    7 ar
    13    6   33 1
    14    7    8 ar
    15    7    9 1
    16    8   34 1
    17    9   10 am
    18    9   35 1
    19   10   11 2
    20   10   12 1
    21   12   17 ar
    22   12   13 ar
    23   13   14 ar
    24   13   36 1
    25   14   15 ar
    26   14   37 1
    27   15   16 ar
    28   15   21 1
    29   16   17 ar
    30   16   18 1
    31   17   38 1
    32   18   19 2
    33   18   20 1
    34   21   22 1
    35   21   39 1
    36   22   27 ar
    37   22   23 ar
    38   23   24 ar
    39   23   40 1
    40   24   25 ar
    41   24   41 1
    42   25   26 ar
    43   25   42 1
    44   26   27 ar
    45   26   43 1
    46   27   44 1
@<TRIPOS>MOLECULE
ZINC04668240
   44    46     0     0     0
SMALL
USER_CHARGES

@<TRIPOS>ATOM
      1 C1          3.2831    1.6836    2.8106 C.3       1 <0>         0.0264
      2 O1          3.4203    0.2636    2.8933 O.3       1 <0>        -0.3139
      3 C2          2.3560   -0.4832    2.4979 C.ar      1 <0>         0.1489
      4 C3          1.2050    0.1390    2.0342 C.ar      1 <0>        -0.2205
      5 C4          0.1218   -0.6188    1.6323 C.ar      1 <0>        -0.0585
      6 C5          0.1805   -1.9979    1.6905 C.ar      1 <0>        -0.1803
      7 C6          1.3298   -2.6261    2.1532 C.ar      1 <0>         0.1820
      8 C7          2.4211   -1.8664    2.5520 C.ar      1 <0>        -0.1551
      9 N1          1.3892   -4.0220    2.2126 N.am      1 <0>        -0.6658
     10 C8          2.0954   -4.6255    3.1891 C.2       1 <0>         0.5627
     11 O2          2.6009   -3.9611    4.0734 O.2       1 <0>        -0.4975
     12 C9          2.2551   -6.0917    3.1854 C.ar      1 <0>        -0.1421
     13 C10         1.6794   -6.8565    2.1662 C.ar      1 <0>        -0.0301
     14 C11         1.8305   -8.2241    2.1652 C.ar      1 <0>        -0.1326
     15 C12         2.5559   -8.8465    3.1777 C.ar      1 <0>         0.2942
     16 C13         3.1299   -8.0880    4.1940 C.ar      1 <0>        -0.0716
     17 C14         2.9872   -6.7192    4.1975 C.ar      1 <0>         0.0108
     18 N2          3.8994   -8.7539    5.2689 N.pl3     1 <0>         0.0356
     19 O3          4.3982   -8.0957    6.1519 O.2       1 <0>        -0.1733
     20 O4          4.0291   -9.9559    5.2639 O.3       1 <0>        -0.1212
     21 N3          2.7069  -10.2288    3.1738 N.pl3     1 <0>        -0.6910
     22 C15         1.7982  -11.1918    3.8131 C.3       1 <0>         0.1394
     23 C16         2.3790  -12.6007    3.5700 C.3       1 <0>        -0.1265
     24 C17         3.8790  -12.3154    3.2941 C.3       1 <0>        -0.1283
     25 C18         3.8011  -10.9718    2.5227 C.3       1 <0>         0.1400
     26 H1          2.4509    2.0053    3.4367 H         1 <0>         0.0574
     27 H2          4.2019    2.1580    3.1554 H         1 <0>         0.1023
     28 H3          3.0920    1.9705    1.7765 H         1 <0>         0.0571
     29 H4          1.1560    1.2169    1.9879 H         1 <0>         0.1312
     30 H5         -0.7726   -0.1322    1.2724 H         1 <0>         0.1320
     31 H6         -0.6678   -2.5880    1.3765 H         1 <0>         0.1289
     32 H7          3.3175   -2.3523    2.9079 H         1 <0>         0.1430
     33 H8          0.9222   -4.5559    1.5510 H         1 <0>         0.4126
     34 H9          1.1163   -6.3744    1.3807 H         1 <0>         0.1469
     35 H10         1.3858   -8.8154    1.3785 H         1 <0>         0.1560
     36 H11         3.4368   -6.1308    4.9836 H         1 <0>         0.1681
     37 H12         1.7416  -10.9938    4.8834 H         1 <0>         0.0527
     38 H13         0.8063  -11.1177    3.3673 H         1 <0>         0.0509
     39 H14         2.2617  -13.2244    4.4562 H         1 <0>         0.0814
     40 H15         1.9096  -13.0672    2.7039 H         1 <0>         0.0726
     41 H16         4.4332  -12.2032    4.2260 H         1 <0>         0.0861
     42 H17         4.3173  -13.0961    2.6724 H         1 <0>         0.0785
     43 H18         3.5678  -11.1477    1.4725 H         1 <0>         0.0543
     44 H19         4.7395  -10.4255    2.6174 H         1 <0>         0.0565
@<TRIPOS>BOND
     1    1    2 1
     2    1   26 1
     3    1   27 1
     4    1   28 1
     5    2    3 1
     6    3    8 ar
     7    3    4 ar
     8    4    5 ar
     9    4   29 1
    10    5    6 ar
    11    5   30 1
    12    6    7 ar
    13    6   31 1
    14    7    8 ar
    15    7    9 1
    16    8   32 1
    17    9   10 am
    18    9   33 1
    19   10   11 2
    20   10   12 1
    21   12   17 ar
    22   12   13 ar
    23   13   14 ar
    24   13   34 1
    25   14   15 ar
    26   14   35 1
    27   15   16 ar
    28   15   21 1
    29   16   17 ar
    30   16   18 1
    31   17   36 1
    32   18   19 2
    33   18   20 1
    34   21   25 1
    35   21   22 1
    36   22   23 1
    37   22   37 1
    38   22   38 1
    39   23   24 1
    40   23   39 1
    41   23   40 1
    42   24   25 1
    43   24   41 1
    44   24   42 1
    45   25   43 1
    46   25   44 1
@<TRIPOS>MOLECULE
ZINC04668242
   47    49     0     0     0
SMALL
USER_CHARGES
N-(3-methoxyphenyl)-3-nitro-4-(1-piperidyl)benzamide
@<TRIPOS>ATOM
      1 C1         -3.7360    0.2318   -2.0448 C.3       1 <0>         0.0263
      2 O1         -4.5324    0.6563   -0.9368 O.3       1 <0>        -0.3137
      3 C2         -3.9202    0.7190    0.2749 C.ar      1 <0>         0.1491
      4 C3         -2.5798    0.3786    0.3942 C.ar      1 <0>        -0.2202
      5 C4         -1.9560    0.4418    1.6254 C.ar      1 <0>        -0.0584
      6 C5         -2.6639    0.8439    2.7417 C.ar      1 <0>        -0.1803
      7 C6         -4.0055    1.1858    2.6283 C.ar      1 <0>         0.1816
      8 C7         -4.6323    1.1283    1.3911 C.ar      1 <0>        -0.1549
      9 N1         -4.7221    1.5932    3.7580 N.am      1 <0>        -0.6658
     10 C8         -6.0318    1.2953    3.8688 C.2       1 <0>         0.5623
     11 O2         -6.5679    0.5911    3.0348 O.2       1 <0>        -0.4959
     12 C9         -6.8149    1.8234    5.0017 C.ar      1 <0>        -0.1397
     13 C10        -6.1986    2.6285    5.9645 C.ar      1 <0>        -0.0275
     14 C11        -6.9334    3.1246    7.0167 C.ar      1 <0>        -0.1585
     15 C12        -8.2864    2.8160    7.1298 C.ar      1 <0>         0.1898
     16 C13        -8.9014    2.0097    6.1762 C.ar      1 <0>        -0.0331
     17 C14        -8.1735    1.5153    5.1180 C.ar      1 <0>         0.0103
     18 N2        -10.3400    1.6840    6.3003 N.pl3     1 <0>         0.0256
     19 O3        -10.8789    0.9788    5.4661 O.2       1 <0>        -0.1870
     20 O4        -10.9849    2.1211    7.2365 O.3       1 <0>        -0.0903
     21 N3         -9.0249    3.3146    8.1973 N.pl3     1 <0>        -0.5000
     22 C15        -9.1014    4.7802    8.1452 C.3       1 <0>         0.0640
     23 C16       -10.0381    5.2828    9.2462 C.3       1 <0>        -0.1169
     24 C17        -9.5065    4.8288   10.6085 C.3       1 <0>        -0.1224
     25 C18        -9.3906    3.3021   10.6194 C.3       1 <0>        -0.1168
     26 C19        -8.4727    2.8569    9.4786 C.3       1 <0>         0.0623
     27 H1         -2.8991    0.9179   -2.1747 H         1 <0>         0.0571
     28 H2         -4.3449    0.2262   -2.9488 H         1 <0>         0.1025
     29 H3         -3.3567   -0.7725   -1.8560 H         1 <0>         0.0574
     30 H4         -2.0237    0.0643   -0.4767 H         1 <0>         0.1314
     31 H5         -0.9129    0.1767    1.7154 H         1 <0>         0.1321
     32 H6         -2.1739    0.8928    3.7028 H         1 <0>         0.1286
     33 H7         -5.6740    1.3981    1.2992 H         1 <0>         0.1430
     34 H8         -4.2765    2.0902    4.4618 H         1 <0>         0.4122
     35 H9         -5.1482    2.8646    5.8798 H         1 <0>         0.1459
     36 H10        -6.4591    3.7505    7.7582 H         1 <0>         0.1525
     37 H11        -8.6512    0.8898    4.3785 H         1 <0>         0.1712
     38 H12        -8.1071    5.2013    8.2941 H         1 <0>         0.0428
     39 H13        -9.4849    5.0895    7.1729 H         1 <0>         0.0766
     40 H14       -11.0360    4.8730    9.0901 H         1 <0>         0.0819
     41 H15       -10.0831    6.3715    9.2175 H         1 <0>         0.0725
     42 H16       -10.1936    5.1476   11.3923 H         1 <0>         0.0700
     43 H17        -8.5249    5.2699   10.7818 H         1 <0>         0.0585
     44 H18       -10.3783    2.8612   10.4849 H         1 <0>         0.0814
     45 H19        -8.9723    2.9757   11.5715 H         1 <0>         0.0724
     46 H20        -8.3994    1.7693    9.4748 H         1 <0>         0.0770
     47 H21        -7.4814    3.2871    9.6213 H         1 <0>         0.0428
@<TRIPOS>BOND
     1    1    2 1
     2    1   27 1
     3    1   28 1
     4    1   29 1
     5    2    3 1
     6    3    8 ar
     7    3    4 ar
     8    4    5 ar
     9    4   30 1
    10    5    6 ar
    11    5   31 1
    12    6    7 ar
    13    6   32 1
    14    7    8 ar
    15    7    9 1
    16    8   33 1
    17    9   10 am
    18    9   34 1
    19   10   11 2
    20   10   12 1
    21   12   17 ar
    22   12   13 ar
    23   13   14 ar
    24   13   35 1
    25   14   15 ar
    26   14   36 1
    27   15   16 ar
    28   15   21 1
    29   16   17 ar
    30   16   18 1
    31   17   37 1
    32   18   19 2
    33   18   20 1
    34   21   26 1
    35   21   22 1
    36   22   23 1
    37   22   38 1
    38   22   39 1
    39   23   24 1
    40   23   40 1
    41   23   41 1
    42   24   25 1
    43   24   42 1
    44   24   43 1
    45   25   26 1
    46   25   44 1
    47   25   45 1
    48   26   46 1
    49   26   47 1
@<TRIPOS>MOLECULE
ZINC04895971
   45    47     0     0     0
SMALL
USER_CHARGES

@<TRIPOS>ATOM
      1 C1         -4.0962    1.5908    1.4724 C.3       1 <0>         0.0263
      2 O1         -4.2142    0.1676    1.5215 O.3       1 <0>        -0.3138
      3 C2         -3.3283   -0.5508    0.7827 C.ar      1 <0>         0.1490
      4 C3         -2.3613    0.1017    0.0304 C.ar      1 <0>        -0.2202
      5 C4         -1.4601   -0.6273   -0.7217 C.ar      1 <0>        -0.0584
      6 C5         -1.5184   -2.0077   -0.7275 C.ar      1 <0>        -0.1802
      7 C6         -2.4836   -2.6661    0.0237 C.ar      1 <0>         0.1815
      8 C7         -3.3862   -1.9354    0.7844 C.ar      1 <0>        -0.1550
      9 N1         -2.5430   -4.0633    0.0175 N.am      1 <0>        -0.6656
     10 C8         -3.7322   -4.6877    0.1286 C.2       1 <0>         0.5621
     11 O2         -4.7610   -4.0393    0.1375 O.2       1 <0>        -0.4968
     12 C9         -3.7859   -6.1575    0.2395 C.ar      1 <0>        -0.1404
     13 C10        -2.6036   -6.9040    0.2353 C.ar      1 <0>        -0.0298
     14 C11        -2.6570   -8.2749    0.3393 C.ar      1 <0>        -0.1330
     15 C12        -3.8867   -8.9189    0.4487 C.ar      1 <0>         0.2750
     16 C13        -5.0655   -8.1786    0.4528 C.ar      1 <0>        -0.0698
     17 C14        -5.0185   -6.8066    0.3548 C.ar      1 <0>         0.0112
     18 N2         -6.3706   -8.8673    0.5683 N.pl3     1 <0>         0.0352
     19 O3         -7.3948   -8.2250    0.5718 O.2       1 <0>        -0.1684
     20 O4         -6.4124  -10.0722    0.6590 O.3       1 <0>        -0.1244
     21 N3         -3.9372  -10.3045    0.5537 N.pl3     1 <0>        -0.6805
     22 C15        -4.0217  -11.1525   -0.6460 C.3       1 <0>         0.1101
     23 C16        -2.9353  -12.2301   -0.5539 C.3       1 <0>         0.0493
     24 O5         -3.0413  -12.8989    0.7052 O.3       1 <0>        -0.3754
     25 C17        -2.8265  -12.0529    1.8373 C.3       1 <0>         0.0494
     26 C18        -3.9016  -10.9665    1.8675 C.3       1 <0>         0.1100
     27 H1         -4.8613    2.0409    2.1050 H         1 <0>         0.1024
     28 H2         -3.1096    1.8861    1.8297 H         1 <0>         0.0571
     29 H3         -4.2275    1.9311    0.4453 H         1 <0>         0.0575
     30 H4         -2.3134    1.1806    0.0326 H         1 <0>         0.1314
     31 H5         -0.7090   -0.1171   -1.3064 H         1 <0>         0.1322
     32 H6         -0.8133   -2.5751   -1.3168 H         1 <0>         0.1288
     33 H7         -4.1348   -2.4449    1.3728 H         1 <0>         0.1429
     34 H8         -1.7283   -4.5830   -0.0667 H         1 <0>         0.4124
     35 H9         -1.6495   -6.4051    0.1501 H         1 <0>         0.1471
     36 H10        -1.7442   -8.8521    0.3358 H         1 <0>         0.1547
     37 H11        -5.9332   -6.2324    0.3628 H         1 <0>         0.1686
     38 H12        -5.0033  -11.6240   -0.6938 H         1 <0>         0.0777
     39 H13        -3.8618  -10.5451   -1.5368 H         1 <0>         0.0750
     40 H14        -3.0676  -12.9504   -1.3611 H         1 <0>         0.1042
     41 H15        -1.9531  -11.7648   -0.6374 H         1 <0>         0.0520
     42 H16        -2.8805  -12.6457    2.7504 H         1 <0>         0.1045
     43 H17        -1.8439  -11.5870    1.7625 H         1 <0>         0.0516
     44 H18        -3.6622  -10.2360    2.6402 H         1 <0>         0.0751
     45 H19        -4.8709  -11.4189    2.0769 H         1 <0>         0.0774
@<TRIPOS>BOND
     1    1    2 1
     2    1   27 1
     3    1   28 1
     4    1   29 1
     5    2    3 1
     6    3    8 ar
     7    3    4 ar
     8    4    5 ar
     9    4   30 1
    10    5    6 ar
    11    5   31 1
    12    6    7 ar
    13    6   32 1
    14    7    8 ar
    15    7    9 1
    16    8   33 1
    17    9   10 am
    18    9   34 1
    19   10   11 2
    20   10   12 1
    21   12   17 ar
    22   12   13 ar
    23   13   14 ar
    24   13   35 1
    25   14   15 ar
    26   14   36 1
    27   15   16 ar
    28   15   21 1
    29   16   17 ar
    30   16   18 1
    31   17   37 1
    32   18   19 2
    33   18   20 1
    34   21   26 1
    35   21   22 1
    36   22   23 1
    37   22   38 1
    38   22   39 1
    39   23   24 1
    40   23   40 1
    41   23   41 1
    42   24   25 1
    43   25   26 1
    44   25   42 1
    45   25   43 1
    46   26   44 1
    47   26   45 1
@<TRIPOS>MOLECULE
ZINC04977928
   50    52     0     0     0
SMALL
USER_CHARGES
N-(3-methoxyphenyl)-4-(4-methylpiperazin-1-yl)-3-nitro-benzamide
@<TRIPOS>ATOM
      1 C1         -5.7630    4.0584   14.7390 C.3       1 <0>        -0.0406
      2 C2         -3.7138    4.2888   13.4691 C.3       1 <0>         0.0046
      3 C3         -3.0519    3.9741   12.1255 C.3       1 <0>         0.0300
      4 N1         -3.0042    2.5177   11.9351 N.pl3     1 <0>        -0.4958
      5 C4         -4.3561    1.9418   11.9591 C.3       1 <0>         0.0311
      6 C5         -5.0180    2.2565   13.3027 C.3       1 <0>         0.0045
      7 C6         -2.3441    2.1907   10.7557 C.ar      1 <0>         0.1589
      8 C7         -2.8324    2.6510    9.5357 C.ar      1 <0>        -0.1516
      9 C8         -2.1785    2.3336    8.3675 C.ar      1 <0>        -0.0266
     10 C9         -1.0294    1.5378    8.4052 C.ar      1 <0>        -0.1152
     11 C10        -0.5418    1.0772    9.6317 C.ar      1 <0>         0.0106
     12 C11        -1.1969    1.4034   10.7973 C.ar      1 <0>        -0.0200
     13 N2         -0.6813    0.9162   12.0964 N.pl3     1 <0>         0.0253
     14 O1          0.3223    0.2269   12.1335 O.2       1 <0>        -0.1632
     15 O2         -1.2605    1.2044   13.1283 O.3       1 <0>        -0.1086
     16 C12        -0.3298    1.1901    7.1542 C.2       1 <0>         0.5543
     17 O3          0.6723    0.5020    7.1890 O.2       1 <0>        -0.4873
     18 N3         -0.8012    1.6349    5.9725 N.am      1 <0>        -0.6613
     19 C13        -0.2044    1.2158    4.7792 C.ar      1 <0>         0.1737
     20 C14        -0.1476    2.0767    3.6900 C.ar      1 <0>        -0.1785
     21 C15         0.4414    1.6625    2.5114 C.ar      1 <0>        -0.0569
     22 C16         0.9757    0.3917    2.4121 C.ar      1 <0>        -0.2159
     23 C17         0.9215   -0.4725    3.4964 C.ar      1 <0>         0.1510
     24 C18         0.3260   -0.0626    4.6792 C.ar      1 <0>        -0.1544
     25 O4          1.4469   -1.7219    3.3971 O.3       1 <0>        -0.3134
     26 C19         2.0396   -2.0789    2.1467 C.3       1 <0>         0.0251
     27 H1         -5.8433    5.1423   14.8219 H         1 <0>         0.1233
     28 H2         -6.7607    3.6197   14.7306 H         1 <0>         0.1235
     29 H3         -5.2023    3.6696   15.5891 H         1 <0>         0.1270
     30 H4         -3.1208    3.8586   14.2762 H         1 <0>         0.1479
     31 H5         -3.7760    5.3692   13.5996 H         1 <0>         0.1397
     32 H6         -2.0385    4.3753   12.1165 H         1 <0>         0.1257
     33 H7         -3.6300    4.4274   11.3203 H         1 <0>         0.0695
     34 H8         -4.9490    2.3720   11.1520 H         1 <0>         0.0695
     35 H9         -4.2935    0.8614   11.8288 H         1 <0>         0.1253
     36 H10        -4.4398    1.8032   14.1079 H         1 <0>         0.1484
     37 H11        -6.0314    1.8553   13.3117 H         1 <0>         0.1397
     38 H12        -3.7227    3.2616    9.5068 H         1 <0>         0.1524
     39 H13        -2.5552    2.6946    7.4219 H         1 <0>         0.1527
     40 H14         0.3483    0.4664    9.6646 H         1 <0>         0.1778
     41 H15        -1.5544    2.2457    5.9497 H         1 <0>         0.4110
     42 H16        -0.5647    3.0701    3.7650 H         1 <0>         0.1286
     43 H17         0.4844    2.3329    1.6657 H         1 <0>         0.1343
     44 H18         1.4357    0.0707    1.4891 H         1 <0>         0.1339
     45 H19         0.2786   -0.7356    5.5226 H         1 <0>         0.1421
     46 H20         2.8611   -1.3973    1.9263 H         1 <0>         0.0590
     47 H21         1.2907   -2.0124    1.3575 H         1 <0>         0.0586
     48 H22         2.4190   -3.0992    2.2026 H         1 <0>         0.1046
     49 N4         -5.0796    3.7235   13.4714 N.4       1 <0>        -0.3995
     50 H23        -5.6094    4.1274   12.6900 H         1 <0>         0.4252
@<TRIPOS>BOND
     1    1   27 1
     2    1   28 1
     3    1   29 1
     4    1   49 1
     5    2    3 1
     6    2   30 1
     7    2   31 1
     8    2   49 1
     9    3    4 1
    10    3   32 1
    11    3   33 1
    12    4    5 1
    13    4    7 1
    14    5    6 1
    15    5   34 1
    16    5   35 1
    17    6   36 1
    18    6   37 1
    19    6   49 1
    20    7   12 ar
    21    7    8 ar
    22    8    9 ar
    23    8   38 1
    24    9   10 ar
    25    9   39 1
    26   10   11 ar
    27   10   16 1
    28   11   12 ar
    29   11   40 1
    30   12   13 1
    31   13   14 2
    32   13   15 1
    33   16   17 2
    34   16   18 am
    35   18   19 1
    36   18   41 1
    37   19   24 ar
    38   19   20 ar
    39   20   21 ar
    40   20   42 1
    41   21   22 ar
    42   21   43 1
    43   22   23 ar
    44   22   44 1
    45   23   24 ar
    46   23   25 1
    47   24   45 1
    48   25   26 1
    49   26   46 1
    50   26   47 1
    51   26   48 1
    52   49   50 1
@<TRIPOS>MOLECULE
ZINC00101760
   32    33     0     0     0
SMALL
USER_CHARGES
N-(3-methoxyphenyl)-3-nitro-benzamide
@<TRIPOS>ATOM
      1 C1         -3.7355    0.2272   -2.0440 C.3       1 <0>         0.0263
      2 O1         -4.5319    0.6534   -0.9366 O.3       1 <0>        -0.3138
      3 C2         -3.9199    0.7171    0.2751 C.ar      1 <0>         0.1491
      4 C3         -2.5797    0.3762    0.3951 C.ar      1 <0>        -0.2199
      5 C4         -1.9561    0.4404    1.6264 C.ar      1 <0>        -0.0583
      6 C5         -2.6641    0.8441    2.7420 C.ar      1 <0>        -0.1798
      7 C6         -4.0056    1.1861    2.6281 C.ar      1 <0>         0.1809
      8 C7         -4.6321    1.1280    1.3906 C.ar      1 <0>        -0.1551
      9 N1         -4.7225    1.5943    3.7573 N.am      1 <0>        -0.6650
     10 C8         -6.0323    1.2968    3.8678 C.2       1 <0>         0.5612
     11 O2         -6.5681    0.5925    3.0343 O.2       1 <0>        -0.4954
     12 C9         -6.8174    1.8268    5.0026 C.ar      1 <0>        -0.1333
     13 C10        -6.2052    2.6358    5.9616 C.ar      1 <0>        -0.0373
     14 C11        -6.9435    3.1271    7.0180 C.ar      1 <0>        -0.1184
     15 C12        -8.2883    2.8200    7.1283 C.ar      1 <0>        -0.0279
     16 C13        -8.9011    2.0188    6.1815 C.ar      1 <0>        -0.0485
     17 C14        -8.1754    1.5252    5.1169 C.ar      1 <0>         0.0045
     18 N2        -10.3402    1.6959    6.3072 N.pl3     1 <0>         0.0245
     19 O3        -10.9834    2.1354    7.2435 O.2       1 <0>        -0.1499
     20 O4        -10.8811    0.9907    5.4744 O.3       1 <0>        -0.1475
     21 H1         -2.8981    0.9127   -2.1744 H         1 <0>         0.0572
     22 H2         -4.3441    0.2209   -2.9482 H         1 <0>         0.1025
     23 H3         -3.3567   -0.7771   -1.8539 H         1 <0>         0.0575
     24 H4         -2.0236    0.0605   -0.4752 H         1 <0>         0.1316
     25 H5         -0.9132    0.1749    1.7169 H         1 <0>         0.1324
     26 H6         -2.1744    0.8935    3.7033 H         1 <0>         0.1291
     27 H7         -5.6736    1.3983    1.2983 H         1 <0>         0.1429
     28 H8         -4.2770    2.0916    4.4610 H         1 <0>         0.4128
     29 H9         -5.1559    2.8768    5.8762 H         1 <0>         0.1474
     30 H10        -6.4711    3.7531    7.7605 H         1 <0>         0.1589
     31 H11        -8.8621    3.2078    7.9570 H         1 <0>         0.1623
     32 H12        -8.6561    0.9038    4.3758 H         1 <0>         0.1692
@<TRIPOS>BOND
     1    1    2 1
     2    1   21 1
     3    1   22 1
     4    1   23 1
     5    2    3 1
     6    3    8 ar
     7    3    4 ar
     8    4    5 ar
     9    4   24 1
    10    5    6 ar
    11    5   25 1
    12    6    7 ar
    13    6   26 1
    14    7    8 ar
    15    7    9 1
    16    8   27 1
    17    9   10 am
    18    9   28 1
    19   10   11 2
    20   10   12 1
    21   12   17 ar
    22   12   13 ar
    23   13   14 ar
    24   13   29 1
    25   14   15 ar
    26   14   30 1
    27   15   16 ar
    28   15   31 1
    29   16   17 ar
    30   16   18 1
    31   17   32 1
    32   18   19 2
    33   18   20 1
@<TRIPOS>MOLECULE
ZINC37247993
   32    33     0     0     0
SMALL
USER_CHARGES

@<TRIPOS>ATOM
      1 C1          0.7506    1.6875   -4.2498 C.3       1 <0>         0.0262
      2 O1          0.7903    0.2675   -4.4048 O.3       1 <0>        -0.3137
      3 C2          0.9991   -0.4701   -3.2827 C.ar      1 <0>         0.1492
      4 C3          1.1567    0.1609   -2.0563 C.ar      1 <0>        -0.2193
      5 C4          1.3686   -0.5876   -0.9144 C.ar      1 <0>        -0.0583
      6 C5          1.4248   -1.9661   -0.9893 C.ar      1 <0>        -0.1793
      7 C6          1.2678   -2.6029   -2.2137 C.ar      1 <0>         0.1802
      8 C7          1.0491   -1.8527   -3.3611 C.ar      1 <0>        -0.1548
      9 N1          1.3250   -3.9981   -2.2897 N.am      1 <0>        -0.6645
     10 C8          1.8337   -4.5929   -3.3870 C.2       1 <0>         0.5634
     11 O2          2.3303   -3.9191   -4.2687 O.2       1 <0>        -0.4936
     12 C9          1.7879   -6.0633   -3.5182 C.ar      1 <0>        -0.1463
     13 C10         1.2128   -6.8395   -2.5093 C.ar      1 <0>        -0.0078
     14 C11         1.1728   -8.2111   -2.6369 C.ar      1 <0>        -0.1575
     15 C12         1.7021   -8.8209   -3.7643 C.ar      1 <0>         0.2004
     16 C13         2.2744   -8.0554   -4.7685 C.ar      1 <0>        -0.0956
     17 C14         2.3143   -6.6822   -4.6540 C.ar      1 <0>         0.0329
     18 N2          2.8378   -8.7133   -5.9688 N.pl3     1 <0>         0.0322
     19 O3          3.3373   -8.0468   -6.8451 O.2       1 <0>        -0.1399
     20 O4          2.7986   -9.9172   -6.0728 O.3       1 <0>        -0.1374
     21 F1          1.6602  -10.1659   -3.8843 F         1 <0>        -0.0919
     22 H1         -0.0566    1.9561   -3.5684 H         1 <0>         0.0573
     23 H2          1.7003    2.0353   -3.8432 H         1 <0>         0.0576
     24 H3          0.5779    2.1542   -5.2196 H         1 <0>         0.1027
     25 H4          1.1140    1.2383   -1.9947 H         1 <0>         0.1317
     26 H5          1.4909   -0.0942    0.0385 H         1 <0>         0.1325
     27 H6          1.5912   -2.5488   -0.0953 H         1 <0>         0.1293
     28 H7          0.9227   -2.3455   -4.3138 H         1 <0>         0.1432
     29 H8          0.9986   -4.5378   -1.5528 H         1 <0>         0.4128
     30 H9          0.8006   -6.3656   -1.6307 H         1 <0>         0.1578
     31 H10         0.7287   -8.8122   -1.8572 H         1 <0>         0.1717
     32 H11         2.7557   -6.0864   -5.4392 H         1 <0>         0.1789
@<TRIPOS>BOND
     1    1    2 1
     2    1   22 1
     3    1   23 1
     4    1   24 1
     5    2    3 1
     6    3    8 ar
     7    3    4 ar
     8    4    5 ar
     9    4   25 1
    10    5    6 ar
    11    5   26 1
    12    6    7 ar
    13    6   27 1
    14    7    8 ar
    15    7    9 1
    16    8   28 1
    17    9   10 am
    18    9   29 1
    19   10   11 2
    20   10   12 1
    21   12   17 ar
    22   12   13 ar
    23   13   14 ar
    24   13   30 1
    25   14   15 ar
    26   14   31 1
    27   15   16 ar
    28   15   21 1
    29   16   17 ar
    30   16   18 1
    31   17   32 1
    32   18   19 2
    33   18   20 1
@<TRIPOS>MOLECULE
ZINC00299616
   32    33     0     0     0
SMALL
USER_CHARGES
4-chloro-N-(3-methoxyphenyl)-3-nitro-benzamide
@<TRIPOS>ATOM
      1 C1          2.0405   -2.0788    2.1472 C.3       1 <0>         0.0262
      2 O1          1.4478   -1.7219    3.3975 O.3       1 <0>        -0.3137
      3 C2          0.9224   -0.4725    3.4969 C.ar      1 <0>         0.1492
      4 C3          0.9767    0.3920    2.4122 C.ar      1 <0>        -0.2192
      5 C4          0.4427    1.6625    2.5116 C.ar      1 <0>        -0.0583
      6 C5         -0.1470    2.0766    3.6904 C.ar      1 <0>        -0.1791
      7 C6         -0.2038    1.2160    4.7792 C.ar      1 <0>         0.1800
      8 C7          0.3272   -0.0628    4.6793 C.ar      1 <0>        -0.1547
      9 N1         -0.8006    1.6350    5.9725 N.am      1 <0>        -0.6640
     10 C8         -0.3292    1.1902    7.1542 C.2       1 <0>         0.5621
     11 O2          0.6726    0.5024    7.1890 O.2       1 <0>        -0.4926
     12 C9         -1.0300    1.5385    8.4075 C.ar      1 <0>        -0.1316
     13 C10        -2.1778    2.3333    8.3712 C.ar      1 <0>        -0.0252
     14 C11        -2.8306    2.6502    9.5435 C.ar      1 <0>        -0.1141
     15 C12        -2.3434    2.1919   10.7567 C.ar      1 <0>         0.0369
     16 C13        -1.2024    1.4081   10.7995 C.ar      1 <0>        -0.0468
     17 C14        -0.5442    1.0793    9.6331 C.ar      1 <0>         0.0172
     18 N2         -0.6886    0.9220   12.0998 N.pl3     1 <0>         0.0236
     19 O3          0.3145    0.2323   12.1388 O.2       1 <0>        -0.1486
     20 O4         -1.2690    1.2117   13.1307 O.3       1 <0>        -0.1281
     21 Cl1        -3.1668    2.6012   12.2292 Cl        1 <0>         0.0112
     22 H1          2.8621   -1.3973    1.9268 H         1 <0>         0.0576
     23 H2          1.2916   -2.0124    1.3579 H         1 <0>         0.0573
     24 H3          2.4199   -3.0992    2.2031 H         1 <0>         0.1027
     25 H4          1.4367    0.0710    1.4893 H         1 <0>         0.1318
     26 H5          0.4860    2.3330    1.6660 H         1 <0>         0.1326
     27 H6         -0.5643    3.0699    3.7652 H         1 <0>         0.1294
     28 H7          0.2800   -0.7356    5.5228 H         1 <0>         0.1430
     29 H8         -1.5538    2.2458    5.9497 H         1 <0>         0.4130
     30 H9         -2.5559    2.6949    7.4265 H         1 <0>         0.1565
     31 H10        -3.7210    3.2608    9.5164 H         1 <0>         0.1681
     32 H11         0.3455    0.4680    9.6677 H         1 <0>         0.1775
@<TRIPOS>BOND
     1    1    2 1
     2    1   22 1
     3    1   23 1
     4    1   24 1
     5    2    3 1
     6    3    8 ar
     7    3    4 ar
     8    4    5 ar
     9    4   25 1
    10    5    6 ar
    11    5   26 1
    12    6    7 ar
    13    6   27 1
    14    7    8 ar
    15    7    9 1
    16    8   28 1
    17    9   10 am
    18    9   29 1
    19   10   11 2
    20   10   12 1
    21   12   17 ar
    22   12   13 ar
    23   13   14 ar
    24   13   30 1
    25   14   15 ar
    26   14   31 1
    27   15   16 ar
    28   15   21 1
    29   16   17 ar
    30   16   18 1
    31   17   32 1
    32   18   19 2
    33   18   20 1
@<TRIPOS>MOLECULE
ZINC07609882
   32    33     0     0     0
SMALL
USER_CHARGES
4-bromo-N-(3-methoxyphenyl)-3-nitro-benzamide
@<TRIPOS>ATOM
      1 C1          2.0388   -2.0796    2.1473 C.3       1 <0>         0.0262
      2 O1          1.4469   -1.7220    3.3978 O.3       1 <0>        -0.3136
      3 C2          0.9223   -0.4723    3.4971 C.ar      1 <0>         0.1493
      4 C3          0.9766    0.3919    2.4122 C.ar      1 <0>        -0.2191
      5 C4          0.4429    1.6626    2.5113 C.ar      1 <0>        -0.0582
      6 C5         -0.1460    2.0773    3.6903 C.ar      1 <0>        -0.1789
      7 C6         -0.2032    1.2168    4.7792 C.ar      1 <0>         0.1798
      8 C7          0.3278   -0.0619    4.6797 C.ar      1 <0>        -0.1547
      9 N1         -0.7997    1.6363    5.9725 N.am      1 <0>        -0.6635
     10 C8         -0.3283    1.1916    7.1542 C.2       1 <0>         0.5611
     11 O2          0.6733    0.5035    7.1890 O.2       1 <0>        -0.4915
     12 C9         -1.0289    1.5405    8.4076 C.ar      1 <0>        -0.1210
     13 C10        -2.1763    2.3355    8.3715 C.ar      1 <0>        -0.0322
     14 C11        -2.8289    2.6528    9.5440 C.ar      1 <0>        -0.0934
     15 C12        -2.3420    2.1943   10.7568 C.ar      1 <0>        -0.0241
     16 C13        -1.2015    1.4104   10.7997 C.ar      1 <0>        -0.0301
     17 C14        -0.5431    1.0814    9.6332 C.ar      1 <0>         0.0120
     18 N2         -0.6880    0.9241   12.1000 N.pl3     1 <0>         0.0201
     19 O3          0.3149    0.2341   12.1391 O.2       1 <0>        -0.1498
     20 O4         -1.2685    1.2138   13.1308 O.3       1 <0>        -0.1223
     21 Br1        -3.2389    2.6402   12.3607 Br        1 <0>         0.0360
     22 H1          2.8607   -1.3986    1.9263 H         1 <0>         0.0576
     23 H2          1.2896   -2.0129    1.3584 H         1 <0>         0.0573
     24 H3          2.4176   -3.1002    2.2032 H         1 <0>         0.1027
     25 H4          1.4364    0.0706    1.4893 H         1 <0>         0.1318
     26 H5          0.4859    2.3327    1.6654 H         1 <0>         0.1327
     27 H6         -0.5624    3.0710    3.7652 H         1 <0>         0.1294
     28 H7          0.2807   -0.7345    5.5234 H         1 <0>         0.1430
     29 H8         -1.5527    2.2474    5.9497 H         1 <0>         0.4131
     30 H9         -2.5542    2.6977    7.4268 H         1 <0>         0.1561
     31 H10        -3.7187    3.2642    9.5170 H         1 <0>         0.1671
     32 H11         0.3467    0.4702    9.6680 H         1 <0>         0.1769
@<TRIPOS>BOND
     1    1    2 1
     2    1   22 1
     3    1   23 1
     4    1   24 1
     5    2    3 1
     6    3    8 ar
     7    3    4 ar
     8    4    5 ar
     9    4   25 1
    10    5    6 ar
    11    5   26 1
    12    6    7 ar
    13    6   27 1
    14    7    8 ar
    15    7    9 1
    16    8   28 1
    17    9   10 am
    18    9   29 1
    19   10   11 2
    20   10   12 1
    21   12   17 ar
    22   12   13 ar
    23   13   14 ar
    24   13   30 1
    25   14   15 ar
    26   14   31 1
    27   15   16 ar
    28   15   21 1
    29   16   17 ar
    30   16   18 1
    31   17   32 1
    32   18   19 2
    33   18   20 1
@<TRIPOS>MOLECULE
ZINC03069974
   39    41     0     0     0
SMALL
USER_CHARGES
N-(3-methoxyphenyl)-3-nitro-4-pyrazol-1-yl-benzamide
@<TRIPOS>ATOM
      1 C1         -5.3350    1.4655   -2.8291 C.3       1 <0>         0.0263
      2 O1         -5.9131    1.7123   -1.5457 O.3       1 <0>        -0.3139
      3 C2         -5.0788    1.6662   -0.4740 C.ar      1 <0>         0.1484
      4 C3         -3.7307    1.3889   -0.6548 C.ar      1 <0>        -0.2184
      5 C4         -2.8811    1.3421    0.4338 C.ar      1 <0>        -0.0593
      6 C5         -3.3701    1.5712    1.7055 C.ar      1 <0>        -0.1775
      7 C6         -4.7181    1.8496    1.8924 C.ar      1 <0>         0.1805
      8 C7         -5.5722    1.9017    0.7994 C.ar      1 <0>        -0.1518
      9 N1         -5.2131    2.0819    3.1795 N.am      1 <0>        -0.6665
     10 C8         -6.4397    1.6390    3.5199 C.2       1 <0>         0.5649
     11 O2         -7.0749    0.9517    2.7437 O.2       1 <0>        -0.4976
     12 C9         -7.0120    1.9885    4.8351 C.ar      1 <0>        -0.1467
     13 C10        -6.2834    2.7784    5.7284 C.ar      1 <0>        -0.0145
     14 C11        -6.8206    3.1028    6.9541 C.ar      1 <0>        -0.1490
     15 C12        -8.0867    2.6453    7.3034 C.ar      1 <0>         0.2601
     16 C13        -8.8145    1.8592    6.4171 C.ar      1 <0>        -0.0554
     17 C14        -8.2857    1.5351    5.1873 C.ar      1 <0>         0.0234
     18 N2        -10.1616    1.3746    6.7935 N.pl3     1 <0>         0.0266
     19 O3        -10.3259    0.7921    7.8504 O.2       1 <0>        -0.0879
     20 O4        -11.1056    1.5585    6.0462 O.3       1 <0>        -0.1626
     21 N3         -8.6288    2.9763    8.5491 N.pl3     1 <0>        -0.3541
     22 C15        -7.9834    3.6171    9.5581 C.2       1 <0>         0.0514
     23 C16        -8.8544    3.7445   10.5855 C.2       1 <0>        -0.2364
     24 C17       -10.0680    3.1659   10.1969 C.2       1 <0>         0.0806
     25 N4         -9.9363    2.7116    8.9771 N.2       1 <0>        -0.2698
     26 H1         -4.5616    2.2073   -3.0279 H         1 <0>         0.0573
     27 H2         -6.1080    1.5323   -3.5947 H         1 <0>         0.1026
     28 H3         -4.8945    0.4686   -2.8435 H         1 <0>         0.0575
     29 H4         -3.3454    1.2098   -1.6477 H         1 <0>         0.1317
     30 H5         -1.8326    1.1265    0.2903 H         1 <0>         0.1324
     31 H6         -2.7038    1.5340    2.5547 H         1 <0>         0.1293
     32 H7         -6.6199    2.1220    0.9414 H         1 <0>         0.1400
     33 H8         -4.6737    2.5618    3.8273 H         1 <0>         0.4124
     34 H9         -5.3004    3.1343    5.4577 H         1 <0>         0.1555
     35 H10        -6.2580    3.7129    7.6451 H         1 <0>         0.1618
     36 H11        -8.8534    0.9282    4.4975 H         1 <0>         0.1680
     37 H12        -6.9604    3.9630    9.5427 H         1 <0>         0.1858
     38 H13        -8.6490    4.2100   11.5381 H         1 <0>         0.1650
     39 H14       -10.9624    3.1084   10.7995 H         1 <0>         0.2001
@<TRIPOS>BOND
     1    1    2 1
     2    1   26 1
     3    1   27 1
     4    1   28 1
     5    2    3 1
     6    3    8 ar
     7    3    4 ar
     8    4    5 ar
     9    4   29 1
    10    5    6 ar
    11    5   30 1
    12    6    7 ar
    13    6   31 1
    14    7    8 ar
    15    7    9 1
    16    8   32 1
    17    9   10 am
    18    9   33 1
    19   10   11 2
    20   10   12 1
    21   12   17 ar
    22   12   13 ar
    23   13   14 ar
    24   13   34 1
    25   14   15 ar
    26   14   35 1
    27   15   16 ar
    28   15   21 1
    29   16   17 ar
    30   16   18 1
    31   17   36 1
    32   18   19 2
    33   18   20 1
    34   21   25 1
    35   21   22 1
    36   22   23 2
    37   22   37 1
    38   23   24 1
    39   23   38 1
    40   24   25 2
    41   24   39 1
@<TRIPOS>MOLECULE
ZINC16650566
   30    31     0     0     0
SMALL
USER_CHARGES
3,4-difluoro-N-(3-methoxyphenyl)benzamide
@<TRIPOS>ATOM
      1 C1          4.1129    5.7499   -0.1703 C.3       1 <0>         0.0265
      2 O1          2.7872    5.2283   -0.0591 O.3       1 <0>        -0.3142
      3 C2          2.6480    3.8780   -0.1242 C.ar      1 <0>         0.1482
      4 C3          3.7656    3.0719   -0.2918 C.ar      1 <0>        -0.2214
      5 C4          3.6256    1.6990   -0.3587 C.ar      1 <0>        -0.0587
      6 C5          2.3734    1.1239   -0.2589 C.ar      1 <0>        -0.1807
      7 C6          1.2514    1.9255   -0.0911 C.ar      1 <0>         0.1830
      8 C7          1.3896    3.3054   -0.0290 C.ar      1 <0>        -0.1553
      9 N1         -0.0162    1.3436    0.0094 N.am      1 <0>        -0.6661
     10 C8         -0.9584    1.9110    0.7884 C.2       1 <0>         0.5622
     11 O2         -0.6787    2.8726    1.4779 O.2       1 <0>        -0.5007
     12 C9         -2.3305    1.3648    0.8045 C.ar      1 <0>        -0.1199
     13 C10        -2.6557    0.2638    0.0090 C.ar      1 <0>        -0.0656
     14 C11        -3.9361   -0.2464    0.0313 C.ar      1 <0>        -0.1299
     15 C12        -4.9045    0.3381    0.8323 C.ar      1 <0>         0.0992
     16 C13        -4.5895    1.4362    1.6212 C.ar      1 <0>         0.0654
     17 C14        -3.3085    1.9509    1.6107 C.ar      1 <0>        -0.0631
     18 F1         -5.5374    2.0015    2.4004 F         1 <0>        -0.1196
     19 F2         -6.1592   -0.1628    0.8459 F         1 <0>        -0.1189
     20 H1          4.0823    6.8374   -0.1026 H         1 <0>         0.1019
     21 H2          4.7285    5.3528    0.6368 H         1 <0>         0.0571
     22 H3          4.5391    5.4575   -1.1300 H         1 <0>         0.0570
     23 H4          4.7457    3.5186   -0.3704 H         1 <0>         0.1307
     24 H5          4.4968    1.0742   -0.4895 H         1 <0>         0.1317
     25 H6          2.2667    0.0504   -0.3119 H         1 <0>         0.1291
     26 H7          0.5185    3.9312    0.0966 H         1 <0>         0.1430
     27 H8         -0.2161    0.5293   -0.4783 H         1 <0>         0.4134
     28 H9         -1.9037   -0.1900   -0.6195 H         1 <0>         0.1456
     29 H10        -4.1864   -1.1007   -0.5802 H         1 <0>         0.1574
     30 H11        -3.0634    2.8051    2.2244 H         1 <0>         0.1628
@<TRIPOS>BOND
     1    1    2 1
     2    1   20 1
     3    1   21 1
     4    1   22 1
     5    2    3 1
     6    3    8 ar
     7    3    4 ar
     8    4    5 ar
     9    4   23 1
    10    5    6 ar
    11    5   24 1
    12    6    7 ar
    13    6   25 1
    14    7    8 ar
    15    7    9 1
    16    8   26 1
    17    9   10 am
    18    9   27 1
    19   10   11 2
    20   10   12 1
    21   12   17 ar
    22   12   13 ar
    23   13   14 ar
    24   13   28 1
    25   14   15 ar
    26   14   29 1
    27   15   16 ar
    28   15   19 1
    29   16   17 ar
    30   16   18 1
    31   17   30 1
@<TRIPOS>MOLECULE
ZINC16029990
   48    50     0     0     0
SMALL
USER_CHARGES

@<TRIPOS>ATOM
      1 C1         -4.0967    1.5909    1.4718 C.3       1 <0>         0.0265
      2 O1         -4.2148    0.1676    1.5208 O.3       1 <0>        -0.3138
      3 C2         -3.3286   -0.5508    0.7823 C.ar      1 <0>         0.1490
      4 C3         -2.3613    0.1017    0.0303 C.ar      1 <0>        -0.2211
      5 C4         -1.4596   -0.6273   -0.7211 C.ar      1 <0>        -0.0587
      6 C5         -1.5176   -2.0077   -0.7265 C.ar      1 <0>        -0.1810
      7 C6         -2.4836   -2.6661    0.0237 C.ar      1 <0>         0.1827
      8 C7         -3.3864   -1.9354    0.7840 C.ar      1 <0>        -0.1554
      9 N1         -2.5430   -4.0632    0.0175 N.am      1 <0>        -0.6678
     10 C8         -3.7323   -4.6877    0.1278 C.2       1 <0>         0.5615
     11 O2         -4.7608   -4.0394    0.1358 O.2       1 <0>        -0.4983
     12 C9         -3.7861   -6.1594    0.2388 C.ar      1 <0>        -0.1657
     13 C10        -2.6057   -6.9063    0.2355 C.ar      1 <0>        -0.0050
     14 C11        -2.6617   -8.2793    0.3393 C.ar      1 <0>        -0.1733
     15 C12        -3.8871   -8.9197    0.4468 C.ar      1 <0>         0.2251
     16 C13        -5.0618   -8.1834    0.4501 C.ar      1 <0>        -0.7235
     17 C14        -5.0170   -6.8090    0.3531 C.ar      1 <0>         0.0679
     18 S1         -6.6144   -9.0053    0.5860 S.o2      1 <0>         2.6892
     19 O3         -6.5012   -9.9096    1.6762 O.2       1 <0>        -0.9386
     20 O4         -7.6139   -7.9966    0.5336 O.2       1 <0>        -0.9409
     21 N2         -6.8010   -9.9277   -0.7766 N.pl3     1 <0>        -0.9912
     22 C15        -7.4447   -9.3717   -1.9746 C.3       1 <0>         0.1169
     23 C16        -6.5115   -9.5705   -3.1731 C.3       1 <0>        -0.1368
     24 C17        -6.1431  -11.0515   -3.2875 C.3       1 <0>        -0.1188
     25 C18        -5.4053  -11.4947   -2.0221 C.3       1 <0>        -0.1355
     26 C19        -6.3206  -11.3157   -0.8126 C.3       1 <0>         0.1140
     27 F1         -3.9363  -10.2660    0.5483 F         1 <0>        -0.1122
     28 H1         -4.8620    2.0410    2.1040 H         1 <0>         0.1022
     29 H2         -3.1102    1.8861    1.8293 H         1 <0>         0.0569
     30 H3         -4.2277    1.9312    0.4446 H         1 <0>         0.0572
     31 H4         -2.3137    1.1806    0.0323 H         1 <0>         0.1309
     32 H5         -0.7082   -0.1171   -1.3055 H         1 <0>         0.1317
     33 H6         -0.8116   -2.5752   -1.3147 H         1 <0>         0.1284
     34 H7         -4.1353   -2.4449    1.3723 H         1 <0>         0.1434
     35 H8         -1.7283   -4.5829   -0.0661 H         1 <0>         0.4119
     36 H9         -1.6509   -6.4086    0.1515 H         1 <0>         0.1470
     37 H10        -1.7497   -8.8577    0.3366 H         1 <0>         0.1572
     38 H11        -5.9325   -6.2360    0.3605 H         1 <0>         0.1690
     39 H12        -8.3874   -9.8881   -2.1559 H         1 <0>         0.0811
     40 H13        -7.6308   -8.3076   -1.8290 H         1 <0>         0.0927
     41 H14        -7.0162   -9.2497   -4.0844 H         1 <0>         0.0788
     42 H15        -5.6061   -8.9804   -3.0310 H         1 <0>         0.0648
     43 H16        -7.0508  -11.6435   -3.4048 H         1 <0>         0.0675
     44 H17        -5.4988  -11.1996   -4.1542 H         1 <0>         0.0660
     45 H18        -5.1227  -12.5434   -2.1141 H         1 <0>         0.0790
     46 H19        -4.5104  -10.8864   -1.8908 H         1 <0>         0.0637
     47 H20        -5.7651  -11.5339    0.0995 H         1 <0>         0.0952
     48 H21        -7.1695  -11.9942   -0.8970 H         1 <0>         0.0799
@<TRIPOS>BOND
     1    1    2 1
     2    1   28 1
     3    1   29 1
     4    1   30 1
     5    2    3 1
     6    3    8 ar
     7    3    4 ar
     8    4    5 ar
     9    4   31 1
    10    5    6 ar
    11    5   32 1
    12    6    7 ar
    13    6   33 1
    14    7    8 ar
    15    7    9 1
    16    8   34 1
    17    9   10 am
    18    9   35 1
    19   10   11 2
    20   10   12 1
    21   12   17 ar
    22   12   13 ar
    23   13   14 ar
    24   13   36 1
    25   14   15 ar
    26   14   37 1
    27   15   16 ar
    28   15   27 1
    29   16   17 ar
    30   16   18 1
    31   17   38 1
    32   18   19 2
    33   18   20 2
    34   18   21 1
    35   21   26 1
    36   21   22 1
    37   22   23 1
    38   22   39 1
    39   22   40 1
    40   23   24 1
    41   23   41 1
    42   23   42 1
    43   24   25 1
    44   24   43 1
    45   24   44 1
    46   25   26 1
    47   25   45 1
    48   25   46 1
    49   26   47 1
    50   26   48 1
@<TRIPOS>MOLECULE
ZINC63059969
   33    34     0     0     0
SMALL
USER_CHARGES

@<TRIPOS>ATOM
      1 C1         -0.0089    1.5026    0.0110 C.3       1 <0>        -0.1178
      2 C2          0.0138   -0.0042    0.0025 C.ar      1 <0>        -0.1240
      3 C3          0.0097   -0.6856   -1.1959 C.ar      1 <0>        -0.0284
      4 C4          0.0308   -2.0819   -1.2023 C.ar      1 <0>        -0.1456
      5 C5          0.0560   -2.7805    0.0070 C.ar      1 <0>        -0.0623
      6 C6          0.0599   -2.0892    1.1993 C.ar      1 <0>        -0.1550
      7 C7          0.0446   -0.7025    1.1997 C.ar      1 <0>         0.1272
      8 F1          0.0545   -0.0297    2.3712 F         1 <0>        -0.1293
      9 C8          0.0260   -2.8173   -2.4831 C.2       1 <0>         0.5622
     10 O1          0.0037   -2.2071   -3.5344 O.2       1 <0>        -0.5075
     11 N1          0.0464   -4.1649   -2.4864 N.am      1 <0>        -0.6683
     12 C9         -0.0558   -4.8628   -3.6940 C.ar      1 <0>         0.1808
     13 C10        -0.7414   -6.0703   -3.7438 C.ar      1 <0>        -0.1805
     14 C11        -0.8423   -6.7595   -4.9365 C.ar      1 <0>        -0.0604
     15 C12        -0.2617   -6.2507   -6.0829 C.ar      1 <0>        -0.2218
     16 C13         0.4246   -5.0454   -6.0391 C.ar      1 <0>         0.1458
     17 C14         0.5224   -4.3474   -4.8454 C.ar      1 <0>        -0.1546
     18 O2          0.9957   -4.5468   -7.1670 O.3       1 <0>        -0.3143
     19 C15         0.8503   -5.3162   -8.3624 C.3       1 <0>         0.0267
     20 H1          1.0130    1.8815   -0.0043 H         1 <0>         0.0791
     21 H2         -0.5431    1.8629   -0.8682 H         1 <0>         0.0777
     22 H3         -0.5130    1.8533    0.9115 H         1 <0>         0.0738
     23 H4         -0.0101   -0.1406   -2.1281 H         1 <0>         0.1490
     24 H5          0.0720   -3.8604    0.0078 H         1 <0>         0.1368
     25 H6          0.0793   -2.6284    2.1349 H         1 <0>         0.1457
     26 H7          0.1320   -4.6508   -1.6513 H         1 <0>         0.4127
     27 H8         -1.1954   -6.4705   -2.8492 H         1 <0>         0.1282
     28 H9         -1.3755   -7.6979   -4.9733 H         1 <0>         0.1310
     29 H10        -0.3419   -6.7920   -7.0140 H         1 <0>         0.1301
     30 H11         1.0518   -3.4066   -4.8106 H         1 <0>         0.1480
     31 H12         1.2971   -6.2998   -8.2180 H         1 <0>         0.0567
     32 H13        -0.2085   -5.4287   -8.5954 H         1 <0>         0.0567
     33 H14         1.3513   -4.8067   -9.1855 H         1 <0>         0.1016
@<TRIPOS>BOND
     1    1    2 1
     2    1   20 1
     3    1   21 1
     4    1   22 1
     5    2    7 ar
     6    2    3 ar
     7    3    4 ar
     8    3   23 1
     9    4    5 ar
    10    4    9 1
    11    5    6 ar
    12    5   24 1
    13    6    7 ar
    14    6   25 1
    15    7    8 1
    16    9   10 2
    17    9   11 am
    18   11   12 1
    19   11   26 1
    20   12   17 ar
    21   12   13 ar
    22   13   14 ar
    23   13   27 1
    24   14   15 ar
    25   14   28 1
    26   15   16 ar
    27   15   29 1
    28   16   17 ar
    29   16   18 1
    30   17   30 1
    31   18   19 1
    32   19   31 1
    33   19   32 1
    34   19   33 1
@<TRIPOS>MOLECULE
ZINC12878439
   36    37     0     0     0
SMALL
USER_CHARGES
N-(3-methoxyphenyl)-3-methylsulfonyl-benzamide
@<TRIPOS>ATOM
      1 C1          2.0398   -2.0794    2.1470 C.3       1 <0>         0.0266
      2 O1          1.4471   -1.7224    3.3973 O.3       1 <0>        -0.3143
      3 C2          0.9217   -0.4730    3.4967 C.ar      1 <0>         0.1485
      4 C3          0.9760    0.3915    2.4121 C.ar      1 <0>        -0.2217
      5 C4          0.4424    1.6621    2.5116 C.ar      1 <0>        -0.0585
      6 C5         -0.1468    2.0764    3.6905 C.ar      1 <0>        -0.1815
      7 C6         -0.2041    1.2156    4.7793 C.ar      1 <0>         0.1834
      8 C7          0.3265   -0.0633    4.6792 C.ar      1 <0>        -0.1556
      9 N1         -0.8008    1.6346    5.9725 N.am      1 <0>        -0.6685
     10 C8         -0.3297    1.1895    7.1542 C.2       1 <0>         0.5595
     11 O2          0.6718    0.5014    7.1889 O.2       1 <0>        -0.5015
     12 C9         -1.0309    1.5380    8.4079 C.ar      1 <0>        -0.1558
     13 C10        -2.1813    2.3281    8.3715 C.ar      1 <0>        -0.0330
     14 C11        -2.8308    2.6496    9.5452 C.ar      1 <0>        -0.1419
     15 C12        -2.3446    2.1906   10.7567 C.ar      1 <0>         0.0044
     16 C13        -1.2052    1.4073   10.7998 C.ar      1 <0>        -0.6673
     17 C14        -0.5489    1.0739    9.6328 C.ar      1 <0>         0.0376
     18 S1         -0.5950    0.8276   12.3478 S.o2      1 <0>         2.4997
     19 O3          0.7967    0.6314   12.1385 O.2       1 <0>        -0.9300
     20 O4         -1.0578    1.7769   13.2985 O.2       1 <0>        -0.9333
     21 C15        -1.4190   -0.7678   12.6058 C.3       1 <0>        -0.6494
     22 H1          2.8614   -1.3979    1.9266 H         1 <0>         0.0572
     23 H2          1.2909   -2.0129    1.3578 H         1 <0>         0.0568
     24 H3          2.4191   -3.0997    2.2029 H         1 <0>         0.1020
     25 H4          1.4357    0.0703    1.4890 H         1 <0>         0.1308
     26 H5          0.4857    2.3326    1.6660 H         1 <0>         0.1316
     27 H6         -0.5629    3.0702    3.7658 H         1 <0>         0.1283
     28 H7          0.2791   -0.7362    5.5226 H         1 <0>         0.1428
     29 H8         -1.5538    2.2457    5.9497 H         1 <0>         0.4122
     30 H9         -2.5622    2.6864    7.4266 H         1 <0>         0.1358
     31 H10        -3.7208    3.2607    9.5184 H         1 <0>         0.1443
     32 H11        -2.8573    2.4447   11.6727 H         1 <0>         0.1507
     33 H12         0.3380    0.4586    9.6674 H         1 <0>         0.1580
     34 H13        -1.1618   -1.4454   11.7917 H         1 <0>         0.1333
     35 H14        -1.0917   -1.1968   13.5528 H         1 <0>         0.1362
     36 H15        -2.4987   -0.6196   12.6279 H         1 <0>         0.1325
@<TRIPOS>BOND
     1    1    2 1
     2    1   22 1
     3    1   23 1
     4    1   24 1
     5    2    3 1
     6    3    8 ar
     7    3    4 ar
     8    4    5 ar
     9    4   25 1
    10    5    6 ar
    11    5   26 1
    12    6    7 ar
    13    6   27 1
    14    7    8 ar
    15    7    9 1
    16    8   28 1
    17    9   10 am
    18    9   29 1
    19   10   11 2
    20   10   12 1
    21   12   17 ar
    22   12   13 ar
    23   13   14 ar
    24   13   30 1
    25   14   15 ar
    26   14   31 1
    27   15   16 ar
    28   15   32 1
    29   16   17 ar
    30   16   18 1
    31   17   33 1
    32   18   19 2
    33   18   20 2
    34   18   21 1
    35   21   34 1
    36   21   35 1
    37   21   36 1
