@<TRIPOS>MOLECULE
ZINC08143632
   82    84     0     0     0
SMALL
USER_CHARGES

@<TRIPOS>ATOM
      1 C1         -0.9782    0.9927   -1.1404 C.3       1 <0>        -0.1618
      2 C2         -0.5951   -0.4811   -0.9920 C.3       1 <0>         0.0530
      3 H1         -1.4349   -1.1200   -1.2649 H         1 <0>         0.0881
      4 C3          0.6356   -0.8076   -1.8668 C.3       1 <0>         0.0218
      5 C4          1.4473   -1.8084   -1.0143 C.3       1 <0>         0.1034
      6 H2          1.5390   -2.7638   -1.5310 H         1 <0>         0.1205
      7 C5          0.6111   -1.9682    0.2747 C.3       1 <0>         0.2338
      8 H3          1.2647   -2.0606    1.1420 H         1 <0>         0.1404
      9 O1         -0.1725   -0.7569    0.3612 O.3       1 <0>        -0.3556
     10 O2         -0.2448   -3.1081    0.1743 O.3       1 <0>        -0.3611
     11 C6         -0.8917   -3.4589    1.3993 C.3       1 <0>         0.0944
     12 H4         -0.9521   -2.5811    2.0426 H         1 <0>         0.1052
     13 C7         -2.3023   -3.9717    1.1025 C.3       1 <0>         0.1517
     14 H5         -2.2419   -4.8495    0.4592 H         1 <0>         0.1228
     15 C8         -2.9948   -4.3473    2.4141 C.3       1 <0>         0.0825
     16 H6         -3.0552   -3.4695    3.0574 H         1 <0>         0.1032
     17 C9         -2.1920   -5.4423    3.1194 C.3       1 <0>         0.1121
     18 H7         -2.1316   -6.3201    2.4760 H         1 <0>         0.1208
     19 C10        -0.7814   -4.9294    3.4162 C.3       1 <0>         0.0515
     20 H8         -0.8418   -4.0516    4.0595 H         1 <0>         0.0937
     21 C11        -0.0888   -4.5538    2.1046 C.3       1 <0>         0.0652
     22 H9         -0.0284   -5.4316    1.4613 H         1 <0>         0.0927
     23 O3          1.2287   -4.0748    2.3818 O.3       1 <0>        -0.5418
     24 O4         -0.0315   -5.9521    4.0749 O.3       1 <0>        -0.5603
     25 N1         -2.8551   -5.8019    4.3752 N.pl3     1 <0>        -0.7022
     26 C12        -2.6610   -7.0413    4.9206 C.cat     1 <0>         0.7589
     27 N2         -3.2639   -7.3682    6.0624 N.pl3     1 <0>        -0.7858
     28 N3         -1.8691   -7.9210    4.3099 N.pl3     1 <0>        -0.7737
     29 O5         -4.3123   -4.8263    2.1369 O.3       1 <0>        -0.5502
     30 N4         -3.0710   -2.9233    0.4272 N.pl3     1 <0>        -0.6911
     31 C13        -4.1248   -3.2588   -0.3778 C.cat     1 <0>         0.7583
     32 N5         -4.8237   -2.3056   -0.9918 N.pl3     1 <0>        -0.7862
     33 N6         -4.4521   -4.5387   -0.5476 N.pl3     1 <0>        -0.7759
     34 O6          2.7394   -1.2772   -0.7136 O.3       1 <0>        -0.3642
     35 C14         3.7721   -1.7281   -1.5924 C.3       1 <0>         0.2309
     36 H10         3.4688   -1.5606   -2.6258 H         1 <0>         0.1395
     37 C15         5.0606   -0.9524   -1.3064 C.3       1 <0>         0.0212
     38 H11         5.8375   -1.2671   -2.0032 H         1 <0>         0.1728
     39 C16         5.5128   -1.2403    0.1286 C.3       1 <0>         0.0978
     40 H12         4.7579   -0.8808    0.8278 H         1 <0>         0.0981
     41 C17         5.6934   -2.7515    0.3018 C.3       1 <0>         0.0536
     42 H13         6.4830   -3.1025   -0.3625 H         1 <0>         0.0915
     43 C18         4.3804   -3.4577   -0.0463 C.3       1 <0>         0.0555
     44 H14         3.6007   -3.1364    0.6442 H         1 <0>         0.0946
     45 O7          4.0007   -3.1231   -1.3830 O.3       1 <0>        -0.3452
     46 C19         4.5698   -4.9717    0.0666 C.3       1 <0>         0.0790
     47 O8          3.3181   -5.6259   -0.1507 O.3       1 <0>        -0.5638
     48 O9          6.0465   -3.0381    1.6565 O.3       1 <0>        -0.5471
     49 O10         6.7530   -0.5769    0.3811 O.3       1 <0>        -0.5594
     50 N7          4.8127    0.4868   -1.4648 N.4       1 <0>        -0.4959
     51 C20         4.4889    0.7763   -2.8682 C.3       1 <0>        -0.0521
     52 C21         0.2075   -1.4444   -3.1638 C.2       1 <0>         0.3243
     53 O11        -0.9660   -1.6049   -3.3992 O.2       1 <0>        -0.4177
     54 O12         1.4004    0.3736   -2.1159 O.3       1 <0>        -0.5307
     55 H15        -0.1334    1.6185   -0.8524 H         1 <0>         0.0835
     56 H16        -1.2441    1.1963   -2.1777 H         1 <0>         0.0795
     57 H17        -1.8298    1.2134   -0.4969 H         1 <0>         0.0785
     58 H18         1.8223   -4.7454    2.7466 H         1 <0>         0.3945
     59 H19         0.8909   -5.7163    4.2442 H         1 <0>         0.4050
     60 H20        -3.4318   -5.1612    4.8199 H         1 <0>         0.4357
     61 H21        -3.8406   -6.7275    6.5071 H         1 <0>         0.4428
     62 H22        -1.4300   -7.6829    3.4784 H         1 <0>         0.4378
     63 H23        -1.7314   -8.7999    4.6967 H         1 <0>         0.4437
     64 H24        -4.8111   -5.0835    2.9244 H         1 <0>         0.4047
     65 H25        -2.8327   -1.9912    0.5508 H         1 <0>         0.4375
     66 H26        -4.5854   -1.3735   -0.8681 H         1 <0>         0.4411
     67 H27        -3.9431   -5.2329   -0.1004 H         1 <0>         0.4363
     68 H28        -5.1994   -4.7766   -1.1184 H         1 <0>         0.4434
     69 H29         5.2887   -5.3048   -0.6821 H         1 <0>         0.0669
     70 H30         4.9408   -5.2183    1.0614 H         1 <0>         0.0701
     71 H31         3.3467   -6.5835   -0.0191 H         1 <0>         0.3902
     72 H32         6.1768   -3.9788    1.8385 H         1 <0>         0.3978
     73 H33         7.0989   -0.7161    1.2734 H         1 <0>         0.4197
     74 H34         4.0395    0.7615   -0.8777 H         1 <0>         0.4370
     75 H35         4.3049    1.8442   -2.9858 H         1 <0>         0.1367
     76 H36         5.3242    0.4795   -3.5024 H         1 <0>         0.1287
     77 H37         3.5973    0.2200   -3.1576 H         1 <0>         0.1229
     78 H38         0.9502   -1.7572   -3.8828 H         1 <0>         0.1182
     79 H39         0.9180    1.0605   -2.5961 H         1 <0>         0.3991
     80 H40        -3.1263   -8.2471    6.4492 H         1 <0>         0.4471
     81 H41        -5.5710   -2.5435   -1.5626 H         1 <0>         0.4466
     82 H42         5.6380    1.0018   -1.1969 H         1 <0>         0.4441
@<TRIPOS>BOND
     1    1    2 1
     2    1   55 1
     3    1   56 1
     4    1   57 1
     5    2    3 1
     6    2    9 1
     7    2    4 1
     8    4    5 1
     9    4   52 1
    10    4   54 1
    11    5    6 1
    12    5    7 1
    13    5   34 1
    14    7    8 1
    15    7    9 1
    16    7   10 1
    17   10   11 1
    18   11   12 1
    19   11   21 1
    20   11   13 1
    21   13   14 1
    22   13   15 1
    23   13   30 1
    24   15   16 1
    25   15   17 1
    26   15   29 1
    27   17   18 1
    28   17   19 1
    29   17   25 1
    30   19   20 1
    31   19   21 1
    32   19   24 1
    33   21   22 1
    34   21   23 1
    35   23   58 1
    36   24   59 1
    37   25   26 1
    38   25   60 1
    39   26   27 2
    40   26   28 1
    41   27   61 1
    42   27   80 1
    43   28   62 1
    44   28   63 1
    45   29   64 1
    46   30   31 1
    47   30   65 1
    48   31   32 2
    49   31   33 1
    50   32   66 1
    51   32   81 1
    52   33   67 1
    53   33   68 1
    54   34   35 1
    55   35   36 1
    56   35   45 1
    57   35   37 1
    58   37   38 1
    59   37   39 1
    60   37   50 1
    61   39   40 1
    62   39   41 1
    63   39   49 1
    64   41   42 1
    65   41   43 1
    66   41   48 1
    67   43   44 1
    68   43   45 1
    69   43   46 1
    70   46   47 1
    71   46   69 1
    72   46   70 1
    73   47   71 1
    74   48   72 1
    75   49   73 1
    76   50   51 1
    77   50   74 1
    78   50   82 1
    79   51   75 1
    80   51   76 1
    81   51   77 1
    82   52   53 2
    83   52   78 1
    84   54   79 1
@<TRIPOS>MOLECULE
ZINC08143632
   81    83     0     0     0
SMALL
USER_CHARGES

@<TRIPOS>ATOM
      1 C1         -0.5340    0.8048   -1.7298 C.3       1 <0>        -0.1607
      2 C2         -0.3080   -0.6662   -1.3748 C.3       1 <0>         0.0548
      3 H1         -1.2260   -1.2360   -1.5189 H         1 <0>         0.0829
      4 C3          0.8322   -1.2575   -2.2331 C.3       1 <0>         0.0171
      5 C4          1.5722   -2.2113   -1.2687 C.3       1 <0>         0.1006
      6 H2          1.5314   -3.2358   -1.6386 H         1 <0>         0.1081
      7 C5          0.7916   -2.0834    0.0582 C.3       1 <0>         0.2357
      8 H3          1.4753   -2.1240    0.9061 H         1 <0>         0.1404
      9 O1          0.1514   -0.7895   -0.0111 O.3       1 <0>        -0.3574
     10 O2         -0.1885   -3.1183    0.1605 O.3       1 <0>        -0.3623
     11 C6         -0.7859   -3.2272    1.4541 C.3       1 <0>         0.0916
     12 H4         -0.7130   -2.2696    1.9697 H         1 <0>         0.1040
     13 C7         -2.2583   -3.6153    1.3048 C.3       1 <0>         0.1518
     14 H5         -2.3312   -4.5728    0.7891 H         1 <0>         0.1218
     15 C8         -2.8980   -3.7319    2.6898 C.3       1 <0>         0.0833
     16 H6         -2.8251   -2.7743    3.2054 H         1 <0>         0.1034
     17 C9         -2.1675   -4.8045    3.5002 C.3       1 <0>         0.1125
     18 H7         -2.2404   -5.7620    2.9846 H         1 <0>         0.1207
     19 C10        -0.6951   -4.4164    3.6495 C.3       1 <0>         0.0511
     20 H8         -0.6222   -3.4588    4.1652 H         1 <0>         0.0937
     21 C11        -0.0554   -4.2998    2.2645 C.3       1 <0>         0.0650
     22 H9         -0.1283   -5.2573    1.7489 H         1 <0>         0.0904
     23 O3          1.3198   -3.9373    2.4040 O.3       1 <0>        -0.5372
     24 O4         -0.0128   -5.4182    4.4065 O.3       1 <0>        -0.5638
     25 N1         -2.7800   -4.9161    4.8264 N.pl3     1 <0>        -0.7007
     26 C12        -2.6791   -6.0847    5.5301 C.cat     1 <0>         0.7584
     27 N2         -3.2359   -6.1862    6.7358 N.pl3     1 <0>        -0.7884
     28 N3         -2.0240   -7.1211    5.0097 N.pl3     1 <0>        -0.7733
     29 O5         -4.2732   -4.0943    2.5503 O.3       1 <0>        -0.5505
     30 N4         -2.9578   -2.5882    0.5287 N.pl3     1 <0>        -0.6878
     31 C13        -4.0913   -2.9097   -0.1661 C.cat     1 <0>         0.7584
     32 N5         -4.7272   -1.9759   -0.8717 N.pl3     1 <0>        -0.7872
     33 N6         -4.5591   -4.1564   -0.1372 N.pl3     1 <0>        -0.7780
     34 O6          2.9287   -1.7961   -1.0968 O.3       1 <0>        -0.3473
     35 C14         3.8376   -2.3769   -2.0341 C.3       1 <0>         0.2175
     36 H10         3.4672   -2.2166   -3.0467 H         1 <0>         0.1148
     37 C15         5.2133   -1.7222   -1.8842 C.3       1 <0>         0.0869
     38 H11         5.8964   -2.1360   -2.6260 H         1 <0>         0.1108
     39 C16         5.7531   -2.0027   -0.4784 C.3       1 <0>         0.1332
     40 H12         5.0963   -1.5463    0.2622 H         1 <0>         0.0697
     41 C17         5.8026   -3.5173   -0.2552 C.3       1 <0>         0.0434
     42 H13         6.4977   -3.9674   -0.9641 H         1 <0>         0.0777
     43 C18         4.4042   -4.1026   -0.4681 C.3       1 <0>         0.0671
     44 H14         3.7183   -3.6822    0.2674 H         1 <0>         0.0819
     45 O7          3.9489   -3.7794   -1.7838 O.3       1 <0>        -0.3725
     46 C19         4.4573   -5.6231   -0.3056 C.3       1 <0>         0.0793
     47 O8          3.1342   -6.1571   -0.3854 O.3       1 <0>        -0.5650
     48 O9          6.2377   -3.7895    1.0784 O.3       1 <0>        -0.5532
     49 O10         7.0674   -1.4560   -0.3531 O.3       1 <0>        -0.5397
     50 N7          5.0913   -0.2720   -2.0842 N.3       1 <0>        -0.6638
     51 C20         5.1546    0.0697   -3.5115 C.3       1 <0>         0.0283
     52 C21         0.2699   -2.0221   -3.4037 C.2       1 <0>         0.3314
     53 O11        -0.9248   -2.0775   -3.5710 O.2       1 <0>        -0.4351
     54 O12         1.7082   -0.2224   -2.6838 O.3       1 <0>        -0.5089
     55 H15         0.3882    1.3631   -1.5690 H         1 <0>         0.0864
     56 H16        -0.8295    0.8848   -2.7759 H         1 <0>         0.0762
     57 H17        -1.3217    1.2143   -1.0974 H         1 <0>         0.0732
     58 H18         1.8593   -4.6051    2.8491 H         1 <0>         0.3939
     59 H19         0.9234   -5.2282    4.5565 H         1 <0>         0.4075
     60 H20        -3.2570   -4.1613    5.2054 H         1 <0>         0.4351
     61 H21        -3.7130   -5.4314    7.1148 H         1 <0>         0.4419
     62 H22        -1.6184   -7.0472    4.1317 H         1 <0>         0.4392
     63 H23        -1.9524   -7.9498    5.5088 H         1 <0>         0.4425
     64 H24        -4.7428   -4.1863    3.3906 H         1 <0>         0.4018
     65 H25        -2.6171   -1.6803    0.5077 H         1 <0>         0.4393
     66 H26        -4.3865   -1.0680   -0.8928 H         1 <0>         0.4417
     67 H27        -4.0960   -4.8364    0.3766 H         1 <0>         0.4360
     68 H28        -5.3630   -4.3844   -0.6300 H         1 <0>         0.4415
     69 H29         5.0706   -6.0520   -1.0981 H         1 <0>         0.0619
     70 H30         4.8909   -5.8700    0.6634 H         1 <0>         0.0631
     71 H31         3.0828   -7.1077   -0.2154 H         1 <0>         0.3818
     72 H32         6.2924   -4.7316    1.2897 H         1 <0>         0.3815
     73 H33         7.4711   -1.5972    0.5142 H         1 <0>         0.3851
     74 H34         4.3404   -0.4258   -4.0403 H         1 <0>         0.0220
     75 H35         5.0618    1.1492   -3.6312 H         1 <0>         0.0744
     76 H36         6.1087   -0.2607   -3.9222 H         1 <0>         0.0678
     77 H37         0.9354   -2.5205   -4.0930 H         1 <0>         0.1149
     78 H38         1.2799    0.4388   -3.2446 H         1 <0>         0.3888
     79 H39        -3.1643   -7.0149    7.2349 H         1 <0>         0.4457
     80 H40        -5.5310   -2.2039   -1.3645 H         1 <0>         0.4448
     81 H41         4.2439    0.0808   -1.6652 H         1 <0>         0.3566
@<TRIPOS>BOND
     1    1    2 1
     2    1   55 1
     3    1   56 1
     4    1   57 1
     5    2    3 1
     6    2    9 1
     7    2    4 1
     8    4    5 1
     9    4   52 1
    10    4   54 1
    11    5    6 1
    12    5    7 1
    13    5   34 1
    14    7    8 1
    15    7    9 1
    16    7   10 1
    17   10   11 1
    18   11   12 1
    19   11   21 1
    20   11   13 1
    21   13   14 1
    22   13   15 1
    23   13   30 1
    24   15   16 1
    25   15   17 1
    26   15   29 1
    27   17   18 1
    28   17   19 1
    29   17   25 1
    30   19   20 1
    31   19   21 1
    32   19   24 1
    33   21   22 1
    34   21   23 1
    35   23   58 1
    36   24   59 1
    37   25   26 1
    38   25   60 1
    39   26   27 2
    40   26   28 1
    41   27   61 1
    42   27   79 1
    43   28   62 1
    44   28   63 1
    45   29   64 1
    46   30   31 1
    47   30   65 1
    48   31   32 2
    49   31   33 1
    50   32   66 1
    51   32   80 1
    52   33   67 1
    53   33   68 1
    54   34   35 1
    55   35   36 1
    56   35   45 1
    57   35   37 1
    58   37   38 1
    59   37   39 1
    60   37   50 1
    61   39   40 1
    62   39   41 1
    63   39   49 1
    64   41   42 1
    65   41   43 1
    66   41   48 1
    67   43   44 1
    68   43   45 1
    69   43   46 1
    70   46   47 1
    71   46   69 1
    72   46   70 1
    73   47   71 1
    74   48   72 1
    75   49   73 1
    76   50   51 1
    77   50   81 1
    78   51   74 1
    79   51   75 1
    80   51   76 1
    81   52   53 2
    82   52   77 1
    83   54   78 1
@<TRIPOS>MOLECULE
ZINC53314424
   51    52     0     0     0
SMALL
USER_CHARGES

@<TRIPOS>ATOM
      1 C1         -0.0187    1.5258    0.0104 C.3       1 <0>        -0.1728
      2 C2          1.4167    2.0553   -0.0004 C.3       1 <0>         0.0440
      3 H1          1.9269    1.7038   -0.8972 H         1 <0>         0.1693
      4 C3          2.1567    1.5485    1.2391 C.3       1 <0>         0.0455
      5 H2          1.6465    1.9000    2.1359 H         1 <0>         0.0982
      6 C4          2.1775    0.0187    1.2307 C.3       1 <0>         0.0692
      7 H3          2.6876   -0.3328    0.3339 H         1 <0>         0.1062
      8 C5          0.7421   -0.5109    1.2415 C.3       1 <0>         0.0593
      9 H4          0.2319   -0.1594    2.1383 H         1 <0>         0.1024
     10 C6          0.0021   -0.0041    0.0020 C.3       1 <0>         0.0351
     11 H5          0.5123   -0.3556   -0.8948 H         1 <0>         0.1824
     12 N1         -1.3761   -0.5125    0.0124 N.4       1 <0>        -0.6358
     13 O1          0.7614   -1.9398    1.2337 O.3       1 <0>        -0.3591
     14 C7          0.7818   -2.5279    2.5359 C.3       1 <0>         0.2567
     15 H6          1.5684   -2.0649    3.1316 H         1 <0>         0.1571
     16 C8          1.0512   -4.0300    2.4135 C.3       1 <0>         0.0797
     17 H7          1.1071   -4.4723    3.4081 H         1 <0>         0.0856
     18 C9         -0.0892   -4.6828    1.6263 C.3       1 <0>         0.0817
     19 H8         -0.1139   -4.2762    0.6153 H         1 <0>         0.0813
     20 C10        -1.4166   -4.3858    2.3307 C.3       1 <0>         0.0423
     21 H9         -1.4106   -4.8353    3.3237 H         1 <0>         0.1002
     22 C11        -1.5907   -2.8700    2.4563 C.3       1 <0>         0.0802
     23 H10        -1.6372   -2.4258    1.4620 H         1 <0>         0.0544
     24 O2         -0.4813   -2.3219    3.1716 O.3       1 <0>        -0.3840
     25 C12        -2.8858   -2.5660    3.2121 C.3       1 <0>        -0.0074
     26 N2         -3.1141   -1.1149    3.2285 N.4       1 <0>        -0.6390
     27 O3         -2.4948   -4.9298    1.5668 O.3       1 <0>        -0.5625
     28 O4          0.1175   -6.0956    1.5683 O.3       1 <0>        -0.5428
     29 N3          2.3219   -4.2450    1.7085 N.3       1 <0>        -0.8298
     30 O5          2.8686   -0.4547    2.3884 O.3       1 <0>        -0.5436
     31 O6          3.4973    2.0431    1.2290 O.3       1 <0>        -0.5523
     32 N4          1.3968    3.5242    0.0076 N.4       1 <0>        -0.6302
     33 H11        -0.5289    1.8773    0.9072 H         1 <0>         0.1196
     34 H12        -0.5459    1.8868   -0.8726 H         1 <0>         0.1416
     35 H13        -1.8641   -0.1783   -0.8050 H         1 <0>         0.4568
     36 H14        -1.3624   -1.5214    0.0069 H         1 <0>         0.4502
     37 H15        -3.7209   -3.0596    2.7151 H         1 <0>         0.1726
     38 H16        -2.8039   -2.9325    4.2353 H         1 <0>         0.1652
     39 H17        -2.3410   -0.6580    3.6886 H         1 <0>         0.4406
     40 H18        -3.1898   -0.7756    2.2813 H         1 <0>         0.4078
     41 H19        -2.4456   -5.8877    1.4439 H         1 <0>         0.4123
     42 H20        -0.5689   -6.5740    1.0834 H         1 <0>         0.3936
     43 H21         3.0886   -3.8188    2.2071 H         1 <0>         0.3537
     44 H22         2.4903   -5.2285    1.5585 H         1 <0>         0.3729
     45 H23         3.7868   -0.1572    2.4473 H         1 <0>         0.4089
     46 H24         4.0265    1.7608    1.9875 H         1 <0>         0.4193
     47 H25         0.9245    3.8496    0.8378 H         1 <0>         0.4374
     48 H26         2.3434    3.8734    0.0005 H         1 <0>         0.4602
     49 H27        -3.9681   -0.9145    3.7269 H         1 <0>         0.4589
     50 H28        -1.8484   -0.1871    0.8426 H         1 <0>         0.4105
     51 H29         0.9088    3.8584   -0.8098 H         1 <0>         0.4462
@<TRIPOS>BOND
     1    1   10 1
     2    1    2 1
     3    1   33 1
     4    1   34 1
     5    2    3 1
     6    2    4 1
     7    2   32 1
     8    4    5 1
     9    4    6 1
    10    4   31 1
    11    6    7 1
    12    6    8 1
    13    6   30 1
    14    8    9 1
    15    8   10 1
    16    8   13 1
    17   10   11 1
    18   10   12 1
    19   12   35 1
    20   12   36 1
    21   12   50 1
    22   13   14 1
    23   14   15 1
    24   14   24 1
    25   14   16 1
    26   16   17 1
    27   16   18 1
    28   16   29 1
    29   18   19 1
    30   18   20 1
    31   18   28 1
    32   20   21 1
    33   20   22 1
    34   20   27 1
    35   22   23 1
    36   22   24 1
    37   22   25 1
    38   25   26 1
    39   25   37 1
    40   25   38 1
    41   26   39 1
    42   26   40 1
    43   26   49 1
    44   27   41 1
    45   28   42 1
    46   29   43 1
    47   29   44 1
    48   30   45 1
    49   31   46 1
    50   32   47 1
    51   32   48 1
    52   32   51 1
@<TRIPOS>MOLECULE
ZINC53314424
   52    53     0     0     0
SMALL
USER_CHARGES

@<TRIPOS>ATOM
      1 C1         -0.0187    1.5258    0.0104 C.3       1 <0>        -0.1775
      2 C2          1.4167    2.0553   -0.0004 C.3       1 <0>         0.0436
      3 H1          1.9269    1.7038   -0.8972 H         1 <0>         0.1700
      4 C3          2.1567    1.5485    1.2391 C.3       1 <0>         0.0464
      5 H2          1.6465    1.9000    2.1359 H         1 <0>         0.1034
      6 C4          2.1775    0.0187    1.2307 C.3       1 <0>         0.0635
      7 H3          2.6876   -0.3328    0.3339 H         1 <0>         0.1093
      8 C5          0.7421   -0.5109    1.2415 C.3       1 <0>         0.0677
      9 H4          0.2319   -0.1594    2.1383 H         1 <0>         0.1187
     10 C6          0.0021   -0.0041    0.0020 C.3       1 <0>         0.0366
     11 H5          0.5123   -0.3556   -0.8948 H         1 <0>         0.1852
     12 N1         -1.3761   -0.5125    0.0124 N.4       1 <0>        -0.6381
     13 O1          0.7614   -1.9398    1.2337 O.3       1 <0>        -0.4006
     14 C7          0.7818   -2.5279    2.5359 C.3       1 <0>         0.2376
     15 H6          1.5684   -2.0649    3.1316 H         1 <0>         0.1809
     16 C8          1.0512   -4.0300    2.4135 C.3       1 <0>         0.0203
     17 H7          1.1071   -4.4723    3.4081 H         1 <0>         0.1887
     18 C9         -0.0892   -4.6828    1.6263 C.3       1 <0>         0.0517
     19 H8         -0.1139   -4.2762    0.6153 H         1 <0>         0.0995
     20 C10        -1.4166   -4.3858    2.3307 C.3       1 <0>         0.0518
     21 H9         -1.4106   -4.8353    3.3237 H         1 <0>         0.1162
     22 C11        -1.5907   -2.8700    2.4563 C.3       1 <0>         0.0685
     23 H10        -1.6372   -2.4258    1.4620 H         1 <0>         0.0643
     24 O2         -0.4813   -2.3219    3.1716 O.3       1 <0>        -0.3563
     25 C12        -2.8858   -2.5660    3.2121 C.3       1 <0>        -0.0064
     26 N2         -3.1141   -1.1149    3.2285 N.4       1 <0>        -0.6404
     27 O3         -2.4948   -4.9298    1.5668 O.3       1 <0>        -0.5472
     28 O4          0.1175   -6.0956    1.5683 O.3       1 <0>        -0.5451
     29 N3          2.3219   -4.2450    1.7085 N.4       1 <0>        -0.6254
     30 O5          2.8686   -0.4547    2.3884 O.3       1 <0>        -0.5578
     31 O6          3.4973    2.0431    1.2290 O.3       1 <0>        -0.5459
     32 N4          1.3968    3.5242    0.0076 N.4       1 <0>        -0.6310
     33 H11        -0.5289    1.8773    0.9072 H         1 <0>         0.1243
     34 H12        -0.5459    1.8868   -0.8726 H         1 <0>         0.1488
     35 H13        -1.8641   -0.1783   -0.8050 H         1 <0>         0.4641
     36 H14        -1.3624   -1.5214    0.0069 H         1 <0>         0.4457
     37 H15        -3.7209   -3.0596    2.7151 H         1 <0>         0.1802
     38 H16        -2.8039   -2.9325    4.2353 H         1 <0>         0.1712
     39 H17        -2.3410   -0.6580    3.6886 H         1 <0>         0.4407
     40 H18        -3.1898   -0.7756    2.2813 H         1 <0>         0.4097
     41 H19        -2.4456   -5.8877    1.4439 H         1 <0>         0.4202
     42 H20        -0.5689   -6.5740    1.0834 H         1 <0>         0.4214
     43 H21         3.0713   -3.8104    2.2259 H         1 <0>         0.4480
     44 H22         2.4987   -5.2351    1.6283 H         1 <0>         0.4625
     45 H23         3.7868   -0.1572    2.4473 H         1 <0>         0.4196
     46 H24         4.0265    1.7608    1.9875 H         1 <0>         0.4206
     47 H25         0.9245    3.8496    0.8378 H         1 <0>         0.4398
     48 H26         2.3434    3.8734    0.0005 H         1 <0>         0.4628
     49 H27        -3.9681   -0.9145    3.7269 H         1 <0>         0.4662
     50 H28        -1.8484   -0.1871    0.8426 H         1 <0>         0.4143
     51 H29         0.9088    3.8584   -0.8098 H         1 <0>         0.4501
     52 H30         2.2686   -3.8371    0.7872 H         1 <0>         0.4375
@<TRIPOS>BOND
     1    1   10 1
     2    1    2 1
     3    1   33 1
     4    1   34 1
     5    2    3 1
     6    2    4 1
     7    2   32 1
     8    4    5 1
     9    4    6 1
    10    4   31 1
    11    6    7 1
    12    6    8 1
    13    6   30 1
    14    8    9 1
    15    8   10 1
    16    8   13 1
    17   10   11 1
    18   10   12 1
    19   12   35 1
    20   12   36 1
    21   12   50 1
    22   13   14 1
    23   14   15 1
    24   14   24 1
    25   14   16 1
    26   16   17 1
    27   16   18 1
    28   16   29 1
    29   18   19 1
    30   18   20 1
    31   18   28 1
    32   20   21 1
    33   20   22 1
    34   20   27 1
    35   22   23 1
    36   22   24 1
    37   22   25 1
    38   25   26 1
    39   25   37 1
    40   25   38 1
    41   26   39 1
    42   26   40 1
    43   26   49 1
    44   27   41 1
    45   28   42 1
    46   29   43 1
    47   29   44 1
    48   29   52 1
    49   30   45 1
    50   31   46 1
    51   32   47 1
    52   32   48 1
    53   32   51 1
