@<TRIPOS>MOLECULE
ZINC00005155
   28    30     0     0     0
SMALL
USER_CHARGES

@<TRIPOS>ATOM
      1 C1         -0.0163    1.3493    0.0095 C.2       1 <0>        -0.2099
      2 C2          1.3115    1.7944   -0.0008 C.2       1 <0>        -0.1100
      3 C3          2.1110    0.6864   -0.0144 C.2       1 <0>         0.0098
      4 N1          1.2955   -0.4196   -0.0126 N.pl3     1 <0>        -0.5511
      5 H1          1.5934   -1.3426   -0.0207 H         1 <0>         0.4144
      6 C4          0.0021   -0.0041    0.0020 C.2       1 <0>         0.0224
      7 C5          3.5833    0.6788   -0.0292 C.2       1 <0>         0.2942
      8 N2          4.1867    1.8193   -0.0244 N.2       1 <0>        -0.4872
      9 C6          5.6454    1.9206   -0.0445 C.3       1 <0>         0.0273
     10 C7          6.1563    1.3393   -1.3345 C.2       1 <0>         0.5119
     11 O1          6.7385    2.0598   -2.1173 O.2       1 <0>        -0.5088
     12 N3          5.9865    0.0547   -1.6391 N.am      1 <0>        -0.6634
     13 C8          5.3909   -0.8897   -0.8163 C.ar      1 <0>         0.1823
     14 C9          4.2582   -0.6297   -0.0426 C.ar      1 <0>        -0.1190
     15 C10         3.7214   -1.6461    0.7611 C.ar      1 <0>        -0.0768
     16 C11         4.3062   -2.8923    0.7966 C.ar      1 <0>        -0.0460
     17 C12         5.4349   -3.1499    0.0352 C.ar      1 <0>        -0.0664
     18 C13         5.9719   -2.1583   -0.7719 C.ar      1 <0>        -0.1256
     19 Cl1         3.6296   -4.1405    1.7955 Cl        1 <0>        -0.0498
     20 H2         -0.8971    1.9740    0.0253 H         1 <0>         0.1434
     21 H3          1.6421    2.8226    0.0010 H         1 <0>         0.1481
     22 H4         -0.8662   -0.6463    0.0069 H         1 <0>         0.1723
     23 H5          5.9396    2.9678    0.0258 H         1 <0>         0.1363
     24 H6          6.0615    1.3655    0.7962 H         1 <0>         0.0945
     25 H7          6.3042   -0.2445   -2.5054 H         1 <0>         0.4145
     26 H8          2.8421   -1.4498    1.3567 H         1 <0>         0.1451
     27 H9          5.8940   -4.1270    0.0649 H         1 <0>         0.1493
     28 H10         6.8515   -2.3643   -1.3637 H         1 <0>         0.1484
@<TRIPOS>BOND
     1    1    6 2
     2    1    2 1
     3    1   20 1
     4    2    3 2
     5    2   21 1
     6    3    4 1
     7    3    7 1
     8    4    5 1
     9    4    6 1
    10    6   22 1
    11    7   14 1
    12    7    8 2
    13    8    9 1
    14    9   10 1
    15    9   23 1
    16    9   24 1
    17   10   11 2
    18   10   12 am
    19   12   13 1
    20   12   25 1
    21   13   18 ar
    22   13   14 ar
    23   14   15 ar
    24   15   16 ar
    25   15   26 1
    26   16   17 ar
    27   16   19 1
    28   17   18 ar
    29   17   27 1
    30   18   28 1
