@<TRIPOS>MOLECULE
ZINC00621853
   54    56     0     0     0
SMALL
USER_CHARGES

@<TRIPOS>ATOM
      1 C1         -0.0284    1.4293   -0.4778 C.3       1 <0>        -0.1767
      2 C2         -0.0129   -0.0745   -0.3804 C.2       1 <0>         0.5133
      3 O1          1.0419   -0.6727   -0.4014 O.2       1 <0>        -0.5352
      4 N1         -1.1713   -0.7546   -0.2699 N.am      1 <0>        -0.7311
      5 C3         -1.1562   -2.2164   -0.1752 C.3       1 <0>         0.1688
      6 H1         -0.2762   -2.5266    0.3883 H         1 <0>         0.1083
      7 C4         -2.3999   -2.6766    0.5586 C.3       1 <0>        -0.1167
      8 C5         -2.6213   -4.1756    0.3776 C.3       1 <0>        -0.0793
      9 C6         -1.3153   -4.9067    0.5534 C.ar      1 <0>        -0.0232
     10 C7         -1.0582   -5.5960    1.7202 C.ar      1 <0>        -0.1967
     11 C8          0.1423   -6.2778    1.8745 C.ar      1 <0>         0.1328
     12 C9          1.0898   -6.2717    0.8565 C.ar      1 <0>         0.0421
     13 C10         0.8389   -5.5766   -0.3193 C.ar      1 <0>         0.1373
     14 C11        -0.3691   -4.8877   -0.4655 C.ar      1 <0>        -0.0983
     15 C12        -0.6334   -4.1159   -1.7162 C.2       1 <0>        -0.0547
     16 C13        -1.0800   -2.8009   -1.5711 C.2       1 <0>         0.0265
     17 C14        -1.4567   -1.9931   -2.5770 C.2       1 <0>        -0.2146
     18 C15        -1.4974   -2.1542   -3.9332 C.2       1 <0>         0.3926
     19 O2         -1.9764   -1.2222   -4.5653 O.2       1 <0>        -0.4893
     20 C16        -1.0654   -3.2383   -4.6895 C.2       1 <0>         0.1028
     21 C17        -0.5761   -4.4044   -4.1889 C.2       1 <0>        -0.1927
     22 C18        -0.4083   -4.7668   -2.9017 C.2       1 <0>        -0.0172
     23 O3         -1.1385   -3.1234   -6.0380 O.3       1 <0>        -0.2828
     24 C19        -0.6931   -4.2409   -6.8094 C.3       1 <0>         0.0136
     25 O4          1.7595   -5.5657   -1.3188 O.3       1 <0>        -0.3263
     26 C20         2.8002   -4.5904   -1.2317 C.3       1 <0>         0.0375
     27 O5          2.2617   -6.9458    1.0126 O.3       1 <0>        -0.3181
     28 C21         2.2856   -8.3114    0.5923 C.3       1 <0>         0.0378
     29 O6          0.3920   -6.9547    3.0264 O.3       1 <0>        -0.3018
     30 C22        -0.6230   -6.9211    4.0317 C.3       1 <0>         0.0227
     31 H2          0.9938    1.7986   -0.5602 H         1 <0>         0.0946
     32 H3         -0.5957    1.7305   -1.3585 H         1 <0>         0.0918
     33 H4         -0.4946    1.8464    0.4148 H         1 <0>         0.0904
     34 H5         -2.0149   -0.2761   -0.2531 H         1 <0>         0.4055
     35 H6         -2.2905   -2.4569    1.6206 H         1 <0>         0.0846
     36 H7         -3.2642   -2.1380    0.1701 H         1 <0>         0.0835
     37 H8         -3.3373   -4.5286    1.1197 H         1 <0>         0.0890
     38 H9         -3.0121   -4.3664   -0.6219 H         1 <0>         0.0850
     39 H10        -1.7902   -5.6054    2.5142 H         1 <0>         0.1419
     40 H11        -1.7954   -1.0220   -2.2473 H         1 <0>         0.1371
     41 H12        -0.2789   -5.1392   -4.9226 H         1 <0>         0.1361
     42 H13        -0.0246   -5.7689   -2.7793 H         1 <0>         0.1273
     43 H14        -1.2900   -5.1174   -6.5574 H         1 <0>         0.0642
     44 H15        -0.8052   -4.0177   -7.8704 H         1 <0>         0.1099
     45 H16         0.3557   -4.4397   -6.5888 H         1 <0>         0.0642
     46 H17         3.4194   -4.7966   -0.3586 H         1 <0>         0.0551
     47 H18         3.4145   -4.6331   -2.1311 H         1 <0>         0.0957
     48 H19         2.3606   -3.5973   -1.1389 H         1 <0>         0.0532
     49 H20         1.9730   -8.3763   -0.4499 H         1 <0>         0.0481
     50 H21         3.2970   -8.7050    0.6934 H         1 <0>         0.0941
     51 H22         1.6051   -8.8945    1.2127 H         1 <0>         0.0461
     52 H23        -1.5429   -7.3495    3.6338 H         1 <0>         0.0583
     53 H24        -0.2973   -7.4993    4.8964 H         1 <0>         0.1043
     54 H25        -0.8031   -5.8888    4.3318 H         1 <0>         0.0588
@<TRIPOS>BOND
     1    1    2 1
     2    1   31 1
     3    1   32 1
     4    1   33 1
     5    2    3 2
     6    2    4 am
     7    4    5 1
     8    4   34 1
     9    5    6 1
    10    5   16 1
    11    5    7 1
    12    7    8 1
    13    7   35 1
    14    7   36 1
    15    8    9 1
    16    8   37 1
    17    8   38 1
    18    9   14 ar
    19    9   10 ar
    20   10   11 ar
    21   10   39 1
    22   11   12 ar
    23   11   29 1
    24   12   13 ar
    25   12   27 1
    26   13   14 ar
    27   13   25 1
    28   14   15 1
    29   15   22 2
    30   15   16 1
    31   16   17 2
    32   17   18 1
    33   17   40 1
    34   18   19 2
    35   18   20 1
    36   20   21 2
    37   20   23 1
    38   21   22 1
    39   21   41 1
    40   22   42 1
    41   23   24 1
    42   24   43 1
    43   24   44 1
    44   24   45 1
    45   25   26 1
    46   26   46 1
    47   26   47 1
    48   26   48 1
    49   27   28 1
    50   28   49 1
    51   28   50 1
    52   28   51 1
    53   29   30 1
    54   30   52 1
    55   30   53 1
    56   30   54 1
@<TRIPOS>MOLECULE
ZINC00753111
   32    34     0     0     0
SMALL
USER_CHARGES
N-(4-bromophenyl)-4-(2,4-dimethylthiazol-5-yl)-thiazol-2-amine
@<TRIPOS>ATOM
      1 C1         -0.0566    1.0856    0.0510 C.3       1 <0>        -0.0826
      2 C2         -0.7317    1.7734    1.2096 C.2       1 <0>         0.0990
      3 C3         -2.0519    2.1367    1.1427 C.2       1 <0>        -0.1440
      4 S1         -2.2689    2.8776    2.7545 S.3       1 <0>         0.0666
      5 C4         -0.6464    2.6471    3.3288 C.2       1 <0>         0.0968
      6 N1         -0.0706    2.0478    2.3121 N.2       1 <0>        -0.5099
      7 C5         -0.0501    3.0368    4.6569 C.3       1 <0>        -0.0663
      8 C6         -3.0260    1.9625    0.0433 C.2       1 <0>         0.1853
      9 C7         -4.3132    2.4032    0.1833 C.2       1 <0>        -0.2301
     10 S2         -4.9990    1.9399   -1.4014 S.3       1 <0>         0.0389
     11 C8         -3.5167    1.2126   -2.0854 C.2       1 <0>         0.3645
     12 N2         -2.6583    1.3799   -1.0961 N.2       1 <0>        -0.5437
     13 N3         -3.3190    0.6316   -3.3283 N.pl3     1 <0>        -0.6095
     14 C9         -4.4024    0.4401   -4.1908 C.ar      1 <0>         0.1756
     15 C10        -5.6602    0.1540   -3.6752 C.ar      1 <0>        -0.1531
     16 C11        -6.7298   -0.0290   -4.5295 C.ar      1 <0>        -0.0516
     17 C12        -6.5471    0.0612   -5.8981 C.ar      1 <0>        -0.1101
     18 C13        -5.2943    0.3405   -6.4147 C.ar      1 <0>        -0.0562
     19 C14        -4.2221    0.5300   -5.5652 C.ar      1 <0>        -0.1364
     20 Br1        -8.0128   -0.1971   -7.0647 Br        1 <0>        -0.0416
     21 H1         -0.1608    0.0059    0.1587 H         1 <0>         0.0716
     22 H2          1.0010    1.3490    0.0382 H         1 <0>         0.0669
     23 H3         -0.5218    1.4042   -0.8818 H         1 <0>         0.0961
     24 H4          0.3604    4.0443    4.5892 H         1 <0>         0.0938
     25 H5         -0.8238    3.0105    5.4243 H         1 <0>         0.0890
     26 H6          0.7443    2.3376    4.9177 H         1 <0>         0.0964
     27 H7         -4.7854    2.8950    1.0209 H         1 <0>         0.1984
     28 H8         -2.4288    0.3578   -3.5996 H         1 <0>         0.4301
     29 H9         -5.8024    0.0791   -2.6072 H         1 <0>         0.1398
     30 H10        -7.7088   -0.2470   -4.1290 H         1 <0>         0.1420
     31 H11        -5.1548    0.4106   -7.4834 H         1 <0>         0.1427
     32 H12        -3.2445    0.7483   -5.9690 H         1 <0>         0.1416
@<TRIPOS>BOND
     1    1    2 1
     2    1   21 1
     3    1   22 1
     4    1   23 1
     5    2    6 1
     6    2    3 2
     7    3    4 1
     8    3    8 1
     9    4    5 1
    10    5    6 2
    11    5    7 1
    12    7   24 1
    13    7   25 1
    14    7   26 1
    15    8   12 1
    16    8    9 2
    17    9   10 1
    18    9   27 1
    19   10   11 1
    20   11   12 2
    21   11   13 1
    22   13   14 1
    23   13   28 1
    24   14   19 ar
    25   14   15 ar
    26   15   16 ar
    27   15   29 1
    28   16   17 ar
    29   16   30 1
    30   17   18 ar
    31   17   20 1
    32   18   19 ar
    33   18   31 1
    34   19   32 1
@<TRIPOS>MOLECULE
ZINC03861806
   52    56     0     0     0
SMALL
USER_CHARGES

@<TRIPOS>ATOM
      1 C1         -3.6930   -4.3953    1.3855 C.3       1 <0>         0.0252
      2 O1         -2.4437   -3.8768    0.9246 O.3       1 <0>        -0.3003
      3 C2         -2.4359   -2.5932    0.4754 C.ar      1 <0>         0.1495
      4 C3         -3.6051   -1.8476    0.4840 C.ar      1 <0>        -0.2259
      5 C4         -3.5982   -0.5428    0.0277 C.ar      1 <0>        -0.0209
      6 C5         -2.4270    0.0241   -0.4388 C.ar      1 <0>        -0.2100
      7 C6         -1.2537   -0.7147   -0.4507 C.ar      1 <0>         0.1530
      8 C7         -1.2551   -2.0250    0.0125 C.ar      1 <0>         0.0322
      9 O2         -0.1044   -2.7517    0.0077 O.3       1 <0>        -0.3125
     10 C8          0.1804   -3.5080   -1.1708 C.3       1 <0>         0.0352
     11 O3         -0.1020   -0.1562   -0.9103 O.3       1 <0>        -0.3009
     12 C9         -0.1736    1.1963   -1.3658 C.3       1 <0>         0.0228
     13 C10        -4.8712    0.2637    0.0384 C.3       1 <0>         0.0189
     14 H1         -4.6351    1.3241    0.1275 H         1 <0>         0.1131
     15 C11        -5.7434   -0.1683    1.2044 C.ar      1 <0>        -0.0529
     16 C12        -5.3819    0.3279    2.4585 C.ar      1 <0>        -0.0868
     17 C13        -6.1565   -0.0324    3.5478 C.ar      1 <0>         0.0421
     18 C14        -7.2723   -0.8695    3.3919 C.ar      1 <0>         0.0393
     19 C15        -7.6229   -1.3601    2.1459 C.ar      1 <0>        -0.0960
     20 C16        -6.8323   -0.9991    1.0529 C.ar      1 <0>        -0.1113
     21 C17        -7.2358   -1.5900   -0.2866 C.3       1 <0>         0.1688
     22 H2         -8.0711   -1.0261   -0.7019 H         1 <0>         0.0847
     23 C18        -6.0407   -1.4964   -1.2162 C.3       1 <0>        -0.1345
     24 H3         -5.2202   -2.1338   -0.8868 H         1 <0>         0.1266
     25 C19        -5.6449    0.0168   -1.2401 C.3       1 <0>        -0.1550
     26 H4         -6.5338    0.6466   -1.2763 H         1 <0>         0.1353
     27 C20        -4.8681    0.0939   -2.5223 C.2       1 <0>         0.5007
     28 O4         -3.9698    0.8653   -2.7630 O.2       1 <0>        -0.4366
     29 O5         -5.3498   -0.8527   -3.3612 O.3       1 <0>        -0.3458
     30 C21        -6.3520   -1.6858   -2.7083 C.3       1 <0>         0.0681
     31 O6         -7.6124   -2.9581   -0.1179 O.3       1 <0>        -0.5509
     32 O7         -7.8478   -1.0577    4.6012 O.3       1 <0>        -0.3030
     33 C22        -6.8554   -0.6544    5.5678 C.3       1 <0>         0.2110
     34 O8         -6.0375    0.2962    4.8542 O.3       1 <0>        -0.3017
     35 H5         -3.5594   -5.4258    1.7147 H         1 <0>         0.1036
     36 H6         -4.0518   -3.7913    2.2188 H         1 <0>         0.0550
     37 H7         -4.4206   -4.3644    0.5745 H         1 <0>         0.0591
     38 H8         -4.5223   -2.2870    0.8474 H         1 <0>         0.1403
     39 H9         -2.4259    1.0438   -0.7948 H         1 <0>         0.1436
     40 H10         1.1236   -4.0390   -1.0427 H         1 <0>         0.0933
     41 H11        -0.6206   -4.2268   -1.3436 H         1 <0>         0.0441
     42 H12         0.2553   -2.8352   -2.0251 H         1 <0>         0.0449
     43 H13        -0.8820    1.2647   -2.1914 H         1 <0>         0.0632
     44 H14        -0.5045    1.8377   -0.5490 H         1 <0>         0.0578
     45 H15         0.8112    1.5183   -1.7045 H         1 <0>         0.1032
     46 H16        -4.5237    0.9730    2.5752 H         1 <0>         0.1469
     47 H17        -8.4816   -2.0034    2.0228 H         1 <0>         0.1434
     48 H18        -6.2416   -2.7319   -2.9939 H         1 <0>         0.1164
     49 H19        -7.3548   -1.3271   -2.9400 H         1 <0>         0.0940
     50 H20        -8.3572   -3.0895    0.4848 H         1 <0>         0.3841
     51 H21        -7.3297   -0.1809    6.4274 H         1 <0>         0.1352
     52 H22        -6.2591   -1.5107    5.8829 H         1 <0>         0.0906
@<TRIPOS>BOND
     1    1    2 1
     2    1   35 1
     3    1   36 1
     4    1   37 1
     5    2    3 1
     6    3    8 ar
     7    3    4 ar
     8    4    5 ar
     9    4   38 1
    10    5    6 ar
    11    5   13 1
    12    6    7 ar
    13    6   39 1
    14    7    8 ar
    15    7   11 1
    16    8    9 1
    17    9   10 1
    18   10   40 1
    19   10   41 1
    20   10   42 1
    21   11   12 1
    22   12   43 1
    23   12   44 1
    24   12   45 1
    25   13   14 1
    26   13   25 1
    27   13   15 1
    28   15   20 ar
    29   15   16 ar
    30   16   17 ar
    31   16   46 1
    32   17   34 1
    33   17   18 ar
    34   18   19 ar
    35   18   32 1
    36   19   20 ar
    37   19   47 1
    38   20   21 1
    39   21   22 1
    40   21   23 1
    41   21   31 1
    42   23   24 1
    43   23   30 1
    44   23   25 1
    45   25   26 1
    46   25   27 1
    47   27   28 2
    48   27   29 1
    49   29   30 1
    50   30   48 1
    51   30   49 1
    52   31   50 1
    53   32   33 1
    54   33   34 1
    55   33   51 1
    56   33   52 1
