@<TRIPOS>MOLECULE
ZINC58638454
   36    39     0     0     0
SMALL
USER_CHARGES

@<TRIPOS>ATOM
      1 C1          1.0856   -0.4596    0.7542 C.ar      1 <0>        -0.0832
      2 C2          2.2742    0.2440    0.7408 C.ar      1 <0>        -0.1072
      3 C3          2.3814    1.4102   -0.0062 C.ar      1 <0>         0.1804
      4 C4          1.2919    1.8655   -0.7379 C.ar      1 <0>        -0.1496
      5 C5          0.1054    1.1571   -0.7204 C.ar      1 <0>        -0.0148
      6 C6          0.0026   -0.0047    0.0253 C.ar      1 <0>        -0.1319
      7 Cl1        -1.2573    1.7249   -1.6338 Cl        1 <0>        -0.0755
      8 N1          3.5827    2.1243   -0.0212 N.pl3     1 <0>        -0.6509
      9 C7          4.7876    1.4521    0.0681 C.ar      1 <0>         0.4153
     10 C8          6.0341    2.2096    0.1758 C.ar      1 <0>        -0.0765
     11 C9          6.0766    3.6057    0.1939 C.ar      1 <0>        -0.1369
     12 C10         7.2943    4.2214    0.2981 C.ar      1 <0>         0.0773
     13 N2          8.4194    3.5315    0.3811 N.ar      1 <0>        -0.4714
     14 C11         8.4464    2.2147    0.3695 C.ar      1 <0>         0.1272
     15 C12         7.2551    1.5004    0.2664 C.ar      1 <0>        -0.0441
     16 C13         7.1958    0.0359    0.2463 C.ar      1 <0>        -0.1077
     17 C14         8.3565   -0.7366    0.3320 C.ar      1 <0>        -0.1123
     18 C15         8.2776   -2.0965    0.3119 C.ar      1 <0>        -0.0757
     19 C16         7.0321   -2.7341    0.2047 C.ar      1 <0>        -0.1079
     20 C17         5.8644   -1.9869    0.1182 C.ar      1 <0>        -0.0623
     21 C18         5.9309   -0.5872    0.1382 C.ar      1 <0>         0.1355
     22 N3          4.8025    0.1408    0.0611 N.ar      1 <0>        -0.5111
     23 C19         6.9625   -4.2076    0.1833 C.2       1 <0>         0.5195
     24 O1          7.9882   -4.8693    0.2588 O.co2     1 <0>        -0.6816
     25 O2          5.8791   -4.7673    0.0900 O.co2     1 <0>        -0.6793
     26 H1          1.0036   -1.3687    1.3314 H         1 <0>         0.1366
     27 H2          3.1195   -0.1121    1.3110 H         1 <0>         0.1448
     28 H3          1.3719    2.7720   -1.3194 H         1 <0>         0.1316
     29 H4         -0.9254   -0.5569    0.0374 H         1 <0>         0.1318
     30 H5          3.5711    3.0914   -0.0942 H         1 <0>         0.4165
     31 H6          5.1685    4.1865    0.1268 H         1 <0>         0.1362
     32 H7          7.3377    5.3004    0.3126 H         1 <0>         0.1575
     33 H8          9.3884    1.6910    0.4392 H         1 <0>         0.1690
     34 H9          9.3193   -0.2543    0.4140 H         1 <0>         0.1236
     35 H10         9.1791   -2.6874    0.3786 H         1 <0>         0.1360
     36 H11         4.9085   -2.4828    0.0363 H         1 <0>         0.1412
@<TRIPOS>BOND
     1    1    6 ar
     2    1    2 ar
     3    1   26 1
     4    2    3 ar
     5    2   27 1
     6    3    4 ar
     7    3    8 1
     8    4    5 ar
     9    4   28 1
    10    5    6 ar
    11    5    7 1
    12    6   29 1
    13    8    9 1
    14    8   30 1
    15    9   22 ar
    16    9   10 ar
    17   10   15 ar
    18   10   11 ar
    19   11   12 ar
    20   11   31 1
    21   12   13 ar
    22   12   32 1
    23   13   14 ar
    24   14   15 ar
    25   14   33 1
    26   15   16 ar
    27   16   21 ar
    28   16   17 ar
    29   17   18 ar
    30   17   34 1
    31   18   19 ar
    32   18   35 1
    33   19   20 ar
    34   19   23 1
    35   20   21 ar
    36   20   36 1
    37   21   22 ar
    38   23   24 2
    39   23   25 1
@<TRIPOS>MOLECULE
ZINC22448983
   66    69     0     0     0
SMALL
USER_CHARGES
4-[(2,4-dichloro-5-methoxy-phenyl)amino]-6-methoxy-7-[3-(4-methylpiperazin-1-yl)propoxy]quinoline-3-carbonitrile
@<TRIPOS>ATOM
      1 C1        -10.0137   -6.5102   -1.8158 C.3       1 <0>        -0.0453
      2 N1         -8.6540   -6.0169   -1.5593 N.4       1 <0>        -0.4030
      3 C2         -7.7903   -6.2205   -2.7307 C.3       1 <0>        -0.0001
      4 C3         -6.3670   -5.7678   -2.3965 C.3       1 <0>         0.0245
      5 N2         -6.3862   -4.3530   -1.9994 N.3       1 <0>        -0.5385
      6 C4         -7.2499   -4.1494   -0.8281 C.3       1 <0>         0.0179
      7 C5         -8.6733   -4.6021   -1.1623 C.3       1 <0>         0.0000
      8 C6         -5.0265   -3.8597   -1.7430 C.3       1 <0>         0.0567
      9 C7         -5.0583   -2.3389   -1.5783 C.3       1 <0>        -0.1184
     10 C8         -3.6421   -1.8251   -1.3112 C.3       1 <0>         0.0518
     11 O1         -3.6719   -0.4047   -1.1574 O.3       1 <0>        -0.2957
     12 C9         -2.4875    0.2141   -0.9129 C.ar      1 <0>         0.1552
     13 C10        -1.3345   -0.5326   -0.8253 C.ar      1 <0>        -0.1775
     14 C11        -0.1099    0.1042   -0.5728 C.ar      1 <0>         0.1880
     15 C12        -0.0839    1.5107   -0.4123 C.ar      1 <0>        -0.1309
     16 C13        -1.2740    2.2476   -0.5007 C.ar      1 <0>        -0.1492
     17 C14        -2.4527    1.6062   -0.7522 C.ar      1 <0>         0.1113
     18 O2         -3.6043    2.3237   -0.8425 O.3       1 <0>        -0.3022
     19 C15        -3.5023    3.7385   -0.6693 C.3       1 <0>         0.0181
     20 C16         1.1518    2.1498   -0.1579 C.ar      1 <0>         0.3245
     21 C17         2.2996    1.3468   -0.0768 C.ar      1 <0>        -0.1668
     22 C18         2.1804   -0.0418   -0.2488 C.ar      1 <0>         0.2178
     23 N3          1.0238   -0.6069   -0.4836 N.ar      1 <0>        -0.5049
     24 C19         3.5791    1.9370    0.1785 C.1       1 <0>         0.2512
     25 N4          4.5940    2.4052    0.3811 N.1       1 <0>        -0.4037
     26 N5          1.2264    3.5186    0.0048 N.pl3     1 <0>        -0.6798
     27 C20         2.4372    4.1835   -0.2122 C.ar      1 <0>         0.1811
     28 C21         3.1043    4.7773    0.8508 C.ar      1 <0>        -0.1911
     29 C22         4.3041    5.4350    0.6325 C.ar      1 <0>         0.1715
     30 C23         4.8372    5.4992   -0.6482 C.ar      1 <0>        -0.0467
     31 C24         4.1721    4.9075   -1.7063 C.ar      1 <0>        -0.0516
     32 C25         2.9774    4.2459   -1.4914 C.ar      1 <0>        -0.0699
     33 Cl1         2.1481    3.4984   -2.8208 Cl        1 <0>        -0.0422
     34 Cl2         6.3403    6.3238   -0.9213 Cl        1 <0>        -0.0317
     35 O3          4.9590    6.0176    1.6716 O.3       1 <0>        -0.2942
     36 C26         4.4145    5.8149    2.9772 C.3       1 <0>         0.0202
     37 H1         -9.9701   -7.5691   -2.1104 H         1 <0>         0.1247
     38 H2        -10.4701   -5.9227   -2.6260 H         1 <0>         0.1201
     39 H3        -10.6190   -6.4082   -0.9030 H         1 <0>         0.1247
     40 H4         -7.7832   -7.2870   -3.0001 H         1 <0>         0.1368
     41 H5         -8.1745   -5.6313   -3.5764 H         1 <0>         0.1352
     42 H6         -5.9734   -6.3765   -1.5691 H         1 <0>         0.0623
     43 H7         -5.7253   -5.8927   -3.2811 H         1 <0>         0.1248
     44 H8         -6.8657   -4.7386    0.0176 H         1 <0>         0.0625
     45 H9         -7.2570   -3.0829   -0.5587 H         1 <0>         0.1270
     46 H10        -9.0676   -3.9944   -1.9901 H         1 <0>         0.1353
     47 H11        -9.3157   -4.4781   -0.2780 H         1 <0>         0.1365
     48 H12        -4.6368   -4.3201   -0.8231 H         1 <0>         0.0524
     49 H13        -4.3751   -4.1233   -2.5893 H         1 <0>         0.0947
     50 H14        -5.4480   -1.8786   -2.4982 H         1 <0>         0.0902
     51 H15        -5.7097   -2.0753   -0.7320 H         1 <0>         0.0766
     52 H16        -3.2525   -2.2855   -0.3913 H         1 <0>         0.0692
     53 H17        -2.9907   -2.0887   -2.1575 H         1 <0>         0.0725
     54 H18        -1.3723   -1.6047   -0.9499 H         1 <0>         0.1520
     55 H19        -1.2569    3.3205   -0.3782 H         1 <0>         0.1400
     56 H20        -4.4995    4.1926   -0.7662 H         1 <0>         0.1079
     57 H21        -2.8337    4.1546   -1.4373 H         1 <0>         0.0600
     58 H22        -3.0952    3.9573    0.3289 H         1 <0>         0.0585
     59 H23         3.0649   -0.6582   -0.1860 H         1 <0>         0.1683
     60 H24         0.3333    4.0863    0.3052 H         1 <0>         0.4433
     61 H25         2.6888    4.7264    1.8464 H         1 <0>         0.1497
     62 H26         4.5888    4.9585   -2.7013 H         1 <0>         0.1559
     63 H27         5.0369    6.3367    3.7191 H         1 <0>         0.1117
     64 H28         4.3977    4.7388    3.2044 H         1 <0>         0.0607
     65 H29         3.3898    6.2132    3.0130 H         1 <0>         0.0594
     66 H30        -8.2365   -6.5985   -0.7241 H         1 <0>         0.4406
@<TRIPOS>BOND
     1    1    2 1
     2    1   37 1
     3    1   38 1
     4    1   39 1
     5    2    7 1
     6    2    3 1
     7    2   66 1
     8    3    4 1
     9    3   40 1
    10    3   41 1
    11    4    5 1
    12    4   42 1
    13    4   43 1
    14    5    6 1
    15    5    8 1
    16    6    7 1
    17    6   44 1
    18    6   45 1
    19    7   46 1
    20    7   47 1
    21    8    9 1
    22    8   48 1
    23    8   49 1
    24    9   10 1
    25    9   50 1
    26    9   51 1
    27   10   11 1
    28   10   52 1
    29   10   53 1
    30   11   12 1
    31   12   17 ar
    32   12   13 ar
    33   13   14 ar
    34   13   54 1
    35   14   23 ar
    36   14   15 ar
    37   15   16 ar
    38   15   20 ar
    39   16   17 ar
    40   16   55 1
    41   17   18 1
    42   18   19 1
    43   19   56 1
    44   19   57 1
    45   19   58 1
    46   20   21 ar
    47   20   26 1
    48   21   22 ar
    49   21   24 1
    50   22   23 ar
    51   22   59 1
    52   24   25 3
    53   26   27 1
    54   26   60 1
    55   27   32 ar
    56   27   28 ar
    57   28   29 ar
    58   28   61 1
    59   29   30 ar
    60   29   35 1
    61   30   31 ar
    62   30   34 1
    63   31   32 ar
    64   31   62 1
    65   32   33 1
    66   35   36 1
    67   36   63 1
    68   36   64 1
    69   36   65 1
@<TRIPOS>MOLECULE
ZINC22448983
   66    69     0     0     0
SMALL
USER_CHARGES
4-[(2,4-dichloro-5-methoxy-phenyl)amino]-6-methoxy-7-[3-(4-methylpiperazin-1-yl)propoxy]quinoline-3-carbonitrile
@<TRIPOS>ATOM
      1 C1        -10.0137   -6.5102   -1.8158 C.3       1 <0>         0.0169
      2 N1         -8.6540   -6.0169   -1.5593 N.3       1 <0>        -0.5441
      3 C2         -7.7903   -6.2205   -2.7307 C.3       1 <0>         0.0228
      4 C3         -6.3670   -5.7678   -2.3965 C.3       1 <0>         0.0009
      5 N2         -6.3862   -4.3530   -1.9994 N.4       1 <0>        -0.3998
      6 C4         -7.2499   -4.1494   -0.8281 C.3       1 <0>        -0.0049
      7 C5         -8.6733   -4.6021   -1.1623 C.3       1 <0>         0.0237
      8 C6         -5.0265   -3.8597   -1.7430 C.3       1 <0>        -0.0032
      9 C7         -5.0583   -2.3389   -1.5783 C.3       1 <0>        -0.1498
     10 C8         -3.6421   -1.8251   -1.3112 C.3       1 <0>         0.0546
     11 O1         -3.6719   -0.4047   -1.1574 O.3       1 <0>        -0.2954
     12 C9         -2.4875    0.2141   -0.9129 C.ar      1 <0>         0.1508
     13 C10        -1.3345   -0.5326   -0.8253 C.ar      1 <0>        -0.1739
     14 C11        -0.1099    0.1042   -0.5728 C.ar      1 <0>         0.1865
     15 C12        -0.0839    1.5107   -0.4123 C.ar      1 <0>        -0.1289
     16 C13        -1.2740    2.2476   -0.5007 C.ar      1 <0>        -0.1461
     17 C14        -2.4527    1.6062   -0.7522 C.ar      1 <0>         0.1109
     18 O2         -3.6043    2.3237   -0.8425 O.3       1 <0>        -0.3036
     19 C15        -3.5023    3.7385   -0.6693 C.3       1 <0>         0.0176
     20 C16         1.1518    2.1498   -0.1579 C.ar      1 <0>         0.3244
     21 C17         2.2996    1.3468   -0.0768 C.ar      1 <0>        -0.1637
     22 C18         2.1804   -0.0418   -0.2488 C.ar      1 <0>         0.2201
     23 N3          1.0238   -0.6069   -0.4836 N.ar      1 <0>        -0.5059
     24 C19         3.5791    1.9370    0.1785 C.1       1 <0>         0.2491
     25 N4          4.5940    2.4052    0.3811 N.1       1 <0>        -0.4000
     26 N5          1.2264    3.5186    0.0048 N.pl3     1 <0>        -0.6785
     27 C20         2.4372    4.1835   -0.2122 C.ar      1 <0>         0.1791
     28 C21         3.1043    4.7773    0.8508 C.ar      1 <0>        -0.1908
     29 C22         4.3041    5.4350    0.6325 C.ar      1 <0>         0.1720
     30 C23         4.8372    5.4992   -0.6482 C.ar      1 <0>        -0.0462
     31 C24         4.1721    4.9075   -1.7063 C.ar      1 <0>        -0.0515
     32 C25         2.9774    4.2459   -1.4914 C.ar      1 <0>        -0.0696
     33 Cl1         2.1481    3.4984   -2.8208 Cl        1 <0>        -0.0433
     34 Cl2         6.3403    6.3238   -0.9213 Cl        1 <0>        -0.0302
     35 O3          4.9590    6.0176    1.6716 O.3       1 <0>        -0.2936
     36 C26         4.4145    5.8149    2.9772 C.3       1 <0>         0.0200
     37 H1         -9.9701   -7.5691   -2.1104 H         1 <0>         0.0846
     38 H2        -10.4701   -5.9227   -2.6260 H         1 <0>         0.0401
     39 H3        -10.6190   -6.4082   -0.9030 H         1 <0>         0.0850
     40 H4         -7.7832   -7.2870   -3.0001 H         1 <0>         0.1245
     41 H5         -8.1745   -5.6313   -3.5764 H         1 <0>         0.0612
     42 H6         -5.9734   -6.3765   -1.5691 H         1 <0>         0.1366
     43 H7         -5.7253   -5.8927   -3.2811 H         1 <0>         0.1378
     44 H8         -6.8657   -4.7386    0.0176 H         1 <0>         0.1367
     45 H9         -7.2570   -3.0829   -0.5587 H         1 <0>         0.1381
     46 H10        -9.0676   -3.9944   -1.9901 H         1 <0>         0.0613
     47 H11        -9.3157   -4.4781   -0.2780 H         1 <0>         0.1241
     48 H12        -4.6368   -4.3201   -0.8231 H         1 <0>         0.1339
     49 H13        -4.3751   -4.1233   -2.5893 H         1 <0>         0.1372
     50 H14        -5.4480   -1.8786   -2.4982 H         1 <0>         0.1006
     51 H15        -5.7097   -2.0753   -0.7320 H         1 <0>         0.0999
     52 H16        -3.2525   -2.2855   -0.3913 H         1 <0>         0.0789
     53 H17        -2.9907   -2.0887   -2.1575 H         1 <0>         0.0790
     54 H18        -1.3723   -1.6047   -0.9499 H         1 <0>         0.1517
     55 H19        -1.2569    3.3205   -0.3782 H         1 <0>         0.1413
     56 H20        -4.4995    4.1926   -0.7662 H         1 <0>         0.1090
     57 H21        -2.8337    4.1546   -1.4373 H         1 <0>         0.0608
     58 H22        -3.0952    3.9573    0.3289 H         1 <0>         0.0597
     59 H23         3.0649   -0.6582   -0.1860 H         1 <0>         0.1696
     60 H24         0.3333    4.0863    0.3052 H         1 <0>         0.4436
     61 H25         2.6888    4.7264    1.8464 H         1 <0>         0.1501
     62 H26         4.5888    4.9585   -2.7013 H         1 <0>         0.1563
     63 H27         5.0369    6.3367    3.7191 H         1 <0>         0.1123
     64 H28         4.3977    4.7388    3.2044 H         1 <0>         0.0608
     65 H29         3.3898    6.2132    3.0130 H         1 <0>         0.0596
     66 H30        -6.8037   -3.7713   -2.8345 H         1 <0>         0.4393
@<TRIPOS>BOND
     1    1    2 1
     2    1   37 1
     3    1   38 1
     4    1   39 1
     5    2    7 1
     6    2    3 1
     7    3    4 1
     8    3   40 1
     9    3   41 1
    10    4    5 1
    11    4   42 1
    12    4   43 1
    13    5    6 1
    14    5    8 1
    15    5   66 1
    16    6    7 1
    17    6   44 1
    18    6   45 1
    19    7   46 1
    20    7   47 1
    21    8    9 1
    22    8   48 1
    23    8   49 1
    24    9   10 1
    25    9   50 1
    26    9   51 1
    27   10   11 1
    28   10   52 1
    29   10   53 1
    30   11   12 1
    31   12   17 ar
    32   12   13 ar
    33   13   14 ar
    34   13   54 1
    35   14   23 ar
    36   14   15 ar
    37   15   16 ar
    38   15   20 ar
    39   16   17 ar
    40   16   55 1
    41   17   18 1
    42   18   19 1
    43   19   56 1
    44   19   57 1
    45   19   58 1
    46   20   21 ar
    47   20   26 1
    48   21   22 ar
    49   21   24 1
    50   22   23 ar
    51   22   59 1
    52   24   25 3
    53   26   27 1
    54   26   60 1
    55   27   32 ar
    56   27   28 ar
    57   28   29 ar
    58   28   61 1
    59   29   30 ar
    60   29   35 1
    61   30   31 ar
    62   30   34 1
    63   31   32 ar
    64   31   62 1
    65   32   33 1
    66   35   36 1
    67   36   63 1
    68   36   64 1
    69   36   65 1
@<TRIPOS>MOLECULE
ZINC03964325
   57    59     0     0     0
SMALL
USER_CHARGES

@<TRIPOS>ATOM
      1 C1          0.1489    2.0884    0.1150 C.3       1 <0>        -0.1876
      2 C2          0.1348    0.5603    0.1888 C.3       1 <0>        -0.0191
      3 N1         -1.2520    0.0881    0.2979 N.4       1 <0>        -0.3822
      4 C3         -1.9779    0.4111   -0.9377 C.3       1 <0>        -0.0142
      5 C4         -3.4549    0.0484   -0.7712 C.3       1 <0>        -0.1895
      6 C5         -1.2593   -1.3663    0.5041 C.3       1 <0>        -0.0265
      7 C6         -0.6131   -1.6936    1.8518 C.3       1 <0>         0.0952
      8 N2         -0.6203   -3.1440    2.0575 N.am      1 <0>        -0.7289
      9 C7         -0.0988   -3.6675    3.1846 C.2       1 <0>         0.6111
     10 O1          0.3779   -2.9358    4.0309 O.2       1 <0>        -0.5184
     11 C8         -0.1061   -5.1270    3.3915 C.2       1 <0>        -0.2420
     12 C9          0.9071   -6.0320    3.0089 C.2       1 <0>        -0.0577
     13 C10         0.4868   -7.2892    3.3960 C.2       1 <0>        -0.0075
     14 N3         -0.7476   -7.1595    3.9982 N.pl3     1 <0>        -0.4910
     15 H1         -1.2731   -7.8879    4.3645 H         1 <0>         0.4270
     16 C11        -1.1044   -5.8642    4.0022 C.2       1 <0>         0.1158
     17 C12        -2.3825   -5.3072    4.5743 C.3       1 <0>        -0.0999
     18 C13         1.1957   -8.4957    3.2079 C.2       1 <0>         0.0729
     19 C14         0.5100   -9.6674    2.9570 C.2       1 <0>        -0.1889
     20 C15         1.0648  -11.0377    2.8871 C.ar      1 <0>        -0.0736
     21 C16         2.3472  -11.5557    3.0375 C.ar      1 <0>        -0.1000
     22 C17         2.5553  -12.9162    2.9116 C.ar      1 <0>         0.0861
     23 C18         1.4888  -13.7593    2.6366 C.ar      1 <0>        -0.1139
     24 C19         0.2139  -13.2531    2.4856 C.ar      1 <0>        -0.1021
     25 C20        -0.0144  -11.8871    2.6092 C.ar      1 <0>         0.1282
     26 N4         -1.1765  -11.1301    2.5069 N.am      1 <0>        -0.6466
     27 C21        -0.9294   -9.8245    2.7079 C.2       1 <0>         0.5595
     28 O2         -1.7538   -8.9280    2.6842 O.2       1 <0>        -0.5156
     29 F1          3.7984  -13.4252    3.0561 F         1 <0>        -0.1318
     30 C22         2.1990   -5.6919    2.3116 C.3       1 <0>        -0.0931
     31 H2          1.1793    2.4435    0.1331 H         1 <0>         0.1076
     32 H3         -0.3308    2.4121   -0.8087 H         1 <0>         0.0811
     33 H4         -0.3916    2.4984    0.9682 H         1 <0>         0.0809
     34 H5          0.5888    0.1488   -0.7126 H         1 <0>         0.1317
     35 H6          0.6996    0.2334    1.0619 H         1 <0>         0.1337
     36 H7         -1.8867    1.4775   -1.1444 H         1 <0>         0.1351
     37 H8         -1.5554   -0.1571   -1.7664 H         1 <0>         0.1307
     38 H9         -3.5537   -1.0316   -0.6617 H         1 <0>         0.0802
     39 H10        -3.8523    0.5414    0.1160 H         1 <0>         0.0808
     40 H11        -4.0109    0.3769   -1.6492 H         1 <0>         0.1074
     41 H12        -2.2871   -1.7292    0.4963 H         1 <0>         0.1397
     42 H13        -0.6973   -1.8494   -0.2952 H         1 <0>         0.1376
     43 H14         0.4147   -1.3306    1.8596 H         1 <0>         0.0893
     44 H15        -1.1751   -1.2105    2.6511 H         1 <0>         0.0890
     45 H16        -1.0005   -3.7277    1.3824 H         1 <0>         0.4099
     46 H17        -3.1529   -5.3000    3.8032 H         1 <0>         0.0840
     47 H18        -2.7087   -5.9289    5.4080 H         1 <0>         0.0782
     48 H19        -2.2103   -4.2898    4.9254 H         1 <0>         0.0840
     49 H20         2.2744   -8.5020    3.2604 H         1 <0>         0.1589
     50 H21         3.1765  -10.8977    3.2512 H         1 <0>         0.1436
     51 H22         1.6578  -14.8215    2.5394 H         1 <0>         0.1485
     52 H23        -0.6084  -13.9196    2.2712 H         1 <0>         0.1415
     53 H24        -2.0541  -11.4980    2.3189 H         1 <0>         0.4217
     54 H25         2.9686   -5.4822    3.0545 H         1 <0>         0.0785
     55 H26         2.5107   -6.5337    1.6932 H         1 <0>         0.0726
     56 H27         2.0522   -4.8138    1.6827 H         1 <0>         0.0634
     57 H28        -1.7009    0.5410    1.0799 H         1 <0>         0.4247
@<TRIPOS>BOND
     1    1    2 1
     2    1   31 1
     3    1   32 1
     4    1   33 1
     5    2    3 1
     6    2   34 1
     7    2   35 1
     8    3    4 1
     9    3    6 1
    10    3   57 1
    11    4    5 1
    12    4   36 1
    13    4   37 1
    14    5   38 1
    15    5   39 1
    16    5   40 1
    17    6    7 1
    18    6   41 1
    19    6   42 1
    20    7    8 1
    21    7   43 1
    22    7   44 1
    23    8    9 am
    24    8   45 1
    25    9   10 2
    26    9   11 1
    27   11   16 2
    28   11   12 1
    29   12   13 2
    30   12   30 1
    31   13   14 1
    32   13   18 1
    33   14   15 1
    34   14   16 1
    35   16   17 1
    36   17   46 1
    37   17   47 1
    38   17   48 1
    39   18   19 2
    40   18   49 1
    41   19   27 1
    42   19   20 1
    43   20   25 ar
    44   20   21 ar
    45   21   22 ar
    46   21   50 1
    47   22   23 ar
    48   22   29 1
    49   23   24 ar
    50   23   51 1
    51   24   25 ar
    52   24   52 1
    53   25   26 1
    54   26   27 am
    55   26   53 1
    56   27   28 2
    57   30   54 1
    58   30   55 1
    59   30   56 1
