@<TRIPOS>MOLECULE
ZINC14852066
   48    49     0     0     0
SMALL
USER_CHARGES

@<TRIPOS>ATOM
      1 C1         -0.0187    1.5258    0.0104 C.3       1 <0>        -0.1902
      2 C2          0.0021   -0.0041    0.0020 C.3       1 <0>         0.1099
      3 H1         -1.0213   -0.3792    0.0098 H         1 <0>         0.1225
      4 C3          0.7117   -0.4941   -1.2603 C.3       1 <0>        -0.1315
      5 C4          1.3803    0.6570   -1.9583 C.2       1 <0>        -0.0692
      6 C5          2.7017    0.8181   -1.8493 C.2       1 <0>        -0.2242
      7 C6          3.3680    1.9252   -2.5435 C.2       1 <0>         0.3696
      8 O1          2.7115    2.7060   -3.2003 O.2       1 <0>        -0.4479
      9 C7          4.8559    2.0998   -2.4470 C.3       1 <0>         0.0704
     10 H2          5.3262    1.1283   -2.2950 H         1 <0>         0.0907
     11 C8          5.1895    3.0179   -1.2680 C.3       1 <0>         0.1256
     12 H3          5.7479    3.8823   -1.6273 H         1 <0>         0.0798
     13 C9          6.0360    2.2514   -0.2480 C.3       1 <0>        -0.1248
     14 C10         5.2825    2.1507    1.0538 C.2       1 <0>        -0.1283
     15 C11         4.6042    1.0526    1.3362 C.2       1 <0>        -0.1087
     16 C12         3.8388    0.8902    2.5804 C.ar      1 <0>         0.0721
     17 C13         4.3861    1.3164    3.7898 C.ar      1 <0>        -0.1728
     18 C14         3.6817    1.1455    4.9738 C.ar      1 <0>         0.1859
     19 C15         2.4255    0.5534    4.9682 C.ar      1 <0>        -0.2571
     20 C16         1.8630    0.1324    3.7761 C.ar      1 <0>         0.2113
     21 C17         2.5606    0.2946    2.5690 C.ar      1 <0>        -0.2000
     22 C18         1.9781   -0.1421    1.2956 C.2       1 <0>         0.5268
     23 O2          2.6973   -0.2041    0.3174 O.2       1 <0>        -0.4835
     24 O3          0.6878   -0.4748    1.1642 O.3       1 <0>        -0.3491
     25 O4          0.6328   -0.4392    3.7740 O.3       1 <0>        -0.4807
     26 O5          4.2252    1.5601    6.1463 O.3       1 <0>        -0.3078
     27 C19         3.4497    1.3557    7.3291 C.3       1 <0>         0.0221
     28 O6          3.9788    3.4568   -0.6486 O.3       1 <0>        -0.5534
     29 O7          5.3461    2.6819   -3.6565 O.3       1 <0>        -0.5470
     30 H4          1.0039    1.9031    0.0027 H         1 <0>         0.0708
     31 H5         -0.5459    1.8868   -0.8726 H         1 <0>         0.0797
     32 H6         -0.5289    1.8773    0.9072 H         1 <0>         0.0648
     33 H7          1.4619   -1.2365   -0.9879 H         1 <0>         0.1008
     34 H8         -0.0172   -0.9492   -1.9309 H         1 <0>         0.0831
     35 H9          0.7985    1.3591   -2.5388 H         1 <0>         0.1164
     36 H10         3.2734    0.1369   -1.2412 H         1 <0>         0.1643
     37 H11         6.2432    1.2504   -0.6265 H         1 <0>         0.0830
     38 H12         6.9752    2.7800   -0.0845 H         1 <0>         0.0857
     39 H13         5.2989    2.9862    1.7379 H         1 <0>         0.1128
     40 H14         4.6552    0.2260    0.6308 H         1 <0>         0.1420
     41 H15         5.3612    1.7805    3.8056 H         1 <0>         0.1441
     42 H16         1.8873    0.4210    5.8951 H         1 <0>         0.1447
     43 H17        -0.0933    0.1904    3.6668 H         1 <0>         0.4007
     44 H18         2.5035    1.8894    7.2399 H         1 <0>         0.0607
     45 H19         3.2556    0.2907    7.4566 H         1 <0>         0.0615
     46 H20         3.9986    1.7309    8.1928 H         1 <0>         0.1065
     47 H21         4.1144    4.0435    0.1081 H         1 <0>         0.3819
     48 H22         5.1714    2.1527   -4.4467 H         1 <0>         0.3861
@<TRIPOS>BOND
     1    1    2 1
     2    1   30 1
     3    1   31 1
     4    1   32 1
     5    2    3 1
     6    2   24 1
     7    2    4 1
     8    4    5 1
     9    4   33 1
    10    4   34 1
    11    5    6 2
    12    5   35 1
    13    6    7 1
    14    6   36 1
    15    7    8 2
    16    7    9 1
    17    9   10 1
    18    9   11 1
    19    9   29 1
    20   11   12 1
    21   11   13 1
    22   11   28 1
    23   13   14 1
    24   13   37 1
    25   13   38 1
    26   14   15 2
    27   14   39 1
    28   15   16 1
    29   15   40 1
    30   16   21 ar
    31   16   17 ar
    32   17   18 ar
    33   17   41 1
    34   18   19 ar
    35   18   26 1
    36   19   20 ar
    37   19   42 1
    38   20   21 ar
    39   20   25 1
    40   21   22 1
    41   22   23 2
    42   22   24 1
    43   25   43 1
    44   26   27 1
    45   27   44 1
    46   27   45 1
    47   27   46 1
    48   28   47 1
    49   29   48 1
@<TRIPOS>MOLECULE
ZINC14852066
   48    49     0     0     0
SMALL
USER_CHARGES

@<TRIPOS>ATOM
      1 C1         -0.0187    1.5258    0.0104 C.3       1 <0>        -0.1782
      2 C2          0.0021   -0.0041    0.0020 C.3       1 <0>         0.1059
      3 H1         -1.0202   -0.3821    0.0097 H         1 <0>         0.1065
      4 C3          0.7214   -0.4993   -1.2571 C.3       1 <0>        -0.2337
      5 C4          0.9926    0.6676   -2.1719 C.2       1 <0>        -0.0239
      6 C5          2.2327    0.8804   -2.6274 C.2       1 <0>        -0.2524
      7 C6          3.3216   -0.0106   -2.2391 C.2       1 <0>         0.3565
      8 O1          3.0972   -0.9579   -1.5151 O.2       1 <0>        -0.3921
      9 C7          4.7243    0.2403   -2.7329 C.3       1 <0>         0.0775
     10 H2          4.6903    0.5739   -3.7700 H         1 <0>         0.0902
     11 C8          5.5353   -1.0528   -2.6394 C.3       1 <0>         0.1183
     12 H3          4.8562   -1.9036   -2.5842 H         1 <0>         0.0767
     13 C9          6.4150   -1.0217   -1.3875 C.3       1 <0>        -0.1211
     14 C10         5.7492   -1.8245   -0.2972 C.2       1 <0>        -0.1407
     15 C11         4.7118   -1.3199    0.3472 C.2       1 <0>        -0.1201
     16 C12         4.0408   -2.0709    1.4214 C.ar      1 <0>         0.0738
     17 C13         4.7005   -3.0796    2.1095 C.ar      1 <0>        -0.1758
     18 C14         4.0463   -3.7677    3.1229 C.ar      1 <0>         0.1867
     19 C15         2.7421   -3.4458    3.4552 C.ar      1 <0>        -0.2633
     20 C16         2.0660   -2.4427    2.7907 C.ar      1 <0>         0.2133
     21 C17         2.7063   -1.7502    1.7571 C.ar      1 <0>        -0.2009
     22 C18         2.0150   -0.7034    1.0028 C.2       1 <0>         0.5163
     23 O2          2.6441   -0.0218    0.2169 O.2       1 <0>        -0.4694
     24 O3          0.6975   -0.4800    1.1622 O.3       1 <0>        -0.3396
     25 O4          0.7918   -2.1312    3.1363 O.3       1 <0>        -0.4793
     26 O5          4.6885   -4.7601    3.7898 O.3       1 <0>        -0.3082
     27 C19         3.9578   -5.4273    4.8208 C.3       1 <0>         0.0226
     28 O6          6.3629   -1.1796   -3.7975 O.3       1 <0>        -0.5677
     29 O7          5.3395    1.2482   -1.9281 O.3       1 <0>        -0.5329
     30 H4          1.0039    1.9031    0.0027 H         1 <0>         0.0702
     31 H5         -0.5459    1.8868   -0.8726 H         1 <0>         0.0718
     32 H6         -0.5289    1.8773    0.9072 H         1 <0>         0.0632
     33 H7          1.6646   -0.9678   -0.9763 H         1 <0>         0.1854
     34 H8          0.0935   -1.2264   -1.7721 H         1 <0>         0.0805
     35 H9          0.1918    1.3244   -2.4742 H         1 <0>         0.1212
     36 H10         2.4263    1.7062   -3.2931 H         1 <0>         0.1283
     37 H11         7.3892   -1.4544   -1.6156 H         1 <0>         0.0742
     38 H12         6.5412    0.0090   -1.0560 H         1 <0>         0.1072
     39 H13         6.1067   -2.8144   -0.0623 H         1 <0>         0.1057
     40 H14         4.3547   -0.3298    0.0969 H         1 <0>         0.1711
     41 H15         5.7205   -3.3292    1.8570 H         1 <0>         0.1430
     42 H16         2.2456   -3.9881    4.2463 H         1 <0>         0.1411
     43 H17         0.7249   -1.4505    3.8198 H         1 <0>         0.3997
     44 H18         3.6630   -4.7055    5.5826 H         1 <0>         0.0602
     45 H19         3.0675   -5.8894    4.3943 H         1 <0>         0.0606
     46 H20         4.5854   -6.1958    5.2719 H         1 <0>         0.1057
     47 H21         6.9070   -1.9789   -3.8064 H         1 <0>         0.3845
     48 H22         4.8770    2.0973   -1.9394 H         1 <0>         0.3814
@<TRIPOS>BOND
     1    1    2 1
     2    1   30 1
     3    1   31 1
     4    1   32 1
     5    2    3 1
     6    2   24 1
     7    2    4 1
     8    4    5 1
     9    4   33 1
    10    4   34 1
    11    5    6 2
    12    5   35 1
    13    6    7 1
    14    6   36 1
    15    7    8 2
    16    7    9 1
    17    9   10 1
    18    9   11 1
    19    9   29 1
    20   11   12 1
    21   11   13 1
    22   11   28 1
    23   13   14 1
    24   13   37 1
    25   13   38 1
    26   14   15 2
    27   14   39 1
    28   15   16 1
    29   15   40 1
    30   16   21 ar
    31   16   17 ar
    32   17   18 ar
    33   17   41 1
    34   18   19 ar
    35   18   26 1
    36   19   20 ar
    37   19   42 1
    38   20   21 ar
    39   20   25 1
    40   21   22 1
    41   22   23 2
    42   22   24 1
    43   25   43 1
    44   26   27 1
    45   27   44 1
    46   27   45 1
    47   27   46 1
    48   28   47 1
    49   29   48 1
@<TRIPOS>MOLECULE
ZINC01489583
   40    43     0     0     0
SMALL
USER_CHARGES

@<TRIPOS>ATOM
      1 C1         -0.4141    0.4949   -1.7191 C.3       1 <0>        -0.1016
      2 C2         -0.3980   -0.8905   -1.1263 C.2       1 <0>        -0.0931
      3 C3         -0.6694   -2.0392   -1.7674 C.2       1 <0>        -0.1404
      4 C4         -0.5235   -3.1273   -0.7753 C.2       1 <0>         0.5461
      5 O1         -0.6902   -4.3106   -0.9895 O.2       1 <0>        -0.4413
      6 N1         -0.1743   -2.5828    0.4042 N.am      1 <0>        -0.3836
      7 C5         -0.0740   -1.2479    0.2725 C.2       1 <0>         0.5480
      8 O2          0.2285   -0.4683    1.1527 O.2       1 <0>        -0.4382
      9 N2          0.0555   -3.2973    1.5872 N.pl3     1 <0>        -0.4735
     10 C6          1.2201   -4.0194    1.7414 C.ar      1 <0>         0.4958
     11 C7          1.2865   -5.1029    2.6502 C.ar      1 <0>        -0.2047
     12 C8          2.5086   -5.8105    2.7682 C.ar      1 <0>         0.2291
     13 C9          2.5978   -6.8859    3.6615 C.ar      1 <0>        -0.1439
     14 C10         1.5119   -7.2416    4.4073 C.ar      1 <0>        -0.0289
     15 C11         0.3098   -6.5537    4.2981 C.ar      1 <0>        -0.2285
     16 C12         0.1840   -5.4882    3.4283 C.ar      1 <0>         0.1823
     17 O3         -0.9936   -4.8211    3.3267 O.3       1 <0>        -0.3269
     18 C13        -2.0689   -5.2737    4.1520 C.3       1 <0>         0.0265
     19 N3          3.5510   -5.4278    2.0172 N.ar      1 <0>        -0.5258
     20 C14         3.4361   -4.4077    1.1827 C.ar      1 <0>         0.4612
     21 N4          2.3021   -3.7196    1.0390 N.ar      1 <0>        -0.5778
     22 C15         4.6069   -4.0190    0.3748 C.2       1 <0>        -0.1253
     23 C16         5.8591   -4.5770    0.3437 C.2       1 <0>        -0.0902
     24 C17         6.8020   -4.0390   -0.5005 C.2       1 <0>        -0.1685
     25 C18         6.4664   -2.9741   -1.2762 C.2       1 <0>        -0.1632
     26 S1          4.7607   -2.7042   -0.8234 S.3       1 <0>         0.1114
     27 H1          0.5729    0.7315   -2.1165 H         1 <0>         0.0945
     28 H2         -1.1492    0.5376   -2.5229 H         1 <0>         0.0907
     29 H3         -0.6778    1.2175   -0.9469 H         1 <0>         0.0860
     30 H4         -0.9422   -2.1477   -2.8067 H         1 <0>         0.1911
     31 H5         -0.6047   -3.2841    2.2977 H         1 <0>         0.4473
     32 H6          3.5240   -7.4326    3.7594 H         1 <0>         0.1461
     33 H7          1.5881   -8.0720    5.0936 H         1 <0>         0.1403
     34 H8         -0.5351   -6.8553    4.8994 H         1 <0>         0.1397
     35 H9         -2.9490   -4.6561    3.9732 H         1 <0>         0.1072
     36 H10        -2.2987   -6.3119    3.9123 H         1 <0>         0.0661
     37 H11        -1.7790   -5.1984    5.2001 H         1 <0>         0.0659
     38 H12         6.1003   -5.4228    0.9705 H         1 <0>         0.1468
     39 H13         7.7968   -4.4570   -0.5464 H         1 <0>         0.1414
     40 H14         7.0740   -2.4332   -1.9866 H         1 <0>         0.1919
@<TRIPOS>BOND
     1    1    2 1
     2    1   27 1
     3    1   28 1
     4    1   29 1
     5    2    7 1
     6    2    3 2
     7    3    4 1
     8    3   30 1
     9    4    5 2
    10    4    6 am
    11    6    7 am
    12    6    9 1
    13    7    8 2
    14    9   10 1
    15    9   31 1
    16   10   21 ar
    17   10   11 ar
    18   11   16 ar
    19   11   12 ar
    20   12   13 ar
    21   12   19 ar
    22   13   14 ar
    23   13   32 1
    24   14   15 ar
    25   14   33 1
    26   15   16 ar
    27   15   34 1
    28   16   17 1
    29   17   18 1
    30   18   35 1
    31   18   36 1
    32   18   37 1
    33   19   20 ar
    34   20   21 ar
    35   20   22 1
    36   22   26 1
    37   22   23 2
    38   23   24 1
    39   23   38 1
    40   24   25 2
    41   24   39 1
    42   25   26 1
    43   25   40 1
@<TRIPOS>MOLECULE
ZINC00614127
   36    38     0     0     0
SMALL
USER_CHARGES

@<TRIPOS>ATOM
      1 C1          0.1493    1.4982   -0.1158 C.3       1 <0>        -0.1166
      2 C2          0.0823   -0.0062   -0.0583 C.ar      1 <0>        -0.0476
      3 C3         -0.0571   -0.7370   -1.2236 C.ar      1 <0>        -0.1055
      4 C4         -0.1185   -2.1168   -1.1708 C.ar      1 <0>        -0.0224
      5 C5         -0.0402   -2.7662    0.0472 C.ar      1 <0>        -0.5799
      6 C6          0.1001   -2.0356    1.2121 C.ar      1 <0>         0.0606
      7 C7          0.1659   -0.6556    1.1589 C.ar      1 <0>        -0.0883
      8 N1          0.1835   -2.7308    2.5162 N.pl3     1 <0>         0.0072
      9 O1         -0.3566   -2.2579    3.4890 O.2       1 <0>        -0.1833
     10 O2          0.7917   -3.7716    2.6086 O.3       1 <0>        -0.0555
     11 S1         -0.1197   -4.5251    0.1146 S.o2      1 <0>         2.5845
     12 O3         -1.0471   -4.8507    1.1408 O.2       1 <0>        -1.0103
     13 O4         -0.2751   -4.9762   -1.2239 O.2       1 <0>        -1.0167
     14 N2          1.3606   -5.0629    0.6264 N.2       1 <0>        -1.0082
     15 C8          1.5926   -6.4297    0.7747 C.ar      1 <0>         0.3287
     16 C9          0.5958   -7.3380    0.4914 C.ar      1 <0>        -0.3139
     17 C10         0.8145   -8.7047    0.6347 C.ar      1 <0>        -0.0214
     18 C11         2.0181   -9.1813    1.0584 C.ar      1 <0>        -0.2382
     19 C12         3.0592   -8.2878    1.3572 C.ar      1 <0>        -0.0428
     20 C13         2.8530   -6.8943    1.2109 C.ar      1 <0>         0.0981
     21 N3          3.8428   -6.0419    1.4893 N.ar      1 <0>        -0.4041
     22 C14         5.0148   -6.4670    1.8944 C.ar      1 <0>         0.0555
     23 C15         5.2866   -7.8242    2.0546 C.ar      1 <0>        -0.1633
     24 C16         4.3147   -8.7486    1.7977 C.ar      1 <0>        -0.1020
     25 H1          1.1874    1.8117   -0.2261 H         1 <0>         0.0817
     26 H2         -0.4305    1.8554   -0.9669 H         1 <0>         0.0767
     27 H3         -0.2605    1.9156    0.8039 H         1 <0>         0.0749
     28 H4         -0.1183   -0.2298   -2.1751 H         1 <0>         0.1454
     29 H5         -0.2281   -2.6877   -2.0810 H         1 <0>         0.1600
     30 H6          0.2792   -0.0850    2.0688 H         1 <0>         0.1490
     31 H7         -0.3675   -6.9846    0.1542 H         1 <0>         0.0995
     32 H8          0.0182   -9.3978    0.4070 H         1 <0>         0.1056
     33 H9          2.1714  -10.2450    1.1646 H         1 <0>         0.1087
     34 H10         5.7901   -5.7465    2.1093 H         1 <0>         0.1412
     35 H11         6.2621   -8.1442    2.3900 H         1 <0>         0.1193
     36 H12         4.5079   -9.8045    1.9165 H         1 <0>         0.1235
@<TRIPOS>BOND
     1    1    2 1
     2    1   25 1
     3    1   26 1
     4    1   27 1
     5    2    7 ar
     6    2    3 ar
     7    3    4 ar
     8    3   28 1
     9    4    5 ar
    10    4   29 1
    11    5    6 ar
    12    5   11 1
    13    6    7 ar
    14    6    8 1
    15    7   30 1
    16    8    9 2
    17    8   10 1
    18   11   12 2
    19   11   13 2
    20   11   14 1
    21   14   15 1
    22   15   20 ar
    23   15   16 ar
    24   16   17 ar
    25   16   31 1
    26   17   18 ar
    27   17   32 1
    28   18   19 ar
    29   18   33 1
    30   19   24 ar
    31   19   20 ar
    32   20   21 ar
    33   21   22 ar
    34   22   23 ar
    35   22   34 1
    36   23   24 ar
    37   23   35 1
    38   24   36 1
@<TRIPOS>MOLECULE
ZINC00614127
   37    39     0     0     0
SMALL
USER_CHARGES

@<TRIPOS>ATOM
      1 C1          0.1493    1.4982   -0.1158 C.3       1 <0>        -0.1230
      2 C2          0.0823   -0.0062   -0.0583 C.ar      1 <0>        -0.0342
      3 C3         -0.0570   -0.7371   -1.2236 C.ar      1 <0>        -0.1007
      4 C4         -0.1185   -2.1168   -1.1708 C.ar      1 <0>        -0.0171
      5 C5         -0.0401   -2.7662    0.0473 C.ar      1 <0>        -0.5980
      6 C6          0.1000   -2.0356    1.2121 C.ar      1 <0>         0.0552
      7 C7          0.1658   -0.6556    1.1589 C.ar      1 <0>        -0.0846
      8 N1          0.1834   -2.7308    2.5162 N.pl3     1 <0>         0.0142
      9 O1         -0.3568   -2.2578    3.4890 O.2       1 <0>        -0.1546
     10 O2          0.7915   -3.7716    2.6087 O.3       1 <0>        -0.0981
     11 S1         -0.1196   -4.5251    0.1147 S.o2      1 <0>         2.6272
     12 O3         -1.0471   -4.8507    1.1408 O.2       1 <0>        -0.9919
     13 O4         -0.2750   -4.9762   -1.2239 O.2       1 <0>        -0.9981
     14 N2          1.3606   -5.0629    0.6265 N.2       1 <0>        -1.0672
     15 C8          1.5927   -6.4296    0.7748 C.ar      1 <0>         0.2973
     16 C9          0.5959   -7.3380    0.4914 C.ar      1 <0>        -0.2483
     17 C10         0.8146   -8.7047    0.6348 C.ar      1 <0>        -0.0080
     18 C11         2.0182   -9.1812    1.0584 C.ar      1 <0>        -0.1966
     19 C12         3.0593   -8.2878    1.3572 C.ar      1 <0>        -0.0275
     20 C13         2.8531   -6.8942    1.2110 C.ar      1 <0>         0.0848
     21 N3          3.8429   -6.0419    1.4894 N.ar      1 <0>        -0.3942
     22 C14         5.0149   -6.4669    1.8945 C.ar      1 <0>         0.1370
     23 C15         5.2867   -7.8241    2.0547 C.ar      1 <0>        -0.1646
     24 C16         4.3148   -8.7485    1.7978 C.ar      1 <0>         0.0043
     25 H1          1.1874    1.8117   -0.2261 H         1 <0>         0.0859
     26 H2         -0.4305    1.8554   -0.9669 H         1 <0>         0.0819
     27 H3         -0.2606    1.9156    0.8039 H         1 <0>         0.0794
     28 H4         -0.1182   -0.2298   -2.1751 H         1 <0>         0.1514
     29 H5         -0.2280   -2.6877   -2.0810 H         1 <0>         0.1633
     30 H6          0.2791   -0.0849    2.0688 H         1 <0>         0.1537
     31 H7         -0.3674   -6.9846    0.1542 H         1 <0>         0.1208
     32 H8          0.0183   -9.3978    0.4071 H         1 <0>         0.1322
     33 H9          2.1715  -10.2450    1.1647 H         1 <0>         0.1395
     34 H10         5.7902   -5.7464    2.1094 H         1 <0>         0.1940
     35 H11         6.2621   -8.1441    2.3901 H         1 <0>         0.1695
     36 H12         4.5080   -9.8045    1.9166 H         1 <0>         0.1633
     37 H13         3.6916   -5.0890    1.3894 H         1 <0>         0.4517
@<TRIPOS>BOND
     1    1    2 1
     2    1   25 1
     3    1   26 1
     4    1   27 1
     5    2    7 ar
     6    2    3 ar
     7    3    4 ar
     8    3   28 1
     9    4    5 ar
    10    4   29 1
    11    5    6 ar
    12    5   11 1
    13    6    7 ar
    14    6    8 1
    15    7   30 1
    16    8    9 2
    17    8   10 1
    18   11   12 2
    19   11   13 2
    20   11   14 1
    21   14   15 1
    22   15   20 ar
    23   15   16 ar
    24   16   17 ar
    25   16   31 1
    26   17   18 ar
    27   17   32 1
    28   18   19 ar
    29   18   33 1
    30   19   24 ar
    31   19   20 ar
    32   20   21 ar
    33   21   22 ar
    34   21   37 1
    35   22   23 ar
    36   22   34 1
    37   23   24 ar
    38   23   35 1
    39   24   36 1
@<TRIPOS>MOLECULE
ZINC00758699
   34    36     0     0     0
SMALL
USER_CHARGES

@<TRIPOS>ATOM
      1 C1         -0.2967    1.0245   -0.0887 C.ar      1 <0>        -0.0149
      2 C2          0.1422    0.1027   -1.0217 C.ar      1 <0>        -0.1948
      3 C3          1.4338   -0.3868   -0.9600 C.ar      1 <0>         0.0241
      4 C4          2.2905    0.0440    0.0340 C.ar      1 <0>        -0.7515
      5 C5          1.8533    0.9700    0.9723 C.ar      1 <0>         0.3183
      6 C6          0.5546    1.4595    0.9077 C.ar      1 <0>        -0.2147
      7 N1          2.7170    1.4079    1.9788 N.pl3     1 <0>        -0.8639
      8 S1          3.9362   -0.5809    0.1121 S.o2      1 <0>         2.6909
      9 O1          4.0683   -1.5112   -0.9539 O.2       1 <0>        -0.9483
     10 O2          4.7919    0.5450    0.2511 O.2       1 <0>        -0.9523
     11 N2          4.0642   -1.4490    1.5165 N.pl3     1 <0>        -1.0433
     12 C7          3.2374   -2.5505    1.7330 C.ar      1 <0>         0.1843
     13 C8          2.8783   -3.3664    0.6820 C.ar      1 <0>        -0.1581
     14 C9          2.0541   -4.4691    0.8846 C.ar      1 <0>        -0.0828
     15 C10         1.5806   -4.7718    2.1253 C.ar      1 <0>        -0.1129
     16 C11         1.9238   -3.9648    3.2219 C.ar      1 <0>        -0.0834
     17 C12         2.7661   -2.8422    3.0320 C.ar      1 <0>         0.1142
     18 N3          3.0988   -2.0756    4.0738 N.ar      1 <0>        -0.4696
     19 C13         2.6647   -2.3412    5.2819 C.ar      1 <0>         0.1288
     20 C14         1.8375   -3.4324    5.5397 C.ar      1 <0>        -0.1704
     21 C15         1.4504   -4.2505    4.5169 C.ar      1 <0>        -0.0575
     22 H1         -1.3049    1.4080   -0.1422 H         1 <0>         0.1311
     23 H2         -0.5257   -0.2359   -1.8000 H         1 <0>         0.1313
     24 H3          1.7730   -1.1072   -1.6897 H         1 <0>         0.1427
     25 H4          0.2114    2.1796    1.6358 H         1 <0>         0.1304
     26 H5          3.6433    1.1199    1.9823 H         1 <0>         0.4009
     27 H6          2.3906    1.9999    2.6744 H         1 <0>         0.4095
     28 H7          4.7144   -1.1911    2.1885 H         1 <0>         0.4316
     29 H8          3.2407   -3.1469   -0.3114 H         1 <0>         0.1673
     30 H9          1.7857   -5.0940    0.0457 H         1 <0>         0.1374
     31 H10         0.9417   -5.6311    2.2654 H         1 <0>         0.1340
     32 H11         2.9561   -1.6976    6.0988 H         1 <0>         0.1604
     33 H12         1.4956   -3.6258    6.5457 H         1 <0>         0.1393
     34 H13         0.8097   -5.1008    4.6986 H         1 <0>         0.1419
@<TRIPOS>BOND
     1    1    6 ar
     2    1    2 ar
     3    1   22 1
     4    2    3 ar
     5    2   23 1
     6    3    4 ar
     7    3   24 1
     8    4    5 ar
     9    4    8 1
    10    5    6 ar
    11    5    7 1
    12    6   25 1
    13    7   26 1
    14    7   27 1
    15    8    9 2
    16    8   10 2
    17    8   11 1
    18   11   12 1
    19   11   28 1
    20   12   17 ar
    21   12   13 ar
    22   13   14 ar
    23   13   29 1
    24   14   15 ar
    25   14   30 1
    26   15   16 ar
    27   15   31 1
    28   16   21 ar
    29   16   17 ar
    30   17   18 ar
    31   18   19 ar
    32   19   20 ar
    33   19   32 1
    34   20   21 ar
    35   20   33 1
    36   21   34 1
@<TRIPOS>MOLECULE
ZINC13817924
   32    34     0     0     0
SMALL
USER_CHARGES

@<TRIPOS>ATOM
      1 C1         -0.0184    1.5028    0.0103 C.3       1 <0>        -0.1404
      2 C2          0.0021   -0.0041    0.0020 C.ar      1 <0>         0.1744
      3 C3          0.0054   -0.6759   -1.2186 C.ar      1 <0>        -0.1634
      4 C4          0.0244   -2.0412   -1.2447 C.ar      1 <0>         0.0103
      5 C5          0.0400   -2.7291   -0.0163 C.ar      1 <0>        -0.0343
      6 C6          0.0604   -4.1326    0.0336 C.ar      1 <0>        -0.1891
      7 C7          0.0756   -4.7692    1.2372 C.ar      1 <0>        -0.0121
      8 C8          0.0709   -4.0492    2.4285 C.ar      1 <0>        -0.2431
      9 C9          0.0506   -2.6716    2.4208 C.ar      1 <0>         0.2894
     10 C10         0.0355   -1.9833    1.1873 C.ar      1 <0>         0.0845
     11 N1          0.0217   -0.6485    1.1434 N.ar      1 <0>        -0.4025
     12 N2          0.0451   -1.9624    3.6212 N.2       1 <0>        -1.1020
     13 S1          0.0630   -2.7758    5.0636 S.o2      1 <0>         2.6678
     14 O1         -1.1719   -3.4733    5.1518 O.2       1 <0>        -0.9939
     15 O2          1.3185   -3.4368    5.1416 O.2       1 <0>        -0.9955
     16 C11         0.0505   -1.5657    6.3443 C.2       1 <0>        -0.6925
     17 C12        -1.0082   -0.9991    6.9726 C.2       1 <0>        -0.0269
     18 C13        -0.7778   -0.0596    7.9603 C.2       1 <0>        -0.1400
     19 C14         0.5015    0.2670    8.2709 C.2       1 <0>        -0.1592
     20 S2          1.4293   -0.7738    7.1560 S.3       1 <0>         0.2192
     21 Br1         1.1373    1.4993    9.5566 Br        1 <0>         0.0507
     22 H1          1.0042    1.8801    0.0026 H         1 <0>         0.1081
     23 H2         -0.5455    1.8639   -0.8728 H         1 <0>         0.1100
     24 H3         -0.5286    1.8543    0.9071 H         1 <0>         0.0916
     25 H4         -0.0073   -0.1176   -2.1430 H         1 <0>         0.1704
     26 H5          0.0269   -2.5783   -2.1817 H         1 <0>         0.1657
     27 H6          0.0637   -4.7061   -0.8815 H         1 <0>         0.1409
     28 H7          0.0913   -5.8486    1.2680 H         1 <0>         0.1343
     29 H8          0.0828   -4.5770    3.3706 H         1 <0>         0.1242
     30 H9         -2.0171   -1.2772    6.7054 H         1 <0>         0.1541
     31 H10        -1.6037    0.4073    8.4763 H         1 <0>         0.1507
     32 H11         0.0223   -0.1458    1.9730 H         1 <0>         0.4489
@<TRIPOS>BOND
     1    1    2 1
     2    1   22 1
     3    1   23 1
     4    1   24 1
     5    2   11 ar
     6    2    3 ar
     7    3    4 ar
     8    3   25 1
     9    4    5 ar
    10    4   26 1
    11    5   10 ar
    12    5    6 ar
    13    6    7 ar
    14    6   27 1
    15    7    8 ar
    16    7   28 1
    17    8    9 ar
    18    8   29 1
    19    9   10 ar
    20    9   12 1
    21   10   11 ar
    22   11   32 1
    23   12   13 1
    24   13   14 2
    25   13   15 2
    26   13   16 1
    27   16   20 1
    28   16   17 2
    29   17   18 1
    30   17   30 1
    31   18   19 2
    32   18   31 1
    33   19   20 1
    34   19   21 1
@<TRIPOS>MOLECULE
ZINC13817924
   31    33     0     0     0
SMALL
USER_CHARGES

@<TRIPOS>ATOM
      1 C1         -0.0184    1.5028    0.0103 C.3       1 <0>        -0.0919
      2 C2          0.0021   -0.0041    0.0020 C.ar      1 <0>         0.0835
      3 C3          0.0054   -0.6759   -1.2186 C.ar      1 <0>        -0.1585
      4 C4          0.0244   -2.0412   -1.2447 C.ar      1 <0>        -0.0971
      5 C5          0.0400   -2.7291   -0.0163 C.ar      1 <0>        -0.0486
      6 C6          0.0604   -4.1326    0.0336 C.ar      1 <0>        -0.2319
      7 C7          0.0756   -4.7692    1.2372 C.ar      1 <0>        -0.0244
      8 C8          0.0709   -4.0492    2.4285 C.ar      1 <0>        -0.3104
      9 C9          0.0506   -2.6716    2.4208 C.ar      1 <0>         0.3219
     10 C10         0.0355   -1.9833    1.1873 C.ar      1 <0>         0.1002
     11 N1          0.0217   -0.6485    1.1434 N.ar      1 <0>        -0.4080
     12 N2          0.0451   -1.9624    3.6212 N.2       1 <0>        -1.0437
     13 S1          0.0630   -2.7758    5.0636 S.o2      1 <0>         2.6272
     14 O1         -1.1719   -3.4733    5.1518 O.2       1 <0>        -1.0113
     15 O2          1.3185   -3.4368    5.1416 O.2       1 <0>        -1.0132
     16 C11         0.0505   -1.5657    6.3443 C.2       1 <0>        -0.6564
     17 C12        -1.0082   -0.9991    6.9726 C.2       1 <0>        -0.0446
     18 C13        -0.7778   -0.0596    7.9603 C.2       1 <0>        -0.1316
     19 C14         0.5015    0.2670    8.2709 C.2       1 <0>        -0.1745
     20 S2          1.4293   -0.7738    7.1560 S.3       1 <0>         0.2123
     21 Br1         1.1373    1.4993    9.5566 Br        1 <0>         0.0355
     22 H1          1.0042    1.8801    0.0026 H         1 <0>         0.0664
     23 H2         -0.5455    1.8639   -0.8728 H         1 <0>         0.0631
     24 H3         -0.5286    1.8543    0.9071 H         1 <0>         0.0710
     25 H4         -0.0073   -0.1176   -2.1430 H         1 <0>         0.1209
     26 H5          0.0269   -2.5783   -2.1817 H         1 <0>         0.1258
     27 H6          0.0637   -4.7061   -0.8815 H         1 <0>         0.1101
     28 H7          0.0913   -5.8486    1.2680 H         1 <0>         0.1076
     29 H8          0.0828   -4.5770    3.3706 H         1 <0>         0.1026
     30 H9         -2.0171   -1.2772    6.7054 H         1 <0>         0.1526
     31 H10        -1.6037    0.4073    8.4763 H         1 <0>         0.1453
@<TRIPOS>BOND
     1    1    2 1
     2    1   22 1
     3    1   23 1
     4    1   24 1
     5    2   11 ar
     6    2    3 ar
     7    3    4 ar
     8    3   25 1
     9    4    5 ar
    10    4   26 1
    11    5   10 ar
    12    5    6 ar
    13    6    7 ar
    14    6   27 1
    15    7    8 ar
    16    7   28 1
    17    8    9 ar
    18    8   29 1
    19    9   10 ar
    20    9   12 1
    21   10   11 ar
    22   12   13 1
    23   13   14 2
    24   13   15 2
    25   13   16 1
    26   16   20 1
    27   16   17 2
    28   17   18 1
    29   17   30 1
    30   18   19 2
    31   18   31 1
    32   19   20 1
    33   19   21 1
@<TRIPOS>MOLECULE
ZINC00353084
   28    30     0     0     0
SMALL
USER_CHARGES

@<TRIPOS>ATOM
      1 C1         -0.0168    1.3873    0.0097 C.ar      1 <0>        -0.0219
      2 C2          1.1414    2.1040    0.0025 C.ar      1 <0>        -0.2362
      3 C3          2.3772    1.4377   -0.0128 C.ar      1 <0>        -0.0437
      4 C4          3.5921    2.1497   -0.0200 C.ar      1 <0>        -0.1007
      5 C5          4.7567    1.4367   -0.0346 C.ar      1 <0>        -0.1635
      6 C6          4.7192    0.0439   -0.0418 C.ar      1 <0>         0.0569
      7 N1          3.5860   -0.6150   -0.0351 N.ar      1 <0>        -0.4086
      8 C7          2.4121    0.0220   -0.0208 C.ar      1 <0>         0.0933
      9 C8          1.1948   -0.6941   -0.0134 C.ar      1 <0>         0.3234
     10 C9          0.0021   -0.0041    0.0020 C.ar      1 <0>        -0.3120
     11 N2          1.1998   -2.0883   -0.0219 N.2       1 <0>        -1.0456
     12 S1         -0.2313   -2.9215   -0.0132 S.o2      1 <0>         2.6319
     13 O1         -0.8475   -2.6573    1.2398 O.2       1 <0>        -1.0160
     14 O2         -0.8714   -2.6423   -1.2508 O.2       1 <0>        -1.0163
     15 C10         0.1652   -4.6382   -0.0273 C.2       1 <0>        -0.6700
     16 C11         0.3620   -5.4775    1.0188 C.2       1 <0>        -0.0423
     17 C12         0.6665   -6.8021    0.7673 C.2       1 <0>        -0.1807
     18 C13         0.7594   -7.2227   -0.5179 C.2       1 <0>        -0.1677
     19 S2          0.4044   -5.7254   -1.4230 S.3       1 <0>         0.1428
     20 H1         -0.9637    1.9065    0.0260 H         1 <0>         0.1075
     21 H2          1.1092    3.1836    0.0081 H         1 <0>         0.1100
     22 H3          3.6025    3.2296   -0.0146 H         1 <0>         0.1247
     23 H4          5.7059    1.9519   -0.0408 H         1 <0>         0.1206
     24 H5          5.6479   -0.5072   -0.0537 H         1 <0>         0.1427
     25 H6         -0.9298   -0.5500    0.0080 H         1 <0>         0.1027
     26 H7          0.2824   -5.1165    2.0336 H         1 <0>         0.1431
     27 H8          0.8284   -7.4916    1.5827 H         1 <0>         0.1368
     28 H9          0.9855   -8.2087   -0.8962 H         1 <0>         0.1887
@<TRIPOS>BOND
     1    1   10 ar
     2    1    2 ar
     3    1   20 1
     4    2    3 ar
     5    2   21 1
     6    3    8 ar
     7    3    4 ar
     8    4    5 ar
     9    4   22 1
    10    5    6 ar
    11    5   23 1
    12    6    7 ar
    13    6   24 1
    14    7    8 ar
    15    8    9 ar
    16    9   10 ar
    17    9   11 1
    18   10   25 1
    19   11   12 1
    20   12   13 2
    21   12   14 2
    22   12   15 1
    23   15   19 1
    24   15   16 2
    25   16   17 1
    26   16   26 1
    27   17   18 2
    28   17   27 1
    29   18   19 1
    30   18   28 1
@<TRIPOS>MOLECULE
ZINC00353084
   29    31     0     0     0
SMALL
USER_CHARGES

@<TRIPOS>ATOM
      1 C1         -0.0168    1.3873    0.0097 C.ar      1 <0>        -0.0090
      2 C2          1.1414    2.1040    0.0025 C.ar      1 <0>        -0.1934
      3 C3          2.3772    1.4377   -0.0128 C.ar      1 <0>        -0.0293
      4 C4          3.5921    2.1497   -0.0200 C.ar      1 <0>         0.0068
      5 C5          4.7567    1.4367   -0.0346 C.ar      1 <0>        -0.1659
      6 C6          4.7192    0.0439   -0.0418 C.ar      1 <0>         0.1403
      7 N1          3.5860   -0.6150   -0.0351 N.ar      1 <0>        -0.3974
      8 C7          2.4121    0.0220   -0.0208 C.ar      1 <0>         0.0797
      9 C8          1.1948   -0.6941   -0.0134 C.ar      1 <0>         0.2909
     10 C9          0.0021   -0.0041    0.0020 C.ar      1 <0>        -0.2454
     11 N2          1.1998   -2.0883   -0.0219 N.2       1 <0>        -1.1013
     12 S1         -0.2313   -2.9215   -0.0132 S.o2      1 <0>         2.6710
     13 O1         -0.8475   -2.6573    1.2398 O.2       1 <0>        -0.9981
     14 O2         -0.8714   -2.6423   -1.2508 O.2       1 <0>        -0.9981
     15 C10         0.1652   -4.6382   -0.0273 C.2       1 <0>        -0.7055
     16 C11         0.3620   -5.4775    1.0188 C.2       1 <0>        -0.0247
     17 C12         0.6665   -6.8021    0.7673 C.2       1 <0>        -0.1878
     18 C13         0.7594   -7.2227   -0.5179 C.2       1 <0>        -0.1475
     19 S2          0.4044   -5.7254   -1.4230 S.3       1 <0>         0.1519
     20 H1         -0.9637    1.9065    0.0260 H         1 <0>         0.1342
     21 H2          1.1092    3.1836    0.0081 H         1 <0>         0.1408
     22 H3          3.6025    3.2296   -0.0146 H         1 <0>         0.1643
     23 H4          5.7059    1.9519   -0.0408 H         1 <0>         0.1705
     24 H5          5.6479   -0.5072   -0.0537 H         1 <0>         0.1956
     25 H6         -0.9298   -0.5500    0.0080 H         1 <0>         0.1242
     26 H7          0.2824   -5.1165    2.0336 H         1 <0>         0.1448
     27 H8          0.8284   -7.4916    1.5827 H         1 <0>         0.1426
     28 H9          0.9855   -8.2087   -0.8962 H         1 <0>         0.1943
     29 H10         3.6002   -1.5849   -0.0405 H         1 <0>         0.4516
@<TRIPOS>BOND
     1    1   10 ar
     2    1    2 ar
     3    1   20 1
     4    2    3 ar
     5    2   21 1
     6    3    8 ar
     7    3    4 ar
     8    4    5 ar
     9    4   22 1
    10    5    6 ar
    11    5   23 1
    12    6    7 ar
    13    6   24 1
    14    7    8 ar
    15    7   29 1
    16    8    9 ar
    17    9   10 ar
    18    9   11 1
    19   10   25 1
    20   11   12 1
    21   12   13 2
    22   12   14 2
    23   12   15 1
    24   15   19 1
    25   15   16 2
    26   16   17 1
    27   16   26 1
    28   17   18 2
    29   17   27 1
    30   18   19 1
    31   18   28 1
@<TRIPOS>MOLECULE
ZINC06858682
   28    30     0     0     0
SMALL
USER_CHARGES

@<TRIPOS>ATOM
      1 C1         -0.0168    1.3873    0.0097 C.ar      1 <0>        -0.0225
      2 C2          1.1414    2.1040    0.0025 C.ar      1 <0>        -0.2343
      3 C3          2.3772    1.4377   -0.0128 C.ar      1 <0>        -0.0442
      4 C4          3.5921    2.1497   -0.0200 C.ar      1 <0>        -0.1001
      5 C5          4.7567    1.4367   -0.0346 C.ar      1 <0>        -0.1634
      6 C6          4.7192    0.0439   -0.0418 C.ar      1 <0>         0.0582
      7 N1          3.5860   -0.6150   -0.0351 N.ar      1 <0>        -0.4089
      8 C7          2.4121    0.0220   -0.0208 C.ar      1 <0>         0.0938
      9 C8          1.1948   -0.6941   -0.0134 C.ar      1 <0>         0.3230
     10 C9          0.0021   -0.0041    0.0020 C.ar      1 <0>        -0.3111
     11 N2          1.1998   -2.0883   -0.0219 N.2       1 <0>        -1.0445
     12 S1         -0.2313   -2.9215   -0.0132 S.o2      1 <0>         2.6291
     13 O1         -0.8475   -2.6573    1.2398 O.2       1 <0>        -1.0117
     14 O2         -0.8714   -2.6423   -1.2508 O.2       1 <0>        -1.0135
     15 C10         0.1652   -4.6382   -0.0273 C.2       1 <0>        -0.6642
     16 C11         0.3619   -5.4770    1.0187 C.2       1 <0>        -0.0356
     17 C12         0.6673   -6.8020    0.7677 C.2       1 <0>        -0.1607
     18 C13         0.7608   -7.2224   -0.5187 C.2       1 <0>        -0.1156
     19 S2          0.4043   -5.7251   -1.4232 S.3       1 <0>         0.2042
     20 Cl1         1.1257   -8.8068   -1.1273 Cl        1 <0>         0.0133
     21 H1         -0.9637    1.9065    0.0260 H         1 <0>         0.1079
     22 H2          1.1092    3.1836    0.0081 H         1 <0>         0.1103
     23 H3          3.6025    3.2296   -0.0146 H         1 <0>         0.1249
     24 H4          5.7059    1.9519   -0.0408 H         1 <0>         0.1209
     25 H5          5.6479   -0.5072   -0.0537 H         1 <0>         0.1431
     26 H6         -0.9298   -0.5500    0.0080 H         1 <0>         0.1029
     27 H7          0.2817   -5.1159    2.0333 H         1 <0>         0.1529
     28 H8          0.8293   -7.4915    1.5831 H         1 <0>         0.1459
@<TRIPOS>BOND
     1    1   10 ar
     2    1    2 ar
     3    1   21 1
     4    2    3 ar
     5    2   22 1
     6    3    8 ar
     7    3    4 ar
     8    4    5 ar
     9    4   23 1
    10    5    6 ar
    11    5   24 1
    12    6    7 ar
    13    6   25 1
    14    7    8 ar
    15    8    9 ar
    16    9   10 ar
    17    9   11 1
    18   10   26 1
    19   11   12 1
    20   12   13 2
    21   12   14 2
    22   12   15 1
    23   15   19 1
    24   15   16 2
    25   16   17 1
    26   16   27 1
    27   17   18 2
    28   17   28 1
    29   18   19 1
    30   18   20 1
@<TRIPOS>MOLECULE
ZINC06858682
   29    31     0     0     0
SMALL
USER_CHARGES

@<TRIPOS>ATOM
      1 C1         -0.0168    1.3873    0.0097 C.ar      1 <0>        -0.0094
      2 C2          1.1414    2.1040    0.0025 C.ar      1 <0>        -0.1919
      3 C3          2.3772    1.4377   -0.0128 C.ar      1 <0>        -0.0297
      4 C4          3.5921    2.1497   -0.0200 C.ar      1 <0>         0.0075
      5 C5          4.7567    1.4367   -0.0346 C.ar      1 <0>        -0.1660
      6 C6          4.7192    0.0439   -0.0418 C.ar      1 <0>         0.1418
      7 N1          3.5860   -0.6150   -0.0351 N.ar      1 <0>        -0.3981
      8 C7          2.4121    0.0220   -0.0208 C.ar      1 <0>         0.0804
      9 C8          1.1948   -0.6941   -0.0134 C.ar      1 <0>         0.2905
     10 C9          0.0021   -0.0041    0.0020 C.ar      1 <0>        -0.2446
     11 N2          1.1998   -2.0883   -0.0219 N.2       1 <0>        -1.1012
     12 S1         -0.2313   -2.9215   -0.0132 S.o2      1 <0>         2.6694
     13 O1         -0.8475   -2.6573    1.2398 O.2       1 <0>        -0.9940
     14 O2         -0.8714   -2.6423   -1.2508 O.2       1 <0>        -0.9956
     15 C10         0.1652   -4.6382   -0.0273 C.2       1 <0>        -0.7005
     16 C11         0.3619   -5.4770    1.0187 C.2       1 <0>        -0.0176
     17 C12         0.6673   -6.8020    0.7677 C.2       1 <0>        -0.1690
     18 C13         0.7608   -7.2224   -0.5187 C.2       1 <0>        -0.1002
     19 S2          0.4043   -5.7251   -1.4232 S.3       1 <0>         0.2114
     20 Cl1         1.1257   -8.8068   -1.1273 Cl        1 <0>         0.0281
     21 H1         -0.9637    1.9065    0.0260 H         1 <0>         0.1345
     22 H2          1.1092    3.1836    0.0081 H         1 <0>         0.1411
     23 H3          3.6025    3.2296   -0.0146 H         1 <0>         0.1645
     24 H4          5.7059    1.9519   -0.0408 H         1 <0>         0.1708
     25 H5          5.6479   -0.5072   -0.0537 H         1 <0>         0.1959
     26 H6         -0.9298   -0.5500    0.0080 H         1 <0>         0.1244
     27 H7          0.2817   -5.1159    2.0333 H         1 <0>         0.1543
     28 H8          0.8293   -7.4915    1.5831 H         1 <0>         0.1513
     29 H9          3.6002   -1.5849   -0.0405 H         1 <0>         0.4517
@<TRIPOS>BOND
     1    1   10 ar
     2    1    2 ar
     3    1   21 1
     4    2    3 ar
     5    2   22 1
     6    3    8 ar
     7    3    4 ar
     8    4    5 ar
     9    4   23 1
    10    5    6 ar
    11    5   24 1
    12    6    7 ar
    13    6   25 1
    14    7    8 ar
    15    7   29 1
    16    8    9 ar
    17    9   10 ar
    18    9   11 1
    19   10   26 1
    20   11   12 1
    21   12   13 2
    22   12   14 2
    23   12   15 1
    24   15   19 1
    25   15   16 2
    26   16   17 1
    27   16   27 1
    28   17   18 2
    29   17   28 1
    30   18   19 1
    31   18   20 1
@<TRIPOS>MOLECULE
ZINC00175212
   33    35     0     0     0
SMALL
USER_CHARGES

@<TRIPOS>ATOM
      1 C1          0.0164    1.4280    0.0896 C.ar      1 <0>        -0.0795
      2 C2          1.2240    2.0839   -0.0619 C.ar      1 <0>        -0.1033
      3 C3          2.3970    1.3591   -0.1569 C.ar      1 <0>        -0.0276
      4 C4          2.3628   -0.0219   -0.1000 C.ar      1 <0>        -0.5736
      5 C5          1.1556   -0.6776    0.0523 C.ar      1 <0>         0.0549
      6 C6         -0.0179    0.0474    0.1459 C.ar      1 <0>        -0.0868
      7 N1          1.1189   -2.1561    0.1122 N.pl3     1 <0>         0.0069
      8 O1          0.2204   -2.7607   -0.4252 O.2       1 <0>        -0.1831
      9 O2          1.9874   -2.7591    0.6986 O.3       1 <0>        -0.0560
     10 S1          3.8580   -0.9459   -0.2223 S.o2      1 <0>         2.5830
     11 O3          3.6180   -1.9843   -1.1623 O.2       1 <0>        -1.0097
     12 O4          4.9074   -0.0012   -0.3822 O.2       1 <0>        -1.0161
     13 N2          4.1011   -1.6800    1.2421 N.2       1 <0>        -1.0079
     14 C7          5.2211   -2.4863    1.4403 C.ar      1 <0>         0.3285
     15 C8          6.1323   -2.6713    0.4232 C.ar      1 <0>        -0.3138
     16 C9          7.2545   -3.4731    0.6082 C.ar      1 <0>        -0.0216
     17 C10         7.4826   -4.0958    1.7978 C.ar      1 <0>        -0.2377
     18 C11         6.5776   -3.9322    2.8588 C.ar      1 <0>        -0.0430
     19 C12         5.4338   -3.1150    2.6870 C.ar      1 <0>         0.0982
     20 N3          4.5736   -2.9530    3.6958 N.ar      1 <0>        -0.4042
     21 C13         4.7655   -3.5338    4.8552 C.ar      1 <0>         0.0558
     22 C14         5.8720   -4.3463    5.0934 C.ar      1 <0>        -0.1633
     23 C15         6.7846   -4.5628    4.1007 C.ar      1 <0>        -0.1019
     24 H1         -0.8997    1.9945    0.1683 H         1 <0>         0.1480
     25 H2          1.2507    3.1627   -0.1063 H         1 <0>         0.1461
     26 H3          3.3402    1.8715   -0.2759 H         1 <0>         0.1597
     27 H4         -0.9612   -0.4649    0.2646 H         1 <0>         0.1497
     28 H5          5.9732   -2.1884   -0.5296 H         1 <0>         0.0996
     29 H6          7.9548   -3.6037   -0.2036 H         1 <0>         0.1056
     30 H7          8.3584   -4.7149    1.9248 H         1 <0>         0.1087
     31 H8          4.0472   -3.3782    5.6466 H         1 <0>         0.1413
     32 H9          6.0033   -4.8115    6.0592 H         1 <0>         0.1194
     33 H10         7.6482   -5.1895    4.2677 H         1 <0>         0.1235
@<TRIPOS>BOND
     1    1    6 ar
     2    1    2 ar
     3    1   24 1
     4    2    3 ar
     5    2   25 1
     6    3    4 ar
     7    3   26 1
     8    4    5 ar
     9    4   10 1
    10    5    6 ar
    11    5    7 1
    12    6   27 1
    13    7    8 2
    14    7    9 1
    15   10   11 2
    16   10   12 2
    17   10   13 1
    18   13   14 1
    19   14   19 ar
    20   14   15 ar
    21   15   16 ar
    22   15   28 1
    23   16   17 ar
    24   16   29 1
    25   17   18 ar
    26   17   30 1
    27   18   23 ar
    28   18   19 ar
    29   19   20 ar
    30   20   21 ar
    31   21   22 ar
    32   21   31 1
    33   22   23 ar
    34   22   32 1
    35   23   33 1
@<TRIPOS>MOLECULE
ZINC00175212
   34    36     0     0     0
SMALL
USER_CHARGES

@<TRIPOS>ATOM
      1 C1          0.0164    1.4280    0.0896 C.ar      1 <0>        -0.0691
      2 C2          1.2240    2.0839   -0.0618 C.ar      1 <0>        -0.0967
      3 C3          2.3970    1.3591   -0.1568 C.ar      1 <0>        -0.0229
      4 C4          2.3627   -0.0219   -0.1000 C.ar      1 <0>        -0.5905
      5 C5          1.1556   -0.6776    0.0522 C.ar      1 <0>         0.0486
      6 C6         -0.0179    0.0475    0.1459 C.ar      1 <0>        -0.0817
      7 N1          1.1189   -2.1561    0.1121 N.pl3     1 <0>         0.0140
      8 O1          0.2204   -2.7607   -0.4254 O.2       1 <0>        -0.1542
      9 O2          1.9873   -2.7591    0.6985 O.3       1 <0>        -0.0985
     10 S1          3.8580   -0.9460   -0.2223 S.o2      1 <0>         2.6258
     11 O3          3.6180   -1.9843   -1.1622 O.2       1 <0>        -0.9913
     12 O4          4.9074   -0.0013   -0.3821 O.2       1 <0>        -0.9974
     13 N2          4.1010   -1.6801    1.2421 N.2       1 <0>        -1.0671
     14 C7          5.2211   -2.4863    1.4404 C.ar      1 <0>         0.2970
     15 C8          6.1323   -2.6714    0.4233 C.ar      1 <0>        -0.2481
     16 C9          7.2545   -3.4731    0.6083 C.ar      1 <0>        -0.0082
     17 C10         7.4826   -4.0959    1.7979 C.ar      1 <0>        -0.1961
     18 C11         6.5775   -3.9323    2.8589 C.ar      1 <0>        -0.0277
     19 C12         5.4337   -3.1150    2.6871 C.ar      1 <0>         0.0852
     20 N3          4.5735   -2.9531    3.6958 N.ar      1 <0>        -0.3944
     21 C13         4.7653   -3.5339    4.8553 C.ar      1 <0>         0.1375
     22 C14         5.8719   -4.3464    5.0935 C.ar      1 <0>        -0.1647
     23 C15         6.7845   -4.5628    4.1008 C.ar      1 <0>         0.0046
     24 H1         -0.8997    1.9946    0.1683 H         1 <0>         0.1545
     25 H2          1.2507    3.1627   -0.1062 H         1 <0>         0.1523
     26 H3          3.3402    1.8715   -0.2758 H         1 <0>         0.1630
     27 H4         -0.9612   -0.4649    0.2644 H         1 <0>         0.1545
     28 H5          5.9732   -2.1884   -0.5295 H         1 <0>         0.1208
     29 H6          7.9547   -3.6038   -0.2035 H         1 <0>         0.1323
     30 H7          8.3583   -4.7150    1.9249 H         1 <0>         0.1396
     31 H8          4.0471   -3.3782    5.6467 H         1 <0>         0.1942
     32 H9          6.0031   -4.8116    6.0593 H         1 <0>         0.1696
     33 H10         7.6481   -5.1896    4.2678 H         1 <0>         0.1634
     34 H11         3.7911   -2.3941    3.5680 H         1 <0>         0.4518
@<TRIPOS>BOND
     1    1    6 ar
     2    1    2 ar
     3    1   24 1
     4    2    3 ar
     5    2   25 1
     6    3    4 ar
     7    3   26 1
     8    4    5 ar
     9    4   10 1
    10    5    6 ar
    11    5    7 1
    12    6   27 1
    13    7    8 2
    14    7    9 1
    15   10   11 2
    16   10   12 2
    17   10   13 1
    18   13   14 1
    19   14   19 ar
    20   14   15 ar
    21   15   16 ar
    22   15   28 1
    23   16   17 ar
    24   16   29 1
    25   17   18 ar
    26   17   30 1
    27   18   23 ar
    28   18   19 ar
    29   19   20 ar
    30   20   21 ar
    31   20   34 1
    32   21   22 ar
    33   21   31 1
    34   22   23 ar
    35   22   32 1
    36   23   33 1
@<TRIPOS>MOLECULE
ZINC13817975
   33    36     0     0     0
SMALL
USER_CHARGES

@<TRIPOS>ATOM
      1 C1         -0.0184    1.5028    0.0103 C.3       1 <0>        -0.1256
      2 C2          0.0021   -0.0041    0.0020 C.ar      1 <0>        -0.0269
      3 C3          0.0057   -0.6841   -1.2028 C.ar      1 <0>        -0.1338
      4 C4          0.0189   -2.0692   -1.2170 C.ar      1 <0>        -0.0078
      5 C5          0.0327   -2.7631   -0.0298 C.ar      1 <0>        -0.6624
      6 C6          0.0388   -2.0919    1.1908 C.ar      1 <0>         0.0546
      7 C7          0.0228   -0.6950    1.1956 C.ar      1 <0>        -0.1262
      8 C8          0.0817   -2.8270    2.4780 C.ar      1 <0>        -0.1051
      9 C9         -0.2053   -2.1003    3.6533 C.ar      1 <0>        -0.0700
     10 C10        -0.2132   -2.6979    4.8700 C.ar      1 <0>        -0.1123
     11 C11         0.0686   -4.0702    4.9832 C.ar      1 <0>        -0.0709
     12 C12         0.0546   -4.7204    6.2311 C.ar      1 <0>        -0.0596
     13 C13         0.3387   -6.0565    6.2645 C.ar      1 <0>        -0.1599
     14 C14         0.6313   -6.7347    5.0833 C.ar      1 <0>         0.1317
     15 N1          0.6429   -6.1246    3.9230 N.ar      1 <0>        -0.4669
     16 C15         0.3730   -4.8197    3.8222 C.ar      1 <0>         0.1102
     17 C16         0.3868   -4.1747    2.5637 C.ar      1 <0>         0.2230
     18 N2          0.7362   -4.9305    1.4412 N.pl3     1 <0>        -1.0292
     19 S1          0.0366   -4.5304   -0.0160 S.o2      1 <0>         2.6824
     20 O1          0.9299   -4.9531   -1.0371 O.2       1 <0>        -0.9402
     21 O2         -1.3198   -4.9496    0.0442 O.2       1 <0>        -0.9346
     22 H1          1.0042    1.8801    0.0026 H         1 <0>         0.0814
     23 H2         -0.5455    1.8639   -0.8728 H         1 <0>         0.0755
     24 H3         -0.5286    1.8543    0.9071 H         1 <0>         0.0743
     25 H4         -0.0022   -0.1349   -2.1327 H         1 <0>         0.1386
     26 H5          0.0181   -2.6019   -2.1565 H         1 <0>         0.1418
     27 H6          0.0226   -0.1571    2.1321 H         1 <0>         0.1397
     28 H7         -0.4232   -1.0449    3.5819 H         1 <0>         0.1413
     29 H8         -0.4359   -2.1186    5.7538 H         1 <0>         0.1412
     30 H9         -0.1746   -4.1787    7.1368 H         1 <0>         0.1461
     31 H10         0.3369   -6.5861    7.2057 H         1 <0>         0.1437
     32 H11         0.8547   -7.7905    5.1246 H         1 <0>         0.1656
     33 H12         1.3664   -5.6648    1.5087 H         1 <0>         0.4404
@<TRIPOS>BOND
     1    1    2 1
     2    1   22 1
     3    1   23 1
     4    1   24 1
     5    2    7 ar
     6    2    3 ar
     7    3    4 ar
     8    3   25 1
     9    4    5 ar
    10    4   26 1
    11    5   19 1
    12    5    6 ar
    13    6    7 ar
    14    6    8 1
    15    7   27 1
    16    8   17 ar
    17    8    9 ar
    18    9   10 ar
    19    9   28 1
    20   10   11 ar
    21   10   29 1
    22   11   16 ar
    23   11   12 ar
    24   12   13 ar
    25   12   30 1
    26   13   14 ar
    27   13   31 1
    28   14   15 ar
    29   14   32 1
    30   15   16 ar
    31   16   17 ar
    32   17   18 1
    33   18   19 1
    34   18   33 1
    35   19   20 2
    36   19   21 2
@<TRIPOS>MOLECULE
ZINC13817975
   33    36     0     0     0
SMALL
USER_CHARGES

@<TRIPOS>ATOM
      1 C1         -0.0184    1.5028    0.0103 C.3       1 <0>        -0.1206
      2 C2          0.0021   -0.0041    0.0020 C.ar      1 <0>        -0.0415
      3 C3          0.0057   -0.6841   -1.2028 C.ar      1 <0>        -0.1414
      4 C4          0.0199   -2.0692   -1.2170 C.ar      1 <0>        -0.0174
      5 C5          0.0336   -2.7631   -0.0298 C.ar      1 <0>        -0.6680
      6 C6          0.0387   -2.0919    1.1908 C.ar      1 <0>         0.0586
      7 C7          0.0228   -0.6950    1.1956 C.ar      1 <0>        -0.1369
      8 C8          0.0817   -2.8270    2.4780 C.ar      1 <0>        -0.1697
      9 C9         -0.2063   -2.1004    3.6532 C.ar      1 <0>        -0.0091
     10 C10        -0.2142   -2.6981    4.8699 C.ar      1 <0>        -0.1799
     11 C11         0.0675   -4.0704    4.9831 C.ar      1 <0>        -0.0279
     12 C12         0.0526   -4.7208    6.2309 C.ar      1 <0>         0.0089
     13 C13         0.3367   -6.0569    6.2643 C.ar      1 <0>        -0.1614
     14 C14         0.6302   -6.7349    5.0832 C.ar      1 <0>         0.1509
     15 N1          0.6428   -6.1246    3.9230 N.ar      1 <0>        -0.4030
     16 C15         0.3729   -4.8197    3.8222 C.ar      1 <0>         0.0983
     17 C16         0.3876   -4.1745    2.5638 C.ar      1 <0>         0.2695
     18 N2          0.7379   -4.9301    1.4414 N.2       1 <0>        -1.0514
     19 S1          0.0387   -4.5304   -0.0160 S.o2      1 <0>         2.6191
     20 O1          0.9327   -4.9525   -1.0367 O.2       1 <0>        -0.9724
     21 O2         -1.3175   -4.9505    0.0437 O.2       1 <0>        -0.9983
     22 H1          1.0042    1.8801    0.0026 H         1 <0>         0.0765
     23 H2         -0.5455    1.8639   -0.8728 H         1 <0>         0.0714
     24 H3         -0.5286    1.8543    0.9071 H         1 <0>         0.0702
     25 H4         -0.0022   -0.1349   -2.1327 H         1 <0>         0.1306
     26 H5          0.0197   -2.6018   -2.1565 H         1 <0>         0.1331
     27 H6          0.0226   -0.1571    2.1321 H         1 <0>         0.1313
     28 H7         -0.4248   -1.0452    3.5817 H         1 <0>         0.1379
     29 H8         -0.4377   -2.1189    5.7536 H         1 <0>         0.1460
     30 H9         -0.1767   -4.1791    7.1366 H         1 <0>         0.1679
     31 H10         0.3341   -6.5867    7.2054 H         1 <0>         0.1746
     32 H11         0.8536   -7.7907    5.1245 H         1 <0>         0.2001
     33 H12         0.8524   -6.6301    3.1221 H         1 <0>         0.4540
@<TRIPOS>BOND
     1    1    2 1
     2    1   22 1
     3    1   23 1
     4    1   24 1
     5    2    7 ar
     6    2    3 ar
     7    3    4 ar
     8    3   25 1
     9    4    5 ar
    10    4   26 1
    11    5   19 1
    12    5    6 ar
    13    6    7 ar
    14    6    8 1
    15    7   27 1
    16    8   17 ar
    17    8    9 ar
    18    9   10 ar
    19    9   28 1
    20   10   11 ar
    21   10   29 1
    22   11   16 ar
    23   11   12 ar
    24   12   13 ar
    25   12   30 1
    26   13   14 ar
    27   13   31 1
    28   14   15 ar
    29   14   32 1
    30   15   16 ar
    31   15   33 1
    32   16   17 ar
    33   17   18 1
    34   18   19 1
    35   19   20 2
    36   19   21 2
@<TRIPOS>MOLECULE
ZINC13817975
   32    35     0     0     0
SMALL
USER_CHARGES

@<TRIPOS>ATOM
      1 C1         -0.0184    1.5028    0.0103 C.3       1 <0>        -0.1135
      2 C2          0.0021   -0.0041    0.0020 C.ar      1 <0>        -0.0501
      3 C3          0.0057   -0.6841   -1.2028 C.ar      1 <0>        -0.1671
      4 C4          0.0189   -2.0692   -1.2170 C.ar      1 <0>        -0.0184
      5 C5          0.0327   -2.7631   -0.0298 C.ar      1 <0>        -0.6809
      6 C6          0.0388   -2.0919    1.1908 C.ar      1 <0>         0.0940
      7 C7          0.0228   -0.6950    1.1956 C.ar      1 <0>        -0.1539
      8 C8          0.0817   -2.8270    2.4780 C.ar      1 <0>        -0.2491
      9 C9         -0.2053   -2.1003    3.6533 C.ar      1 <0>        -0.0198
     10 C10        -0.2132   -2.6979    4.8700 C.ar      1 <0>        -0.2119
     11 C11         0.0677   -4.0704    4.9831 C.ar      1 <0>        -0.0468
     12 C12         0.0528   -4.7208    6.2309 C.ar      1 <0>        -0.0953
     13 C13         0.3361   -6.0570    6.2642 C.ar      1 <0>        -0.1608
     14 C14         0.6287   -6.7352    5.0830 C.ar      1 <0>         0.0708
     15 N1          0.6412   -6.1250    3.9228 N.ar      1 <0>        -0.4108
     16 C15         0.3721   -4.8199    3.8221 C.ar      1 <0>         0.1050
     17 C16         0.3868   -4.1747    2.5637 C.ar      1 <0>         0.3140
     18 N2          0.7362   -4.9305    1.4412 N.2       1 <0>        -0.9859
     19 S1          0.0366   -4.5304   -0.0160 S.o2      1 <0>         2.5860
     20 O1          0.9299   -4.9531   -1.0371 O.2       1 <0>        -0.9934
     21 O2         -1.3198   -4.9496    0.0442 O.2       1 <0>        -1.0126
     22 H1          1.0042    1.8801    0.0026 H         1 <0>         0.0695
     23 H2         -0.5455    1.8639   -0.8728 H         1 <0>         0.0644
     24 H3         -0.5286    1.8543    0.9071 H         1 <0>         0.0652
     25 H4         -0.0022   -0.1349   -2.1327 H         1 <0>         0.1191
     26 H5          0.0181   -2.6019   -2.1565 H         1 <0>         0.1236
     27 H6          0.0226   -0.1571    2.1321 H         1 <0>         0.1249
     28 H7         -0.4232   -1.0449    3.5819 H         1 <0>         0.1147
     29 H8         -0.4359   -2.1186    5.7538 H         1 <0>         0.1166
     30 H9         -0.1764   -4.1791    7.1366 H         1 <0>         0.1289
     31 H10         0.3335   -6.5868    7.2053 H         1 <0>         0.1255
     32 H11         0.8514   -7.7912    5.1242 H         1 <0>         0.1482
@<TRIPOS>BOND
     1    1    2 1
     2    1   22 1
     3    1   23 1
     4    1   24 1
     5    2    7 ar
     6    2    3 ar
     7    3    4 ar
     8    3   25 1
     9    4    5 ar
    10    4   26 1
    11    5   19 1
    12    5    6 ar
    13    6    7 ar
    14    6    8 1
    15    7   27 1
    16    8   17 ar
    17    8    9 ar
    18    9   10 ar
    19    9   28 1
    20   10   11 ar
    21   10   29 1
    22   11   16 ar
    23   11   12 ar
    24   12   13 ar
    25   12   30 1
    26   13   14 ar
    27   13   31 1
    28   14   15 ar
    29   14   32 1
    30   15   16 ar
    31   16   17 ar
    32   17   18 1
    33   18   19 1
    34   19   20 2
    35   19   21 2
@<TRIPOS>MOLECULE
ZINC02888883
   28    30     0     0     0
SMALL
USER_CHARGES

@<TRIPOS>ATOM
      1 C1         -0.0168    1.3873    0.0097 C.ar      1 <0>        -0.0226
      2 C2          1.1414    2.1040    0.0025 C.ar      1 <0>        -0.2339
      3 C3          2.3772    1.4377   -0.0128 C.ar      1 <0>        -0.0443
      4 C4          3.5921    2.1497   -0.0200 C.ar      1 <0>        -0.0999
      5 C5          4.7567    1.4367   -0.0346 C.ar      1 <0>        -0.1634
      6 C6          4.7192    0.0439   -0.0418 C.ar      1 <0>         0.0584
      7 N1          3.5860   -0.6150   -0.0351 N.ar      1 <0>        -0.4090
      8 C7          2.4121    0.0220   -0.0208 C.ar      1 <0>         0.0939
      9 C8          1.1948   -0.6941   -0.0134 C.ar      1 <0>         0.3229
     10 C9          0.0021   -0.0041    0.0020 C.ar      1 <0>        -0.3109
     11 N2          1.1998   -2.0883   -0.0219 N.2       1 <0>        -1.0439
     12 S1         -0.2313   -2.9215   -0.0132 S.o2      1 <0>         2.6276
     13 O1         -0.8475   -2.6573    1.2398 O.2       1 <0>        -1.0111
     14 O2         -0.8714   -2.6423   -1.2508 O.2       1 <0>        -1.0129
     15 C10         0.1652   -4.6382   -0.0273 C.2       1 <0>        -0.6568
     16 C11         0.3620   -5.4772    1.0187 C.2       1 <0>        -0.0443
     17 C12         0.6673   -6.8020    0.7676 C.2       1 <0>        -0.1317
     18 C13         0.7608   -7.2224   -0.5185 C.2       1 <0>        -0.1743
     19 S2          0.4043   -5.7252   -1.4232 S.3       1 <0>         0.2124
     20 Br1         1.1583   -8.9483   -1.1813 Br        1 <0>         0.0356
     21 H1         -0.9637    1.9065    0.0260 H         1 <0>         0.1080
     22 H2          1.1092    3.1836    0.0081 H         1 <0>         0.1104
     23 H3          3.6025    3.2296   -0.0146 H         1 <0>         0.1250
     24 H4          5.7059    1.9519   -0.0408 H         1 <0>         0.1210
     25 H5          5.6479   -0.5072   -0.0537 H         1 <0>         0.1431
     26 H6         -0.9298   -0.5500    0.0080 H         1 <0>         0.1028
     27 H7          0.2818   -5.1161    2.0334 H         1 <0>         0.1527
     28 H8          0.8293   -7.4914    1.5830 H         1 <0>         0.1454
@<TRIPOS>BOND
     1    1   10 ar
     2    1    2 ar
     3    1   21 1
     4    2    3 ar
     5    2   22 1
     6    3    8 ar
     7    3    4 ar
     8    4    5 ar
     9    4   23 1
    10    5    6 ar
    11    5   24 1
    12    6    7 ar
    13    6   25 1
    14    7    8 ar
    15    8    9 ar
    16    9   10 ar
    17    9   11 1
    18   10   26 1
    19   11   12 1
    20   12   13 2
    21   12   14 2
    22   12   15 1
    23   15   19 1
    24   15   16 2
    25   16   17 1
    26   16   27 1
    27   17   18 2
    28   17   28 1
    29   18   19 1
    30   18   20 1
@<TRIPOS>MOLECULE
ZINC02888883
   29    31     0     0     0
SMALL
USER_CHARGES

@<TRIPOS>ATOM
      1 C1         -0.0168    1.3873    0.0097 C.ar      1 <0>        -0.0094
      2 C2          1.1414    2.1040    0.0025 C.ar      1 <0>        -0.1916
      3 C3          2.3772    1.4377   -0.0128 C.ar      1 <0>        -0.0297
      4 C4          3.5921    2.1497   -0.0200 C.ar      1 <0>         0.0077
      5 C5          4.7567    1.4367   -0.0346 C.ar      1 <0>        -0.1660
      6 C6          4.7192    0.0439   -0.0418 C.ar      1 <0>         0.1421
      7 N1          3.5860   -0.6150   -0.0351 N.ar      1 <0>        -0.3982
      8 C7          2.4121    0.0220   -0.0208 C.ar      1 <0>         0.0805
      9 C8          1.1948   -0.6941   -0.0134 C.ar      1 <0>         0.2905
     10 C9          0.0021   -0.0041    0.0020 C.ar      1 <0>        -0.2444
     11 N2          1.1998   -2.0883   -0.0219 N.2       1 <0>        -1.1010
     12 S1         -0.2313   -2.9215   -0.0132 S.o2      1 <0>         2.6683
     13 O1         -0.8475   -2.6573    1.2398 O.2       1 <0>        -0.9935
     14 O2         -0.8714   -2.6423   -1.2508 O.2       1 <0>        -0.9950
     15 C10         0.1652   -4.6382   -0.0273 C.2       1 <0>        -0.6933
     16 C11         0.3620   -5.4772    1.0187 C.2       1 <0>        -0.0263
     17 C12         0.6673   -6.8020    0.7676 C.2       1 <0>        -0.1402
     18 C13         0.7608   -7.2224   -0.5185 C.2       1 <0>        -0.1588
     19 S2          0.4043   -5.7252   -1.4232 S.3       1 <0>         0.2194
     20 Br1         1.1583   -8.9483   -1.1813 Br        1 <0>         0.0509
     21 H1         -0.9637    1.9065    0.0260 H         1 <0>         0.1346
     22 H2          1.1092    3.1836    0.0081 H         1 <0>         0.1412
     23 H3          3.6025    3.2296   -0.0146 H         1 <0>         0.1646
     24 H4          5.7059    1.9519   -0.0408 H         1 <0>         0.1709
     25 H5          5.6479   -0.5072   -0.0537 H         1 <0>         0.1960
     26 H6         -0.9298   -0.5500    0.0080 H         1 <0>         0.1243
     27 H7          0.2818   -5.1161    2.0334 H         1 <0>         0.1541
     28 H8          0.8293   -7.4914    1.5830 H         1 <0>         0.1508
     29 H9          3.6002   -1.5849   -0.0405 H         1 <0>         0.4517
@<TRIPOS>BOND
     1    1   10 ar
     2    1    2 ar
     3    1   21 1
     4    2    3 ar
     5    2   22 1
     6    3    8 ar
     7    3    4 ar
     8    4    5 ar
     9    4   23 1
    10    5    6 ar
    11    5   24 1
    12    6    7 ar
    13    6   25 1
    14    7    8 ar
    15    7   29 1
    16    8    9 ar
    17    9   10 ar
    18    9   11 1
    19   10   26 1
    20   11   12 1
    21   12   13 2
    22   12   14 2
    23   12   15 1
    24   15   19 1
    25   15   16 2
    26   16   17 1
    27   16   27 1
    28   17   18 2
    29   17   28 1
    30   18   19 1
    31   18   20 1
@<TRIPOS>MOLECULE
ZINC02568458
   23    23     0     0     0
SMALL
USER_CHARGES

@<TRIPOS>ATOM
      1 C1         -0.0184    1.5028    0.0103 C.3       1 <0>        -0.1282
      2 C2          0.0021   -0.0041    0.0020 C.ar      1 <0>        -0.0239
      3 C3          0.0057   -0.6887   -1.1989 C.ar      1 <0>        -0.1419
      4 C4          0.0245   -2.0709   -1.2065 C.ar      1 <0>        -0.0166
      5 C5          0.0400   -2.7685   -0.0132 C.ar      1 <0>        -0.6672
      6 C6          0.0373   -2.0839    1.1877 C.ar      1 <0>        -0.0158
      7 C7          0.0229   -0.7016    1.1953 C.ar      1 <0>        -0.1421
      8 S1          0.0628   -4.5303   -0.0229 S.o2      1 <0>         2.5777
      9 O1         -0.4759   -4.9503    1.2232 O.2       1 <0>        -0.9309
     10 O2         -0.4897   -4.9367   -1.2674 O.2       1 <0>        -0.9241
     11 C8          1.7525   -5.0294   -0.0350 C.2       1 <0>        -0.6666
     12 C9          2.2583   -5.6906    1.0030 C.2       1 <0>         0.0844
     13 C10         3.6316   -6.0963    0.9931 C.1       1 <0>         0.2179
     14 N1          4.7211   -6.4181    0.9853 N.1       1 <0>        -0.3749
     15 H1          1.0042    1.8801    0.0026 H         1 <0>         0.0811
     16 H2         -0.5455    1.8639   -0.8728 H         1 <0>         0.0747
     17 H3         -0.5286    1.8543    0.9071 H         1 <0>         0.0747
     18 H4         -0.0064   -0.1436   -2.1312 H         1 <0>         0.1355
     19 H5          0.0266   -2.6057   -2.1448 H         1 <0>         0.1453
     20 H6          0.0491   -2.6289    2.1200 H         1 <0>         0.1458
     21 H7          0.0245   -0.1667    2.1335 H         1 <0>         0.1356
     22 H8          2.3777   -4.7987   -0.8849 H         1 <0>         0.1744
     23 H9          1.6332   -5.9213    1.8529 H         1 <0>         0.1851
@<TRIPOS>BOND
     1    1    2 1
     2    1   15 1
     3    1   16 1
     4    1   17 1
     5    2    7 ar
     6    2    3 ar
     7    3    4 ar
     8    3   18 1
     9    4    5 ar
    10    4   19 1
    11    5    6 ar
    12    5    8 1
    13    6    7 ar
    14    6   20 1
    15    7   21 1
    16    8    9 2
    17    8   10 2
    18    8   11 1
    19   11   12 2
    20   11   22 1
    21   12   13 1
    22   12   23 1
    23   13   14 3
@<TRIPOS>MOLECULE
ZINC00230033
   29    32     0     0     0
SMALL
USER_CHARGES

@<TRIPOS>ATOM
      1 C1         -0.0166    1.3750    0.0096 C.ar      1 <0>        -0.0797
      2 C2          1.1659    2.0931    0.0022 C.ar      1 <0>        -0.1680
      3 C3          2.3807    1.4279   -0.0190 C.ar      1 <0>        -0.0222
      4 C4          2.4052    0.0530   -0.0283 C.ar      1 <0>        -0.6767
      5 C5          1.2228   -0.6833   -0.0115 C.ar      1 <0>         0.0903
      6 C6          0.0021   -0.0041    0.0020 C.ar      1 <0>        -0.1546
      7 C7          1.2347   -2.1661    0.0069 C.ar      1 <0>        -0.2495
      8 C8          0.0204   -2.8310   -0.2677 C.ar      1 <0>        -0.0202
      9 C9         -0.0540   -4.1842   -0.2964 C.ar      1 <0>        -0.2116
     10 C10         1.0926   -4.9587   -0.0494 C.ar      1 <0>        -0.0468
     11 C11         1.0486   -6.3647   -0.0856 C.ar      1 <0>        -0.0952
     12 C12         2.2026   -7.0520    0.1650 C.ar      1 <0>        -0.1608
     13 C13         3.3776   -6.3583    0.4463 C.ar      1 <0>         0.0711
     14 N1          3.4137   -5.0483    0.4788 N.ar      1 <0>        -0.4109
     15 C14         2.3200   -4.3177    0.2420 C.ar      1 <0>         0.1050
     16 C15         2.3737   -2.9050    0.2779 C.ar      1 <0>         0.3137
     17 N2          3.5887   -2.3014    0.6138 N.2       1 <0>        -0.9855
     18 S1          3.9393   -0.8235   -0.0684 S.o2      1 <0>         2.5857
     19 O1          4.8247   -0.1544    0.8190 O.2       1 <0>        -0.9930
     20 O2          4.2491   -1.0587   -1.4352 O.2       1 <0>        -1.0122
     21 H1         -0.9613    1.8982    0.0260 H         1 <0>         0.1183
     22 H2          1.1419    3.1728    0.0125 H         1 <0>         0.1195
     23 H3          3.3049    1.9867   -0.0285 H         1 <0>         0.1234
     24 H4         -0.9252   -0.5578    0.0065 H         1 <0>         0.1253
     25 H5         -0.8690   -2.2490   -0.4589 H         1 <0>         0.1152
     26 H6         -0.9959   -4.6680   -0.5090 H         1 <0>         0.1168
     27 H7          0.1285   -6.8860   -0.3050 H         1 <0>         0.1290
     28 H8          2.2038   -8.1318    0.1453 H         1 <0>         0.1256
     29 H9          4.2823   -6.9144    0.6431 H         1 <0>         0.1483
@<TRIPOS>BOND
     1    1    6 ar
     2    1    2 ar
     3    1   21 1
     4    2    3 ar
     5    2   22 1
     6    3    4 ar
     7    3   23 1
     8    4   18 1
     9    4    5 ar
    10    5    6 ar
    11    5    7 1
    12    6   24 1
    13    7   16 ar
    14    7    8 ar
    15    8    9 ar
    16    8   25 1
    17    9   10 ar
    18    9   26 1
    19   10   15 ar
    20   10   11 ar
    21   11   12 ar
    22   11   27 1
    23   12   13 ar
    24   12   28 1
    25   13   14 ar
    26   13   29 1
    27   14   15 ar
    28   15   16 ar
    29   16   17 1
    30   17   18 1
    31   18   19 2
    32   18   20 2
@<TRIPOS>MOLECULE
ZINC00230033
   30    33     0     0     0
SMALL
USER_CHARGES

@<TRIPOS>ATOM
      1 C1         -0.0166    1.3750    0.0096 C.ar      1 <0>        -0.0747
      2 C2          1.1659    2.0931    0.0022 C.ar      1 <0>        -0.1400
      3 C3          2.3807    1.4279   -0.0190 C.ar      1 <0>        -0.0220
      4 C4          2.4052    0.0530   -0.0283 C.ar      1 <0>        -0.6625
      5 C5          1.2228   -0.6833   -0.0115 C.ar      1 <0>         0.0538
      6 C6          0.0021   -0.0041    0.0020 C.ar      1 <0>        -0.1359
      7 C7          1.2347   -2.1661    0.0069 C.ar      1 <0>        -0.1700
      8 C8          0.0204   -2.8310   -0.2677 C.ar      1 <0>        -0.0093
      9 C9         -0.0540   -4.1842   -0.2964 C.ar      1 <0>        -0.1795
     10 C10         1.0926   -4.9587   -0.0494 C.ar      1 <0>        -0.0280
     11 C11         1.0486   -6.3647   -0.0856 C.ar      1 <0>         0.0091
     12 C12         2.2026   -7.0520    0.1650 C.ar      1 <0>        -0.1614
     13 C13         3.3776   -6.3583    0.4463 C.ar      1 <0>         0.1512
     14 N1          3.4137   -5.0483    0.4788 N.ar      1 <0>        -0.4031
     15 C14         2.3200   -4.3177    0.2420 C.ar      1 <0>         0.0984
     16 C15         2.3737   -2.9050    0.2779 C.ar      1 <0>         0.2691
     17 N2          3.5887   -2.3014    0.6138 N.2       1 <0>        -1.0511
     18 S1          3.9393   -0.8235   -0.0684 S.o2      1 <0>         2.6185
     19 O1          4.8247   -0.1544    0.8190 O.2       1 <0>        -0.9719
     20 O2          4.2491   -1.0587   -1.4352 O.2       1 <0>        -0.9978
     21 H1         -0.9613    1.8982    0.0260 H         1 <0>         0.1298
     22 H2          1.1419    3.1728    0.0125 H         1 <0>         0.1312
     23 H3          3.3049    1.9867   -0.0285 H         1 <0>         0.1330
     24 H4         -0.9252   -0.5578    0.0065 H         1 <0>         0.1319
     25 H5         -0.8690   -2.2490   -0.4589 H         1 <0>         0.1383
     26 H6         -0.9959   -4.6680   -0.5090 H         1 <0>         0.1462
     27 H7          0.1286   -6.8859   -0.3057 H         1 <0>         0.1680
     28 H8          2.2038   -8.1318    0.1453 H         1 <0>         0.1746
     29 H9          4.2823   -6.9144    0.6431 H         1 <0>         0.2002
     30 H10         4.2505   -4.6005    0.6790 H         1 <0>         0.4540
@<TRIPOS>BOND
     1    1    6 ar
     2    1    2 ar
     3    1   21 1
     4    2    3 ar
     5    2   22 1
     6    3    4 ar
     7    3   23 1
     8    4   18 1
     9    4    5 ar
    10    5    6 ar
    11    5    7 1
    12    6   24 1
    13    7   16 ar
    14    7    8 ar
    15    8    9 ar
    16    8   25 1
    17    9   10 ar
    18    9   26 1
    19   10   15 ar
    20   10   11 ar
    21   11   12 ar
    22   11   27 1
    23   12   13 ar
    24   12   28 1
    25   13   14 ar
    26   13   29 1
    27   14   15 ar
    28   14   30 1
    29   15   16 ar
    30   16   17 1
    31   17   18 1
    32   18   19 2
    33   18   20 2
@<TRIPOS>MOLECULE
ZINC04618294
   36    38     0     0     0
SMALL
USER_CHARGES

@<TRIPOS>ATOM
      1 C1         -0.0184    1.5028    0.0103 C.3       1 <0>        -0.1732
      2 C2          0.0021   -0.0041    0.0020 C.ar      1 <0>         0.0806
      3 C3          0.0057   -0.6888   -1.1991 C.ar      1 <0>        -0.1476
      4 C4          0.0245   -2.0707   -1.2067 C.ar      1 <0>        -0.0156
      5 C5          0.0400   -2.7685   -0.0132 C.ar      1 <0>        -0.0861
      6 C6          0.0373   -2.0840    1.1875 C.ar      1 <0>         0.0413
      7 C7          0.0229   -0.7015    1.1951 C.ar      1 <0>        -0.6270
      8 S1          0.0255    0.1712    2.7258 S.o2      1 <0>         2.6023
      9 O1         -1.0140    1.1366    2.6447 O.2       1 <0>        -1.0130
     10 O2          0.0757   -0.8098    3.7526 O.2       1 <0>        -1.0154
     11 N1          1.4488    1.0140    2.8065 N.2       1 <0>        -1.0431
     12 C8          1.7286    1.8046    3.9203 C.ar      1 <0>         0.3217
     13 C9          0.8272    1.8841    4.9596 C.ar      1 <0>        -0.3084
     14 C10         1.0946    2.6690    6.0770 C.ar      1 <0>        -0.0237
     15 C11         2.2528    3.3791    6.1739 C.ar      1 <0>        -0.2311
     16 C12         3.1967    3.3244    5.1358 C.ar      1 <0>        -0.0452
     17 C13         2.9408    2.5256    3.9947 C.ar      1 <0>         0.0946
     18 N2          3.8388    2.4672    3.0078 N.ar      1 <0>        -0.4102
     19 C14         4.9656    3.1340    3.0711 C.ar      1 <0>         0.0596
     20 C15         5.2827    3.9344    4.1667 C.ar      1 <0>        -0.1635
     21 C16         4.4032    4.0471    5.2054 C.ar      1 <0>        -0.0987
     22 N3          0.0591   -4.2485   -0.0213 N.pl3     1 <0>         0.0411
     23 O3          0.0611   -4.8473   -1.0717 O.2       1 <0>        -0.1687
     24 O4          0.0727   -4.8586    1.0223 O.3       1 <0>        -0.1598
     25 H1          1.0042    1.8801    0.0026 H         1 <0>         0.1069
     26 H2         -0.5455    1.8639   -0.8728 H         1 <0>         0.0793
     27 H3         -0.5286    1.8543    0.9071 H         1 <0>         0.1170
     28 H4         -0.0064   -0.1437   -2.1314 H         1 <0>         0.1519
     29 H5          0.0266   -2.6056   -2.1450 H         1 <0>         0.1550
     30 H6          0.0491   -2.6290    2.1198 H         1 <0>         0.1673
     31 H7         -0.0986    1.3304    4.9060 H         1 <0>         0.1029
     32 H8          0.3729    2.7162    6.8791 H         1 <0>         0.1083
     33 H9          2.4447    3.9838    7.0479 H         1 <0>         0.1109
     34 H10         5.6667    3.0608    2.2529 H         1 <0>         0.1431
     35 H11         6.2190    4.4721    4.1904 H         1 <0>         0.1214
     36 H12         4.6326    4.6629    6.0625 H         1 <0>         0.1253
@<TRIPOS>BOND
     1    1    2 1
     2    1   25 1
     3    1   26 1
     4    1   27 1
     5    2    7 ar
     6    2    3 ar
     7    3    4 ar
     8    3   28 1
     9    4    5 ar
    10    4   29 1
    11    5    6 ar
    12    5   22 1
    13    6    7 ar
    14    6   30 1
    15    7    8 1
    16    8    9 2
    17    8   10 2
    18    8   11 1
    19   11   12 1
    20   12   17 ar
    21   12   13 ar
    22   13   14 ar
    23   13   31 1
    24   14   15 ar
    25   14   32 1
    26   15   16 ar
    27   15   33 1
    28   16   21 ar
    29   16   17 ar
    30   17   18 ar
    31   18   19 ar
    32   19   20 ar
    33   19   34 1
    34   20   21 ar
    35   20   35 1
    36   21   36 1
    37   22   23 2
    38   22   24 1
@<TRIPOS>MOLECULE
ZINC04618294
   37    39     0     0     0
SMALL
USER_CHARGES

@<TRIPOS>ATOM
      1 C1         -0.0184    1.5028    0.0103 C.3       1 <0>        -0.1721
      2 C2          0.0021   -0.0041    0.0020 C.ar      1 <0>         0.0721
      3 C3          0.0057   -0.6888   -1.1991 C.ar      1 <0>        -0.1439
      4 C4          0.0245   -2.0707   -1.2067 C.ar      1 <0>        -0.0073
      5 C5          0.0400   -2.7685   -0.0132 C.ar      1 <0>        -0.0796
      6 C6          0.0373   -2.0840    1.1875 C.ar      1 <0>         0.0428
      7 C7          0.0229   -0.7015    1.1951 C.ar      1 <0>        -0.6421
      8 S1          0.0255    0.1712    2.7258 S.o2      1 <0>         2.6409
      9 O1         -1.0140    1.1366    2.6447 O.2       1 <0>        -0.9946
     10 O2          0.0757   -0.8098    3.7526 O.2       1 <0>        -0.9972
     11 N1          1.4488    1.0140    2.8065 N.2       1 <0>        -1.1010
     12 C8          1.7286    1.8046    3.9203 C.ar      1 <0>         0.2893
     13 C9          0.8272    1.8841    4.9596 C.ar      1 <0>        -0.2417
     14 C10         1.0946    2.6690    6.0770 C.ar      1 <0>        -0.0103
     15 C11         2.2528    3.3791    6.1739 C.ar      1 <0>        -0.1885
     16 C12         3.1967    3.3244    5.1358 C.ar      1 <0>        -0.0307
     17 C13         2.9408    2.5256    3.9947 C.ar      1 <0>         0.0814
     18 N2          3.8388    2.4672    3.0078 N.ar      1 <0>        -0.3997
     19 C14         4.9656    3.1340    3.0711 C.ar      1 <0>         0.1439
     20 C15         5.2827    3.9344    4.1667 C.ar      1 <0>        -0.1662
     21 C16         4.4032    4.0471    5.2054 C.ar      1 <0>         0.0095
     22 N3          0.0591   -4.2485   -0.0213 N.pl3     1 <0>         0.0353
     23 O3          0.0611   -4.8473   -1.0717 O.2       1 <0>        -0.1565
     24 O4          0.0727   -4.8586    1.0223 O.3       1 <0>        -0.1530
     25 H1          1.0042    1.8801    0.0026 H         1 <0>         0.0968
     26 H2         -0.5455    1.8639   -0.8728 H         1 <0>         0.0872
     27 H3         -0.5286    1.8543    0.9071 H         1 <0>         0.1148
     28 H4         -0.0064   -0.1437   -2.1314 H         1 <0>         0.1555
     29 H5          0.0266   -2.6056   -2.1450 H         1 <0>         0.1604
     30 H6          0.0491   -2.6290    2.1198 H         1 <0>         0.1699
     31 H7         -0.0986    1.3304    4.9060 H         1 <0>         0.1244
     32 H8          0.3729    2.7162    6.8791 H         1 <0>         0.1351
     33 H9          2.4447    3.9838    7.0479 H         1 <0>         0.1418
     34 H10         5.6667    3.0608    2.2529 H         1 <0>         0.1961
     35 H11         6.2190    4.4721    4.1904 H         1 <0>         0.1714
     36 H12         4.6326    4.6629    6.0625 H         1 <0>         0.1651
     37 H13         3.6536    1.9200    2.2286 H         1 <0>         0.4509
@<TRIPOS>BOND
     1    1    2 1
     2    1   25 1
     3    1   26 1
     4    1   27 1
     5    2    7 ar
     6    2    3 ar
     7    3    4 ar
     8    3   28 1
     9    4    5 ar
    10    4   29 1
    11    5    6 ar
    12    5   22 1
    13    6    7 ar
    14    6   30 1
    15    7    8 1
    16    8    9 2
    17    8   10 2
    18    8   11 1
    19   11   12 1
    20   12   17 ar
    21   12   13 ar
    22   13   14 ar
    23   13   31 1
    24   14   15 ar
    25   14   32 1
    26   15   16 ar
    27   15   33 1
    28   16   21 ar
    29   16   17 ar
    30   17   18 ar
    31   18   19 ar
    32   18   37 1
    33   19   20 ar
    34   19   34 1
    35   20   21 ar
    36   20   35 1
    37   21   36 1
    38   22   23 2
    39   22   24 1
@<TRIPOS>MOLECULE
ZINC13817997
   29    32     0     0     0
SMALL
USER_CHARGES

@<TRIPOS>ATOM
      1 C1         -0.0168    1.3885    0.0097 C.ar      1 <0>        -0.1594
      2 C2          1.1582    2.0864    0.0022 C.ar      1 <0>        -0.0947
      3 C3          2.3619    1.3584   -0.0137 C.ar      1 <0>        -0.0457
      4 C4          3.6091    2.0067   -0.0189 C.ar      1 <0>        -0.2082
      5 C5          4.7527    1.2795   -0.0502 C.ar      1 <0>        -0.0202
      6 C6          4.7286   -0.1305   -0.0797 C.ar      1 <0>        -0.2512
      7 C7          3.5141   -0.7957   -0.0425 C.ar      1 <0>         0.3177
      8 C8          2.3089   -0.0559   -0.0224 C.ar      1 <0>         0.1055
      9 N1          1.1266   -0.6783   -0.0130 N.ar      1 <0>        -0.4110
     10 C9          0.0021   -0.0041    0.0020 C.ar      1 <0>         0.0725
     11 N2          3.4310   -2.1899    0.0014 N.2       1 <0>        -0.9813
     12 S1          4.6067   -3.0663   -0.7874 S.o2      1 <0>         2.5853
     13 O1          4.3598   -2.9351   -2.1806 O.2       1 <0>        -1.0080
     14 O2          4.6945   -4.3262   -0.1362 O.2       1 <0>        -0.9893
     15 C10         6.1066   -2.1971   -0.4428 C.ar      1 <0>        -0.6764
     16 C11         6.0294   -0.8402   -0.1356 C.ar      1 <0>         0.1059
     17 C12         7.2075   -0.1376    0.1275 C.ar      1 <0>        -0.1465
     18 C13         8.4224   -0.7923    0.0867 C.ar      1 <0>         0.0111
     19 C14         8.4823   -2.1424   -0.2129 C.ar      1 <0>        -0.1599
     20 C15         7.3185   -2.8453   -0.4792 C.ar      1 <0>        -0.0071
     21 Cl1         9.8851    0.0839    0.4130 Cl        1 <0>        -0.0819
     22 H1         -0.9589    1.9162    0.0260 H         1 <0>         0.1264
     23 H2          1.1626    3.1664    0.0080 H         1 <0>         0.1299
     24 H3          3.6562    3.0855    0.0016 H         1 <0>         0.1183
     25 H4          5.7037    1.7913   -0.0529 H         1 <0>         0.1156
     26 H5         -0.9340   -0.5427    0.0086 H         1 <0>         0.1491
     27 H6          7.1682    0.9159    0.3619 H         1 <0>         0.1369
     28 H7          9.4364   -2.6478   -0.2393 H         1 <0>         0.1319
     29 H8          7.3631   -3.8985   -0.7140 H         1 <0>         0.1345
@<TRIPOS>BOND
     1    1   10 ar
     2    1    2 ar
     3    1   22 1
     4    2    3 ar
     5    2   23 1
     6    3    8 ar
     7    3    4 ar
     8    4    5 ar
     9    4   24 1
    10    5    6 ar
    11    5   25 1
    12    6   16 1
    13    6    7 ar
    14    7    8 ar
    15    7   11 1
    16    8    9 ar
    17    9   10 ar
    18   10   26 1
    19   11   12 1
    20   12   13 2
    21   12   14 2
    22   12   15 1
    23   15   20 ar
    24   15   16 ar
    25   16   17 ar
    26   17   18 ar
    27   17   27 1
    28   18   19 ar
    29   18   21 1
    30   19   20 ar
    31   19   28 1
    32   20   29 1
@<TRIPOS>MOLECULE
ZINC13817997
   30    33     0     0     0
SMALL
USER_CHARGES

@<TRIPOS>ATOM
      1 C1         -0.0168    1.3885    0.0097 C.ar      1 <0>        -0.1597
      2 C2          1.1582    2.0864    0.0022 C.ar      1 <0>         0.0094
      3 C3          2.3619    1.3584   -0.0137 C.ar      1 <0>        -0.0257
      4 C4          3.6091    2.0067   -0.0189 C.ar      1 <0>        -0.1779
      5 C5          4.7527    1.2795   -0.0493 C.ar      1 <0>        -0.0079
      6 C6          4.7286   -0.1305   -0.0779 C.ar      1 <0>        -0.1736
      7 C7          3.5141   -0.7957   -0.0415 C.ar      1 <0>         0.2729
      8 C8          2.3089   -0.0559   -0.0224 C.ar      1 <0>         0.0993
      9 N1          1.1266   -0.6783   -0.0130 N.ar      1 <0>        -0.4034
     10 C9          0.0021   -0.0041    0.0020 C.ar      1 <0>         0.1524
     11 N2          3.4309   -2.1899    0.0033 N.2       1 <0>        -1.0476
     12 S1          4.6075   -3.0668   -0.7836 S.o2      1 <0>         2.6186
     13 O1          4.3622   -2.9366   -2.1772 O.2       1 <0>        -0.9938
     14 O2          4.6945   -4.3263   -0.1314 O.2       1 <0>        -0.9681
     15 C10         6.1070   -2.1974   -0.4380 C.ar      1 <0>        -0.6629
     16 C11         6.0295   -0.8403   -0.1318 C.ar      1 <0>         0.0710
     17 C12         7.2073   -0.1375    0.1321 C.ar      1 <0>        -0.1296
     18 C13         8.4223   -0.7923    0.0932 C.ar      1 <0>         0.0106
     19 C14         8.4825   -2.1426   -0.2054 C.ar      1 <0>        -0.1329
     20 C15         7.3190   -2.8456   -0.4725 C.ar      1 <0>        -0.0065
     21 Cl1         9.8846    0.0842    0.4205 Cl        1 <0>        -0.0602
     22 H1         -0.9589    1.9162    0.0260 H         1 <0>         0.1754
     23 H2          1.1626    3.1664    0.0080 H         1 <0>         0.1689
     24 H3          3.6562    3.0855    0.0016 H         1 <0>         0.1477
     25 H4          5.7037    1.7913   -0.0513 H         1 <0>         0.1386
     26 H5         -0.9340   -0.5427    0.0086 H         1 <0>         0.2010
     27 H6          7.1677    0.9161    0.3658 H         1 <0>         0.1429
     28 H7          9.4365   -2.6480   -0.2304 H         1 <0>         0.1430
     29 H8          7.3638   -3.8990   -0.7065 H         1 <0>         0.1437
     30 H9          1.0996   -1.6479   -0.0174 H         1 <0>         0.4543
@<TRIPOS>BOND
     1    1   10 ar
     2    1    2 ar
     3    1   22 1
     4    2    3 ar
     5    2   23 1
     6    3    8 ar
     7    3    4 ar
     8    4    5 ar
     9    4   24 1
    10    5    6 ar
    11    5   25 1
    12    6   16 1
    13    6    7 ar
    14    7    8 ar
    15    7   11 1
    16    8    9 ar
    17    9   10 ar
    18    9   30 1
    19   10   26 1
    20   11   12 1
    21   12   13 2
    22   12   14 2
    23   12   15 1
    24   15   20 ar
    25   15   16 ar
    26   16   17 ar
    27   17   18 ar
    28   17   27 1
    29   18   19 ar
    30   18   21 1
    31   19   20 ar
    32   19   28 1
    33   20   29 1
@<TRIPOS>MOLECULE
ZINC05664046
   68    72     0     0     0
SMALL
USER_CHARGES
dihydroxy-dimethoxy-(4-methoxyphenyl)-N,N-dimethyl-phenyl-BLAHcarboxamide
@<TRIPOS>ATOM
      1 C1         -7.5092   -1.5922   -2.5939 C.3       1 <0>         0.0823
      2 N1         -6.8493   -0.3424   -2.2083 N.am      1 <0>        -0.6259
      3 C2         -7.5472    0.9352   -2.3721 C.3       1 <0>         0.0734
      4 C3         -5.6002   -0.3680   -1.7028 C.2       1 <0>         0.5180
      5 O1         -4.9855   -1.4125   -1.6579 O.2       1 <0>        -0.5064
      6 C4         -4.9673    0.9013   -1.1935 C.3       1 <0>        -0.1352
      7 H1         -5.3959    1.7616   -1.7077 H         1 <0>         0.1109
      8 C5         -3.4516    0.8538   -1.4187 C.3       1 <0>        -0.0234
      9 H2         -3.1717   -0.0883   -1.8899 H         1 <0>         0.1155
     10 C6         -2.7771    0.9705   -0.0463 C.3       1 <0>         0.1855
     11 C7         -3.8660    1.5236    0.9152 C.3       1 <0>         0.1813
     12 C8         -5.1971    1.0292    0.3195 C.3       1 <0>         0.1022
     13 H3         -5.9883    1.7520    0.5187 H         1 <0>         0.0765
     14 O2         -5.5420   -0.2416    0.8746 O.3       1 <0>        -0.5285
     15 C9         -3.5640    0.7554    2.1886 C.ar      1 <0>        -0.2499
     16 C10        -2.7511   -0.3142    1.8371 C.ar      1 <0>         0.2143
     17 C11        -2.3150   -1.1851    2.8316 C.ar      1 <0>        -0.2092
     18 C12        -2.6933   -0.9872    4.1491 C.ar      1 <0>         0.2074
     19 C13        -3.5091    0.0810    4.4896 C.ar      1 <0>        -0.3275
     20 C14        -3.9447    0.9543    3.5026 C.ar      1 <0>         0.2262
     21 O3         -4.7448    2.0036    3.8275 O.3       1 <0>        -0.3164
     22 C15        -5.0983    2.1478    5.2046 C.3       1 <0>         0.0277
     23 O4         -2.2626   -1.8434    5.1125 O.3       1 <0>        -0.3088
     24 C16        -2.6892   -1.5816    6.4510 C.3       1 <0>         0.0270
     25 O5         -2.5128   -0.3322    0.4965 O.3       1 <0>        -0.2618
     26 O6         -3.8143    2.9418    1.0825 O.3       1 <0>        -0.5130
     27 C17        -1.5453    1.8378   -0.0852 C.ar      1 <0>        -0.1313
     28 C18        -0.6477    1.7152   -1.1297 C.ar      1 <0>        -0.0416
     29 C19         0.4791    2.5134   -1.1709 C.ar      1 <0>        -0.1589
     30 C20         0.7126    3.4345   -0.1602 C.ar      1 <0>         0.1403
     31 C21        -0.1867    3.5516    0.8897 C.ar      1 <0>        -0.2192
     32 C22        -1.3120    2.7511    0.9263 C.ar      1 <0>        -0.0359
     33 O7          1.8201    4.2212   -0.1987 O.3       1 <0>        -0.3179
     34 C23         1.9959    5.1470    0.8756 C.3       1 <0>         0.0276
     35 C24        -3.0369    2.0092   -2.2928 C.ar      1 <0>        -0.0769
     36 C25        -3.2658    3.3075   -1.8770 C.ar      1 <0>        -0.1014
     37 C26        -2.8814    4.3674   -2.6769 C.ar      1 <0>        -0.1173
     38 C27        -2.2763    4.1288   -3.8967 C.ar      1 <0>        -0.1155
     39 C28        -2.0521    2.8304   -4.3148 C.ar      1 <0>        -0.1182
     40 C29        -2.4326    1.7706   -3.5130 C.ar      1 <0>        -0.1127
     41 H4         -8.0585   -1.9912   -1.7411 H         1 <0>         0.0566
     42 H5         -8.2010   -1.3998   -3.4139 H         1 <0>         0.0710
     43 H6         -6.7590   -2.3155   -2.9135 H         1 <0>         0.0795
     44 H7         -7.2715    1.3798   -3.3284 H         1 <0>         0.0613
     45 H8         -8.6238    0.7670   -2.3466 H         1 <0>         0.0782
     46 H9         -7.2655    1.6094   -1.5633 H         1 <0>         0.0690
     47 H10        -6.3721   -0.6057    0.5378 H         1 <0>         0.3735
     48 H11        -1.6793   -2.0195    2.5744 H         1 <0>         0.1388
     49 H12        -3.8038    0.2330    5.5174 H         1 <0>         0.1385
     50 H13        -4.1943    2.2733    5.8005 H         1 <0>         0.0568
     51 H14        -5.7377    3.0221    5.3259 H         1 <0>         0.1027
     52 H15        -5.6324    1.2580    5.5377 H         1 <0>         0.0565
     53 H16        -2.3394   -0.5958    6.7576 H         1 <0>         0.0565
     54 H17        -3.7778   -1.6115    6.4978 H         1 <0>         0.0567
     55 H18        -2.2759   -2.3376    7.1185 H         1 <0>         0.1039
     56 H19        -4.4893    3.2923    1.6797 H         1 <0>         0.3852
     57 H20        -0.8299    0.9980   -1.9164 H         1 <0>         0.1275
     58 H21         1.1775    2.4206   -1.9895 H         1 <0>         0.1287
     59 H22        -0.0070    4.2677    1.6780 H         1 <0>         0.1256
     60 H23        -2.0125    2.8421    1.7432 H         1 <0>         0.1439
     61 H24         1.1499    5.8336    0.9057 H         1 <0>         0.0554
     62 H25         2.0559    4.6027    1.8181 H         1 <0>         0.0550
     63 H26         2.9161    5.7107    0.7224 H         1 <0>         0.0994
     64 H27        -3.7420    3.4938   -0.9257 H         1 <0>         0.1383
     65 H28        -3.0563    5.3818   -2.3501 H         1 <0>         0.1185
     66 H29        -1.9784    4.9568   -4.5228 H         1 <0>         0.1184
     67 H30        -1.5794    2.6440   -5.2678 H         1 <0>         0.1208
     68 H31        -2.2575    0.7562   -3.8397 H         1 <0>         0.1202
@<TRIPOS>BOND
     1    1    2 1
     2    1   41 1
     3    1   42 1
     4    1   43 1
     5    2    3 1
     6    2    4 am
     7    3   44 1
     8    3   45 1
     9    3   46 1
    10    4    5 2
    11    4    6 1
    12    6    7 1
    13    6   12 1
    14    6    8 1
    15    8    9 1
    16    8   10 1
    17    8   35 1
    18   10   25 1
    19   10   11 1
    20   10   27 1
    21   11   12 1
    22   11   15 1
    23   11   26 1
    24   12   13 1
    25   12   14 1
    26   14   47 1
    27   15   20 ar
    28   15   16 ar
    29   16   17 ar
    30   16   25 1
    31   17   18 ar
    32   17   48 1
    33   18   19 ar
    34   18   23 1
    35   19   20 ar
    36   19   49 1
    37   20   21 1
    38   21   22 1
    39   22   50 1
    40   22   51 1
    41   22   52 1
    42   23   24 1
    43   24   53 1
    44   24   54 1
    45   24   55 1
    46   26   56 1
    47   27   32 ar
    48   27   28 ar
    49   28   29 ar
    50   28   57 1
    51   29   30 ar
    52   29   58 1
    53   30   31 ar
    54   30   33 1
    55   31   32 ar
    56   31   59 1
    57   32   60 1
    58   33   34 1
    59   34   61 1
    60   34   62 1
    61   34   63 1
    62   35   40 ar
    63   35   36 ar
    64   36   37 ar
    65   36   64 1
    66   37   38 ar
    67   37   65 1
    68   38   39 ar
    69   38   66 1
    70   39   40 ar
    71   39   67 1
    72   40   68 1
@<TRIPOS>MOLECULE
ZINC05681580
   33    35     0     0     0
SMALL
USER_CHARGES

@<TRIPOS>ATOM
      1 C1         -0.0168    1.3873    0.0097 C.ar      1 <0>        -0.0242
      2 C2          1.1414    2.1040    0.0025 C.ar      1 <0>        -0.2303
      3 C3          2.3772    1.4377   -0.0128 C.ar      1 <0>        -0.0454
      4 C4          3.5921    2.1497   -0.0200 C.ar      1 <0>        -0.0985
      5 C5          4.7567    1.4367   -0.0346 C.ar      1 <0>        -0.1633
      6 C6          4.7192    0.0439   -0.0418 C.ar      1 <0>         0.0605
      7 N1          3.5860   -0.6150   -0.0351 N.ar      1 <0>        -0.4109
      8 C7          2.4121    0.0220   -0.0208 C.ar      1 <0>         0.0941
      9 C8          1.1948   -0.6941   -0.0134 C.ar      1 <0>         0.3209
     10 C9          0.0021   -0.0041    0.0020 C.ar      1 <0>        -0.3081
     11 N2          1.1998   -2.0883   -0.0219 N.2       1 <0>        -1.0445
     12 S1         -0.2313   -2.9215   -0.0132 S.o2      1 <0>         2.5936
     13 O1         -0.8475   -2.6573    1.2398 O.2       1 <0>        -1.0135
     14 O2         -0.8714   -2.6423   -1.2508 O.2       1 <0>        -1.0135
     15 C10         0.1652   -4.6382   -0.0273 C.ar      1 <0>        -0.5696
     16 C11         0.3148   -5.3032   -1.2299 C.ar      1 <0>        -0.0217
     17 C12         0.6260   -6.6500   -1.2410 C.ar      1 <0>        -0.0791
     18 C13         0.7879   -7.3318   -0.0495 C.ar      1 <0>        -0.0170
     19 C14         0.6391   -6.6667    1.1532 C.ar      1 <0>        -0.0792
     20 C15         0.3323   -5.3189    1.1643 C.ar      1 <0>        -0.0218
     21 N3          1.1201   -8.7742   -0.0613 N.pl3     1 <0>         0.0329
     22 O3          1.2497   -9.3560   -1.1132 O.2       1 <0>        -0.1577
     23 O4          1.2617   -9.3705    0.9808 O.3       1 <0>        -0.1575
     24 H1         -0.9637    1.9065    0.0260 H         1 <0>         0.1086
     25 H2          1.1092    3.1836    0.0081 H         1 <0>         0.1112
     26 H3          3.6025    3.2296   -0.0146 H         1 <0>         0.1257
     27 H4          5.7059    1.9519   -0.0408 H         1 <0>         0.1218
     28 H5          5.6479   -0.5072   -0.0537 H         1 <0>         0.1437
     29 H6         -0.9298   -0.5500    0.0080 H         1 <0>         0.1032
     30 H7          0.1883   -4.7705   -2.1609 H         1 <0>         0.1616
     31 H8          0.7422   -7.1697   -2.1806 H         1 <0>         0.1582
     32 H9          0.7653   -7.1994    2.0841 H         1 <0>         0.1582
     33 H10         0.2197   -4.7983    2.1038 H         1 <0>         0.1616
@<TRIPOS>BOND
     1    1   10 ar
     2    1    2 ar
     3    1   24 1
     4    2    3 ar
     5    2   25 1
     6    3    8 ar
     7    3    4 ar
     8    4    5 ar
     9    4   26 1
    10    5    6 ar
    11    5   27 1
    12    6    7 ar
    13    6   28 1
    14    7    8 ar
    15    8    9 ar
    16    9   10 ar
    17    9   11 1
    18   10   29 1
    19   11   12 1
    20   12   13 2
    21   12   14 2
    22   12   15 1
    23   15   20 ar
    24   15   16 ar
    25   16   17 ar
    26   16   30 1
    27   17   18 ar
    28   17   31 1
    29   18   19 ar
    30   18   21 1
    31   19   20 ar
    32   19   32 1
    33   20   33 1
    34   21   22 2
    35   21   23 1
