@<TRIPOS>MOLECULE
ZINC01488870
   48    50     0     0     0
SMALL
USER_CHARGES

@<TRIPOS>ATOM
      1 C1         -0.0187    1.3748   -0.0241 C.ar      1 <0>        -0.0854
      2 C2          1.0867    1.9474   -0.6261 C.ar      1 <0>        -0.1553
      3 C3          2.2982    1.2818   -0.6319 C.ar      1 <0>        -0.0833
      4 C4          2.4078    0.0361   -0.0323 C.ar      1 <0>         0.0679
      5 C5          1.2931   -0.5414    0.5754 C.ar      1 <0>         0.1915
      6 C6          0.0812    0.1336    0.5760 C.ar      1 <0>        -0.1796
      7 N1          1.3966   -1.7979    1.1817 N.pl3     1 <0>        -0.8806
      8 N2          3.6344   -0.6404   -0.0373 N.am      1 <0>        -0.6607
      9 C7          4.7855    0.0520   -0.1472 C.2       1 <0>         0.5565
     10 O1          4.7666    1.2676   -0.1407 O.2       1 <0>        -0.5108
     11 C8          6.0709   -0.6665   -0.2756 C.ar      1 <0>        -0.1236
     12 C9          6.0955   -2.0621   -0.2893 C.ar      1 <0>        -0.0892
     13 C10         7.2985   -2.7265   -0.4099 C.ar      1 <0>        -0.1018
     14 C11         8.4788   -2.0126   -0.5172 C.ar      1 <0>        -0.0864
     15 C12         8.4614   -0.6291   -0.5044 C.ar      1 <0>        -0.1009
     16 C13         7.2648    0.0476   -0.3897 C.ar      1 <0>        -0.0571
     17 C14         9.7893   -2.7451   -0.6481 C.3       1 <0>         0.1758
     18 N3         10.0825   -2.9719   -2.0655 N.am      1 <0>        -0.7057
     19 C15        11.2113   -3.6141   -2.4258 C.2       1 <0>         0.6491
     20 O2         11.9858   -4.0050   -1.5750 O.2       1 <0>        -0.5667
     21 O3         11.4808   -3.8225   -3.7283 O.3       1 <0>        -0.3603
     22 C16        12.6949   -4.5097   -4.0378 C.3       1 <0>         0.1337
     23 C17        12.8257   -4.6499   -5.5325 C.ar      1 <0>        -0.1541
     24 C18        12.3023   -5.7575   -6.1823 C.ar      1 <0>        -0.0489
     25 C19        12.4462   -5.8443   -7.5584 C.ar      1 <0>        -0.1753
     26 C20        13.1021   -4.8312   -8.2322 C.ar      1 <0>         0.1111
     27 N4         13.5877   -3.7925   -7.5813 N.ar      1 <0>        -0.4858
     28 C21        13.4639   -3.6737   -6.2736 C.ar      1 <0>         0.1269
     29 H1         -0.9619    1.9009   -0.0188 H         1 <0>         0.1238
     30 H2          1.0031    2.9174   -1.0935 H         1 <0>         0.1240
     31 H3          3.1592    1.7317   -1.1037 H         1 <0>         0.1448
     32 H4         -0.7841   -0.3105    1.0455 H         1 <0>         0.1250
     33 H5          2.2446   -2.2689    1.1799 H         1 <0>         0.3907
     34 H6          0.6204   -2.1981    1.6039 H         1 <0>         0.4028
     35 H7          3.6554   -1.6072    0.0383 H         1 <0>         0.4029
     36 H8          5.1749   -2.6205   -0.2052 H         1 <0>         0.1271
     37 H9          7.3190   -3.8062   -0.4202 H         1 <0>         0.1348
     38 H10         9.3863   -0.0779   -0.5885 H         1 <0>         0.1368
     39 H11         7.2522    1.1276   -0.3840 H         1 <0>         0.1427
     40 H12        10.5854   -2.1480   -0.2034 H         1 <0>         0.0862
     41 H13         9.7229   -3.7034   -0.1330 H         1 <0>         0.0854
     42 H14         9.4642   -2.6598   -2.7446 H         1 <0>         0.4098
     43 H15        13.5418   -3.9433   -3.6505 H         1 <0>         0.0837
     44 H16        12.6793   -5.4988   -3.5800 H         1 <0>         0.0817
     45 H17        11.7948   -6.5342   -5.6294 H         1 <0>         0.1376
     46 H18        12.0512   -6.6930   -8.0970 H         1 <0>         0.1404
     47 H19        13.2184   -4.8913   -9.3043 H         1 <0>         0.1603
     48 H20        13.8700   -2.8057   -5.7757 H         1 <0>         0.1583
@<TRIPOS>BOND
     1    1    6 ar
     2    1    2 ar
     3    1   29 1
     4    2    3 ar
     5    2   30 1
     6    3    4 ar
     7    3   31 1
     8    4    5 ar
     9    4    8 1
    10    5    6 ar
    11    5    7 1
    12    6   32 1
    13    7   33 1
    14    7   34 1
    15    8    9 am
    16    8   35 1
    17    9   10 2
    18    9   11 1
    19   11   16 ar
    20   11   12 ar
    21   12   13 ar
    22   12   36 1
    23   13   14 ar
    24   13   37 1
    25   14   15 ar
    26   14   17 1
    27   15   16 ar
    28   15   38 1
    29   16   39 1
    30   17   18 1
    31   17   40 1
    32   17   41 1
    33   18   19 am
    34   18   42 1
    35   19   20 2
    36   19   21 1
    37   21   22 1
    38   22   23 1
    39   22   43 1
    40   22   44 1
    41   23   28 ar
    42   23   24 ar
    43   24   25 ar
    44   24   45 1
    45   25   26 ar
    46   25   46 1
    47   26   27 ar
    48   26   47 1
    49   27   28 ar
    50   28   48 1
@<TRIPOS>MOLECULE
ZINC17654900
   94    97     0     0     0
SMALL
USER_CHARGES
(3S,6S,9S,12R)-6-[(1-methoxyindol-3-yl)methyl]-9-(6-oxooctyl)-3-sec-butyl-1,4,7,10-tetrazabicyclo[10.4.0]hexadecane-2,5,8,11-tetrone
@<TRIPOS>ATOM
      1 C1          8.2186   -0.3631    2.3729 C.3       1 <0>        -0.1519
      2 C2          6.8466    0.2556    2.6482 C.3       1 <0>        -0.1113
      3 C3          6.0980    0.4446    1.3273 C.3       1 <0>        -0.0991
      4 H1          6.0473   -0.5074    0.7990 H         1 <0>         0.1052
      5 C4          6.8378    1.4683    0.4638 C.3       1 <0>        -0.1490
      6 C5          4.6849    0.9448    1.6108 C.3       1 <0>         0.1520
      7 H2          4.7449    1.9102    2.1298 H         1 <0>         0.0924
      8 C6          3.8976    1.1045    0.3382 C.2       1 <0>         0.5218
      9 O1          3.8394    0.1756   -0.4447 O.2       1 <0>        -0.5083
     10 N1          3.2674    2.2382    0.0046 N.am      1 <0>        -0.5936
     11 C7          3.6970    3.5435    0.5007 C.3       1 <0>         0.1093
     12 C8          4.1205    4.4091   -0.6907 C.3       1 <0>        -0.1355
     13 C9          3.6930    3.7399   -1.9970 C.3       1 <0>        -0.1068
     14 C10         2.2234    3.3140   -1.9135 C.3       1 <0>        -0.1232
     15 C11         2.1017    2.1645   -0.8968 C.3       1 <0>         0.1360
     16 H3          2.1356    1.2308   -1.4340 H         1 <0>         0.1126
     17 C12         0.8339    2.3308   -0.1197 C.2       1 <0>         0.5305
     18 O2          0.7119    3.3857    0.5143 O.2       1 <0>        -0.5285
     19 N2         -0.1909    1.4560   -0.0335 N.am      1 <0>        -0.7270
     20 C13         0.0021   -0.0041    0.0020 C.3       1 <0>         0.1279
     21 H4         -0.9584   -0.4688    0.2979 H         1 <0>         0.1120
     22 C14         1.0097   -0.3771    1.0507 C.2       1 <0>         0.5021
     23 O3          1.5548    0.4895    1.7051 O.2       1 <0>        -0.5054
     24 N3          1.2812   -1.6958    1.2826 N.am      1 <0>        -0.7107
     25 C15         2.3243   -1.9116    2.3308 C.3       1 <0>         0.1321
     26 H5          2.0011   -1.5060    3.2853 H         1 <0>         0.0903
     27 C16         3.5493   -1.1770    1.8469 C.2       1 <0>         0.5147
     28 O4          4.1907   -1.6725    0.9413 O.2       1 <0>        -0.4756
     29 N4          3.9213   -0.0150    2.4482 N.am      1 <0>        -0.7194
     30 C17         2.6307   -3.4038    2.4788 C.3       1 <0>        -0.0391
     31 C18         1.4086   -4.1189    2.9947 C.2       1 <0>        -0.1608
     32 C19         1.1361   -4.4113    4.2762 C.2       1 <0>         0.0410
     33 N5         -0.0633   -5.0644    4.3608 N.pl3     1 <0>        -0.3486
     34 C20        -0.6057   -5.2120    3.1039 C.ar      1 <0>         0.1243
     35 C21         0.2897   -4.6210    2.1935 C.ar      1 <0>        -0.0948
     36 C22        -0.0060   -4.6162    0.8293 C.ar      1 <0>        -0.0826
     37 C23        -1.1671   -5.1836    0.3848 C.ar      1 <0>        -0.1341
     38 C24        -2.0553   -5.7648    1.2791 C.ar      1 <0>        -0.0972
     39 C25        -1.7797   -5.7871    2.6290 C.ar      1 <0>        -0.1161
     40 O5         -0.6585   -5.5199    5.5622 O.3       1 <0>        -0.1437
     41 C26         0.1104   -5.2408    6.7340 C.3       1 <0>        -0.0037
     42 C27         0.3873   -0.5697   -1.3583 C.3       1 <0>        -0.1323
     43 C28        -0.7456   -0.3168   -2.3551 C.3       1 <0>        -0.1161
     44 C29        -0.3585   -0.8851   -3.7219 C.3       1 <0>        -0.1195
     45 C30        -1.4914   -0.6322   -4.7187 C.3       1 <0>        -0.1126
     46 C31        -1.1043   -1.2005   -6.0855 C.3       1 <0>        -0.1654
     47 C32        -2.2201   -0.9514   -7.0674 C.2       1 <0>         0.3499
     48 O6         -3.2215   -0.3784   -6.7107 O.2       1 <0>        -0.4501
     49 C33        -2.0862   -1.4173   -8.4943 C.3       1 <0>        -0.1692
     50 C34        -3.3482   -1.0421   -9.2738 C.3       1 <0>        -0.1477
     51 H6          8.7519   -0.4977    3.3139 H         1 <0>         0.0526
     52 H7          8.0901   -1.3301    1.8865 H         1 <0>         0.0548
     53 H8          8.7912    0.2977    1.7221 H         1 <0>         0.0560
     54 H9          6.9751    1.2226    3.1346 H         1 <0>         0.0583
     55 H10         6.2740   -0.4052    3.2990 H         1 <0>         0.0622
     56 H11         6.8885    2.4204    0.9922 H         1 <0>         0.0531
     57 H12         7.8474    1.1110    0.2614 H         1 <0>         0.0656
     58 H13         6.3045    1.6030   -0.4772 H         1 <0>         0.0535
     59 H14         2.8732    4.0259    1.0156 H         1 <0>         0.0841
     60 H15         4.5457    3.4316    1.1711 H         1 <0>         0.0790
     61 H16         3.6448    5.3853   -0.6184 H         1 <0>         0.0728
     62 H17         5.2016    4.5234   -0.6845 H         1 <0>         0.0680
     63 H18         3.8204    4.4388   -2.8250 H         1 <0>         0.0687
     64 H19         4.3128    2.8620   -2.1723 H         1 <0>         0.0654
     65 H20         1.6208    4.1576   -1.5730 H         1 <0>         0.0798
     66 H21         1.8767    2.9708   -2.8857 H         1 <0>         0.0778
     67 H22        -1.1211    1.8169    0.0123 H         1 <0>         0.4129
     68 H23         0.8477   -2.4320    0.8209 H         1 <0>         0.4145
     69 H24         3.6941    0.1788    3.3848 H         1 <0>         0.4134
     70 H25         2.9100   -3.8153    1.5088 H         1 <0>         0.0955
     71 H26         3.4536   -3.5379    3.1809 H         1 <0>         0.0915
     72 H27         1.7695   -4.1669    5.1161 H         1 <0>         0.1728
     73 H28         0.6805   -4.1661    0.1276 H         1 <0>         0.1229
     74 H29        -1.3956   -5.1793   -0.6707 H         1 <0>         0.1271
     75 H30        -2.9688   -6.2091    0.9126 H         1 <0>         0.1289
     76 H31        -2.4780   -6.2402    3.3171 H         1 <0>         0.1242
     77 H32        -0.4131   -5.6211    7.6112 H         1 <0>         0.1231
     78 H33         1.0838   -5.7248    6.6536 H         1 <0>         0.0654
     79 H34         0.2470   -4.1638    6.8310 H         1 <0>         0.0647
     80 H35         1.2965   -0.0822   -1.7102 H         1 <0>         0.0814
     81 H36         0.5608   -1.6421   -1.2699 H         1 <0>         0.0804
     82 H37        -1.6548   -0.8042   -2.0032 H         1 <0>         0.0676
     83 H38        -0.9191    0.7557   -2.4435 H         1 <0>         0.0672
     84 H39         0.5507   -0.3976   -4.0738 H         1 <0>         0.0640
     85 H40        -0.1850   -1.9575   -3.6336 H         1 <0>         0.0659
     86 H41        -2.4006   -1.1196   -4.3668 H         1 <0>         0.0687
     87 H42        -1.6649    0.4403   -4.8071 H         1 <0>         0.0674
     88 H43        -0.2702   -0.7533   -6.4083 H         1 <0>         0.0885
     89 H44        -0.9307   -2.2729   -5.9972 H         1 <0>         0.0985
     90 H45        -1.2919   -0.9789   -8.9149 H         1 <0>         0.0879
     91 H46        -1.9561   -2.4993   -8.5125 H         1 <0>         0.0977
     92 H47        -4.2139   -1.5200   -8.8153 H         1 <0>         0.0602
     93 H48        -3.4783    0.0399   -9.2556 H         1 <0>         0.0596
     94 H49        -3.2513   -1.3791  -10.3059 H         1 <0>         0.0615
@<TRIPOS>BOND
     1    1    2 1
     2    1   51 1
     3    1   52 1
     4    1   53 1
     5    2    3 1
     6    2   54 1
     7    2   55 1
     8    3    4 1
     9    3    5 1
    10    3    6 1
    11    5   56 1
    12    5   57 1
    13    5   58 1
    14    6    7 1
    15    6   29 1
    16    6    8 1
    17    8    9 2
    18    8   10 am
    19   10   15 1
    20   10   11 1
    21   11   12 1
    22   11   59 1
    23   11   60 1
    24   12   13 1
    25   12   61 1
    26   12   62 1
    27   13   14 1
    28   13   63 1
    29   13   64 1
    30   14   15 1
    31   14   65 1
    32   14   66 1
    33   15   16 1
    34   15   17 1
    35   17   18 2
    36   17   19 am
    37   19   20 1
    38   19   67 1
    39   20   21 1
    40   20   22 1
    41   20   42 1
    42   22   23 2
    43   22   24 am
    44   24   25 1
    45   24   68 1
    46   25   26 1
    47   25   27 1
    48   25   30 1
    49   27   28 2
    50   27   29 am
    51   29   69 1
    52   30   31 1
    53   30   70 1
    54   30   71 1
    55   31   35 1
    56   31   32 2
    57   32   33 1
    58   32   72 1
    59   33   34 1
    60   33   40 1
    61   34   39 ar
    62   34   35 ar
    63   35   36 ar
    64   36   37 ar
    65   36   73 1
    66   37   38 ar
    67   37   74 1
    68   38   39 ar
    69   38   75 1
    70   39   76 1
    71   40   41 1
    72   41   77 1
    73   41   78 1
    74   41   79 1
    75   42   43 1
    76   42   80 1
    77   42   81 1
    78   43   44 1
    79   43   82 1
    80   43   83 1
    81   44   45 1
    82   44   84 1
    83   44   85 1
    84   45   46 1
    85   45   86 1
    86   45   87 1
    87   46   47 1
    88   46   88 1
    89   46   89 1
    90   47   48 2
    91   47   49 1
    92   49   50 1
    93   49   90 1
    94   49   91 1
    95   50   92 1
    96   50   93 1
    97   50   94 1
@<TRIPOS>MOLECULE
ZINC13507825
   64    65     0     0     0
SMALL
USER_CHARGES

@<TRIPOS>ATOM
      1 C1         -0.0167    1.3781    0.0096 C.ar      1 <0>        -0.1127
      2 C2          1.1709    2.0855    0.0021 C.ar      1 <0>        -0.1238
      3 C3          2.3773    1.4107   -0.0130 C.ar      1 <0>        -0.1240
      4 C4          2.3960    0.0285   -0.0201 C.ar      1 <0>        -0.0727
      5 C5          1.2084   -0.6789   -0.0117 C.ar      1 <0>        -0.1003
      6 C6          0.0021   -0.0041    0.0020 C.ar      1 <0>        -0.1055
      7 C7          3.7112   -0.7071   -0.0376 C.3       1 <0>        -0.0919
      8 C8          4.1714   -0.9633    1.3989 C.3       1 <0>         0.1393
      9 H1          3.3868   -1.4885    1.9436 H         1 <0>         0.1251
     10 C9          5.4216   -1.8045    1.3834 C.2       1 <0>         0.5181
     11 O1          6.4455   -1.3782    1.8741 O.2       1 <0>        -0.5209
     12 N1          5.4019   -3.0307    0.8243 N.am      1 <0>        -0.7086
     13 C10         6.6173   -3.8485    0.8092 C.3       1 <0>         0.1068
     14 H2          7.1849   -3.6726    1.7230 H         1 <0>         0.1284
     15 C11         6.2357   -5.3276    0.7225 C.3       1 <0>        -0.1248
     16 C12         5.4883   -5.7368    1.9932 C.3       1 <0>        -0.1323
     17 C13         5.1067   -7.2159    1.9065 C.3       1 <0>         0.0916
     18 N2          4.3910   -7.6077    3.1233 N.pl3     1 <0>        -0.6982
     19 C14         3.9481   -8.8933    3.2723 C.cat     1 <0>         0.7431
     20 N3          3.2974   -9.2495    4.3785 N.pl3     1 <0>        -0.7927
     21 N4          4.1676   -9.7889    2.3111 N.pl3     1 <0>        -0.7912
     22 C15         7.4587   -3.4760   -0.3843 C.2       1 <0>         0.3308
     23 O2          6.9786   -2.8273   -1.2826 O.2       1 <0>        -0.4026
     24 C16         8.8991   -3.9129   -0.4567 C.3       1 <0>        -0.1026
     25 Cl1         9.6313   -3.3174   -1.9929 Cl        1 <0>        -0.1247
     26 N5          4.4511    0.3151    2.0574 N.am      1 <0>        -0.6885
     27 C17         3.4510    1.0070    2.6383 C.2       1 <0>         0.5138
     28 O3          2.3193    0.5713    2.6159 O.2       1 <0>        -0.5051
     29 C18         3.7387    2.3221    3.3156 C.3       1 <0>         0.0042
     30 H3          4.4632    2.1842    4.1182 H         1 <0>         0.1704
     31 C19         4.2632    3.3550    2.2872 C.3       1 <0>        -0.1399
     32 C20         3.8956    4.6963    2.9749 C.3       1 <0>        -0.1392
     33 C21         2.5532    4.3764    3.6655 C.3       1 <0>        -0.0093
     34 N6          2.4908    2.9126    3.8446 N.4       1 <0>        -0.5018
     35 H4         -0.9591    1.9053    0.0259 H         1 <0>         0.1234
     36 H5          1.1563    3.1654    0.0076 H         1 <0>         0.1184
     37 H6          3.3051    1.9634   -0.0196 H         1 <0>         0.1121
     38 H7          1.2231   -1.7588   -0.0176 H         1 <0>         0.1181
     39 H8         -0.9258   -0.5567    0.0082 H         1 <0>         0.1239
     40 H9          3.5884   -1.6586   -0.5549 H         1 <0>         0.0944
     41 H10         4.4573   -0.1052   -0.5563 H         1 <0>         0.0900
     42 H11         4.5830   -3.3717    0.4319 H         1 <0>         0.4099
     43 H12         5.5938   -5.4870   -0.1439 H         1 <0>         0.0908
     44 H13         7.1383   -5.9304    0.6219 H         1 <0>         0.1024
     45 H14         6.1302   -5.5773    2.8596 H         1 <0>         0.0897
     46 H15         4.5857   -5.1340    2.0939 H         1 <0>         0.0841
     47 H16         4.4648   -7.3754    1.0402 H         1 <0>         0.0951
     48 H17         6.0093   -7.8187    1.8059 H         1 <0>         0.0967
     49 H18         4.2312   -6.9555    3.8233 H         1 <0>         0.4350
     50 H19         3.1376   -8.5973    5.0785 H         1 <0>         0.4410
     51 H20         4.6415   -9.5295    1.5055 H         1 <0>         0.4399
     52 H21         3.8535  -10.7006    2.4168 H         1 <0>         0.4430
     53 H22         9.4469   -3.5006    0.3907 H         1 <0>         0.1305
     54 H23         8.9505   -5.0013   -0.4276 H         1 <0>         0.1283
     55 H24         5.3562    0.6636    2.0753 H         1 <0>         0.4197
     56 H25         5.3418    3.2649    2.1587 H         1 <0>         0.1277
     57 H26         3.7477    3.2517    1.3324 H         1 <0>         0.1064
     58 H27         4.6513    4.9720    3.7104 H         1 <0>         0.1070
     59 H28         3.7697    5.4868    2.2351 H         1 <0>         0.1205
     60 H29         2.5091    4.8694    4.6366 H         1 <0>         0.1412
     61 H30         1.7255    4.7102    3.0398 H         1 <0>         0.1373
     62 H31         1.6994    2.5425    3.3397 H         1 <0>         0.4363
     63 H32         2.9833  -10.1612    4.4842 H         1 <0>         0.4433
     64 H33         2.3998    2.6921    4.8250 H         1 <0>         0.4357
@<TRIPOS>BOND
     1    1    6 ar
     2    1    2 ar
     3    1   35 1
     4    2    3 ar
     5    2   36 1
     6    3    4 ar
     7    3   37 1
     8    4    5 ar
     9    4    7 1
    10    5    6 ar
    11    5   38 1
    12    6   39 1
    13    7    8 1
    14    7   40 1
    15    7   41 1
    16    8    9 1
    17    8   10 1
    18    8   26 1
    19   10   11 2
    20   10   12 am
    21   12   13 1
    22   12   42 1
    23   13   14 1
    24   13   15 1
    25   13   22 1
    26   15   16 1
    27   15   43 1
    28   15   44 1
    29   16   17 1
    30   16   45 1
    31   16   46 1
    32   17   18 1
    33   17   47 1
    34   17   48 1
    35   18   19 1
    36   18   49 1
    37   19   20 2
    38   19   21 1
    39   20   50 1
    40   20   63 1
    41   21   51 1
    42   21   52 1
    43   22   23 2
    44   22   24 1
    45   24   25 1
    46   24   53 1
    47   24   54 1
    48   26   27 am
    49   26   55 1
    50   27   28 2
    51   27   29 1
    52   29   30 1
    53   29   34 1
    54   29   31 1
    55   31   32 1
    56   31   56 1
    57   31   57 1
    58   32   33 1
    59   32   58 1
    60   32   59 1
    61   33   34 1
    62   33   60 1
    63   33   61 1
    64   34   62 1
    65   34   64 1
@<TRIPOS>MOLECULE
ZINC05579377
   44    44     0     0     0
SMALL
USER_CHARGES

@<TRIPOS>ATOM
      1 C1          0.0163    0.8704   -0.6224 C.3       1 <0>        -0.1382
      2 C2          0.1984   -0.5975   -0.2312 C.3       1 <0>        -0.1146
      3 H1         -0.7690   -1.0995   -0.2438 H         1 <0>         0.1076
      4 C3          0.7887   -0.6789    1.1530 C.2       1 <0>        -0.0924
      5 C4          0.0754   -1.2000    2.1527 C.2       1 <0>        -0.1248
      6 C5         -1.3645   -1.5849    1.9302 C.3       1 <0>        -0.1253
      7 C6          0.6913   -1.3981    3.4654 C.2       1 <0>        -0.0018
      8 C7         -0.0314   -1.9261    4.4783 C.2       1 <0>        -0.2188
      9 C8          0.5841   -2.1240    5.7903 C.2       1 <0>         0.5599
     10 O1          1.7472   -1.8132    5.9699 O.2       1 <0>        -0.5263
     11 N1         -0.1365   -2.6506    6.8002 N.am      1 <0>        -0.5945
     12 O2          0.4595   -2.8422    8.0703 O.3       1 <0>        -0.3168
     13 C9          1.1251   -1.2677   -1.2126 C.2       1 <0>         0.4107
     14 O3          2.3095   -1.3556   -0.9656 O.2       1 <0>        -0.4581
     15 C10         0.5946   -1.8139   -2.4671 C.ar      1 <0>        -0.2376
     16 C11        -0.7721   -1.7083   -2.7570 C.ar      1 <0>        -0.0197
     17 C12        -1.2614   -2.2176   -3.9257 C.ar      1 <0>        -0.2150
     18 C13        -0.4039   -2.8414   -4.8291 C.ar      1 <0>         0.2501
     19 C14         0.9557   -2.9486   -4.5449 C.ar      1 <0>        -0.2148
     20 C15         1.4543   -2.4374   -3.3810 C.ar      1 <0>        -0.0053
     21 N2         -0.9059   -3.3584   -6.0164 N.pl3     1 <0>        -0.6264
     22 C16        -2.3354   -3.2472   -6.3172 C.3       1 <0>         0.0859
     23 C17        -0.0060   -4.0149   -6.9680 C.3       1 <0>         0.0853
     24 H2          0.9837    1.3725   -0.6098 H         1 <0>         0.0651
     25 H3         -0.4106    0.9293   -1.6236 H         1 <0>         0.0678
     26 H4         -0.6539    1.3552    0.0874 H         1 <0>         0.0712
     27 H5          1.7891   -0.3153    1.3357 H         1 <0>         0.1273
     28 H6         -1.4116   -2.5915    1.5147 H         1 <0>         0.0719
     29 H7         -1.8986   -1.5586    2.8801 H         1 <0>         0.0699
     30 H8         -1.8250   -0.8829    1.2350 H         1 <0>         0.0721
     31 H9          1.7232   -1.1223    3.6248 H         1 <0>         0.1353
     32 H10        -1.0634   -2.2019    4.3189 H         1 <0>         0.1355
     33 H11        -1.0633   -2.8983    6.6570 H         1 <0>         0.4090
     34 H12        -0.1350   -3.2249    8.7300 H         1 <0>         0.3880
     35 H13        -1.4377   -1.2251   -2.0571 H         1 <0>         0.1299
     36 H14        -2.3148   -2.1369   -4.1498 H         1 <0>         0.1291
     37 H15         1.6170   -3.4333   -5.2479 H         1 <0>         0.1289
     38 H16         2.5092   -2.5170   -3.1635 H         1 <0>         0.1322
     39 H17        -2.5223   -2.3180   -6.8554 H         1 <0>         0.0543
     40 H18        -2.6439   -4.0921   -6.9331 H         1 <0>         0.0711
     41 H19        -2.9036   -3.2490   -5.3871 H         1 <0>         0.0730
     42 H20         0.0495   -5.0794   -6.7405 H         1 <0>         0.0545
     43 H21        -0.3861   -3.8791   -7.9805 H         1 <0>         0.0713
     44 H22         0.9881   -3.5745   -6.8910 H         1 <0>         0.0733
@<TRIPOS>BOND
     1    1    2 1
     2    1   24 1
     3    1   25 1
     4    1   26 1
     5    2    3 1
     6    2    4 1
     7    2   13 1
     8    4    5 2
     9    4   27 1
    10    5    6 1
    11    5    7 1
    12    6   28 1
    13    6   29 1
    14    6   30 1
    15    7    8 2
    16    7   31 1
    17    8    9 1
    18    8   32 1
    19    9   10 2
    20    9   11 am
    21   11   12 1
    22   11   33 1
    23   12   34 1
    24   13   14 2
    25   13   15 1
    26   15   20 ar
    27   15   16 ar
    28   16   17 ar
    29   16   35 1
    30   17   18 ar
    31   17   36 1
    32   18   19 ar
    33   18   21 1
    34   19   20 ar
    35   19   37 1
    36   20   38 1
    37   21   22 1
    38   21   23 1
    39   22   39 1
    40   22   40 1
    41   22   41 1
    42   23   42 1
    43   23   43 1
    44   23   44 1
@<TRIPOS>MOLECULE
ZINC05579377
   44    44     0     0     0
SMALL
USER_CHARGES

@<TRIPOS>ATOM
      1 C1         -0.0492    1.9543   -0.7649 C.3       1 <0>        -0.1371
      2 C2         -0.1970    0.4706   -0.4219 C.3       1 <0>        -0.1146
      3 H1         -1.2419    0.1768   -0.5224 H         1 <0>         0.1068
      4 C3          0.6480   -0.3491   -1.3627 C.2       1 <0>        -0.0922
      5 C4          0.0955   -1.3410   -2.0632 C.2       1 <0>        -0.1239
      6 C5         -1.3398   -1.7287   -1.8172 C.3       1 <0>        -0.1255
      7 C6          0.8833   -2.0526   -3.0704 C.2       1 <0>        -0.0021
      8 C7          0.3236   -3.0577   -3.7802 C.2       1 <0>        -0.2183
      9 C8          1.1110   -3.7689   -4.7869 C.2       1 <0>         0.5601
     10 O1          2.2703   -3.4558   -4.9856 O.2       1 <0>        -0.5264
     11 N1          0.5528   -4.7710   -5.4945 N.am      1 <0>        -0.5945
     12 O2          1.3151   -5.4596   -6.4691 O.3       1 <0>        -0.3168
     13 C9          0.2569    0.2350    0.9957 C.2       1 <0>         0.4096
     14 O3          1.4170   -0.0363    1.2239 O.2       1 <0>        -0.4577
     15 C10        -0.7046    0.3339    2.1000 C.ar      1 <0>        -0.2382
     16 C11        -2.0461    0.6415    1.8381 C.ar      1 <0>        -0.0203
     17 C12        -2.9375    0.7320    2.8685 C.ar      1 <0>        -0.2146
     18 C13        -2.5146    0.5191    4.1787 C.ar      1 <0>         0.2502
     19 C14        -1.1816    0.2130    4.4437 C.ar      1 <0>        -0.2147
     20 C15        -0.2847    0.1153    3.4187 C.ar      1 <0>        -0.0054
     21 N2         -3.4245    0.6126    5.2239 N.pl3     1 <0>        -0.6263
     22 C16        -4.8267    0.9348    4.9477 C.3       1 <0>         0.0858
     23 C17        -2.9821    0.3891    6.6025 C.3       1 <0>         0.0852
     24 H2          0.9957    2.2481   -0.6644 H         1 <0>         0.0652
     25 H3         -0.3775    2.1247   -1.7902 H         1 <0>         0.0716
     26 H4         -0.6604    2.5472   -0.0844 H         1 <0>         0.0675
     27 H5          1.7008   -0.1336   -1.4699 H         1 <0>         0.1268
     28 H6         -1.9953   -1.0898   -2.4090 H         1 <0>         0.0735
     29 H7         -1.4896   -2.7692   -2.1053 H         1 <0>         0.0699
     30 H8         -1.5727   -1.6076   -0.7593 H         1 <0>         0.0703
     31 H9          1.9120   -1.7748   -3.2467 H         1 <0>         0.1354
     32 H10        -0.7051   -3.3356   -3.6039 H         1 <0>         0.1356
     33 H11        -0.3711   -5.0206   -5.3362 H         1 <0>         0.4091
     34 H12         0.8299   -6.1613   -6.9244 H         1 <0>         0.3881
     35 H13        -2.3747    0.8070    0.8227 H         1 <0>         0.1300
     36 H14        -3.9717    0.9694    2.6675 H         1 <0>         0.1292
     37 H15        -0.8579    0.0491    5.4609 H         1 <0>         0.1289
     38 H16         0.7476   -0.1264    3.6246 H         1 <0>         0.1321
     39 H17        -5.3859    0.0135    4.7847 H         1 <0>         0.0542
     40 H18        -5.2502    1.4716    5.7966 H         1 <0>         0.0711
     41 H19        -4.8873    1.5591    4.0562 H         1 <0>         0.0731
     42 H20        -2.6609    1.3349    7.0388 H         1 <0>         0.0546
     43 H21        -3.8065   -0.0193    7.1869 H         1 <0>         0.0713
     44 H22        -2.1497   -0.3145    6.6073 H         1 <0>         0.0732
@<TRIPOS>BOND
     1    1    2 1
     2    1   24 1
     3    1   25 1
     4    1   26 1
     5    2    3 1
     6    2    4 1
     7    2   13 1
     8    4    5 2
     9    4   27 1
    10    5    6 1
    11    5    7 1
    12    6   28 1
    13    6   29 1
    14    6   30 1
    15    7    8 2
    16    7   31 1
    17    8    9 1
    18    8   32 1
    19    9   10 2
    20    9   11 am
    21   11   12 1
    22   11   33 1
    23   12   34 1
    24   13   14 2
    25   13   15 1
    26   15   20 ar
    27   15   16 ar
    28   16   17 ar
    29   16   35 1
    30   17   18 ar
    31   17   36 1
    32   18   19 ar
    33   18   21 1
    34   19   20 ar
    35   19   37 1
    36   20   38 1
    37   21   22 1
    38   21   23 1
    39   22   39 1
    40   22   40 1
    41   22   41 1
    42   23   42 1
    43   23   43 1
    44   23   44 1
