@<TRIPOS>MOLECULE
ZINC13684484
   55    59     0     0     0
SMALL
USER_CHARGES
4-[4-[3-(2-pyridyl)-1H-pyrazol-4-yl]-2-pyridyl]-N-tetrahydropyran-4-yl-benzamide
@<TRIPOS>ATOM
      1 C1         -9.6818    4.7282  -10.3765 C.ar      1 <0>        -0.0755
      2 C2         -9.9540    5.0319   -9.0497 C.ar      1 <0>        -0.1624
      3 C3         -8.9548    4.8961   -8.1042 C.ar      1 <0>         0.1040
      4 N1         -7.7525    4.4784   -8.4455 N.ar      1 <0>        -0.4563
      5 C4         -7.4501    4.1828   -9.7032 C.ar      1 <0>         0.1901
      6 C5         -8.4095    4.2969  -10.7079 C.ar      1 <0>        -0.1395
      7 C6         -6.0825    3.7217  -10.0415 C.2       1 <0>         0.1398
      8 C7         -4.9000    4.0069   -9.3121 C.2       1 <0>        -0.1822
      9 C8         -3.8641    3.4016   -9.9594 C.2       1 <0>         0.0819
     10 N2         -4.3661    2.7617  -11.0345 N.pl3     1 <0>        -0.4628
     11 H1         -3.8395    2.2254  -11.6941 H         1 <0>         0.4547
     12 N3         -5.7492    2.9748  -11.0714 N.2       1 <0>        -0.2689
     13 C9         -4.8067    4.8197   -8.0756 C.ar      1 <0>         0.0622
     14 C10        -5.3941    6.0876   -8.0041 C.ar      1 <0>        -0.1353
     15 C11        -5.2869    6.8150   -6.8361 C.ar      1 <0>         0.1082
     16 N4         -4.6462    6.3311   -5.7908 N.ar      1 <0>        -0.4773
     17 C12        -4.0684    5.1361   -5.8135 C.ar      1 <0>         0.1595
     18 C13        -4.1306    4.3398   -6.9522 C.ar      1 <0>        -0.1501
     19 C14        -3.3546    4.6428   -4.6107 C.ar      1 <0>        -0.0149
     20 C15        -3.2883    5.4361   -3.4654 C.ar      1 <0>        -0.0881
     21 C16        -2.6258    4.9790   -2.3481 C.ar      1 <0>        -0.0614
     22 C17        -2.0201    3.7204   -2.3619 C.ar      1 <0>        -0.1312
     23 C18        -2.0826    2.9291   -3.5112 C.ar      1 <0>        -0.0881
     24 C19        -2.7497    3.3860   -4.6258 C.ar      1 <0>        -0.1110
     25 C20        -1.3085    3.2291   -1.1636 C.2       1 <0>         0.5603
     26 O1         -1.2500    3.9203   -0.1653 O.2       1 <0>        -0.5325
     27 N5         -0.7242    2.0146   -1.1775 N.am      1 <0>        -0.7230
     28 C21        -0.0187    1.5275    0.0104 C.3       1 <0>         0.1438
     29 C22         1.4223    2.0468   -0.0005 C.3       1 <0>        -0.1672
     30 C23         2.1738    1.4693    1.2018 C.3       1 <0>         0.0627
     31 O2          2.1285    0.0420    1.1493 O.3       1 <0>        -0.3812
     32 C24         0.8084   -0.5023    1.2042 C.3       1 <0>         0.0640
     33 C25         0.0021   -0.0041    0.0020 C.3       1 <0>        -0.1645
     34 H2        -10.4460    4.8268  -11.1333 H         1 <0>         0.1396
     35 H3        -10.9371    5.3714   -8.7588 H         1 <0>         0.1390
     36 H4         -9.1636    5.1313   -7.0710 H         1 <0>         0.1603
     37 H5         -8.1632    4.0524  -11.7306 H         1 <0>         0.1397
     38 H6         -2.8261    3.4280   -9.6623 H         1 <0>         0.1863
     39 H7         -5.9250    6.4924   -8.8530 H         1 <0>         0.1255
     40 H8         -5.7390    7.7939   -6.7761 H         1 <0>         0.1566
     41 H9         -3.6634    3.3662   -6.9672 H         1 <0>         0.1339
     42 H10        -3.7564    6.4093   -3.4550 H         1 <0>         0.1440
     43 H11        -2.5749    5.5932   -1.4612 H         1 <0>         0.1398
     44 H12        -1.6112    1.9575   -3.5243 H         1 <0>         0.1276
     45 H13        -2.8014    2.7727   -5.5132 H         1 <0>         0.1327
     46 H14        -0.7708    1.4631   -1.9741 H         1 <0>         0.4002
     47 H15        -0.5266    1.8804    0.9080 H         1 <0>         0.0922
     48 H16         1.9148    1.7353   -0.9217 H         1 <0>         0.0745
     49 H17         1.4178    3.1351    0.0612 H         1 <0>         0.0807
     50 H18         1.7049    1.8143    2.1234 H         1 <0>         0.0549
     51 H19         3.2116    1.8013    1.1754 H         1 <0>         0.0988
     52 H20         0.3216   -0.1832    2.1258 H         1 <0>         0.0551
     53 H21         0.8624   -1.5907    1.1798 H         1 <0>         0.1004
     54 H22        -1.0181   -0.3825    0.0655 H         1 <0>         0.0819
     55 H23         0.4658   -0.3570   -0.9191 H         1 <0>         0.0786
@<TRIPOS>BOND
     1    1    6 ar
     2    1    2 ar
     3    1   34 1
     4    2    3 ar
     5    2   35 1
     6    3    4 ar
     7    3   36 1
     8    4    5 ar
     9    5    6 ar
    10    5    7 1
    11    6   37 1
    12    7   12 2
    13    7    8 1
    14    8    9 2
    15    8   13 1
    16    9   10 1
    17    9   38 1
    18   10   11 1
    19   10   12 1
    20   13   18 ar
    21   13   14 ar
    22   14   15 ar
    23   14   39 1
    24   15   16 ar
    25   15   40 1
    26   16   17 ar
    27   17   18 ar
    28   17   19 1
    29   18   41 1
    30   19   24 ar
    31   19   20 ar
    32   20   21 ar
    33   20   42 1
    34   21   22 ar
    35   21   43 1
    36   22   23 ar
    37   22   25 1
    38   23   24 ar
    39   23   44 1
    40   24   45 1
    41   25   26 2
    42   25   27 am
    43   27   28 1
    44   27   46 1
    45   28   33 1
    46   28   29 1
    47   28   47 1
    48   29   30 1
    49   29   48 1
    50   29   49 1
    51   30   31 1
    52   30   50 1
    53   30   51 1
    54   31   32 1
    55   32   33 1
    56   32   52 1
    57   32   53 1
    58   33   54 1
    59   33   55 1
