@<TRIPOS>MOLECULE
ZINC03815700
   43    46     0     0     0
SMALL
USER_CHARGES

@<TRIPOS>ATOM
      1 C1         -0.4417    2.5108    0.1274 C.3       1 <0>        -0.4980
      2 S1         -0.2285    0.7138    0.0013 S.o       1 <0>         1.3317
      3 O1          0.3381    0.2184    1.2066 O.2       1 <0>        -0.8500
      4 C2         -1.8753    0.0872    0.0153 C.ar      1 <0>        -0.4539
      5 C3         -2.4807   -0.2316    1.2179 C.ar      1 <0>        -0.0505
      6 C4         -3.7698   -0.7226    1.2359 C.ar      1 <0>        -0.0905
      7 C5         -4.4635   -0.8973    0.0374 C.ar      1 <0>         0.0183
      8 C6         -3.8471   -0.5733   -1.1722 C.ar      1 <0>        -0.1282
      9 C7         -2.5593   -0.0786   -1.1759 C.ar      1 <0>        -0.0372
     10 C8         -5.8450   -1.4235    0.0492 C.2       1 <0>         0.2539
     11 N1         -6.6187   -1.6414   -1.0552 N.pl3     1 <0>        -0.5494
     12 H1         -6.3641   -1.4808   -1.9773 H         1 <0>         0.4258
     13 C9         -7.8254   -2.1307   -0.6157 C.2       1 <0>         0.0559
     14 C10        -7.7421   -2.1946    0.7659 C.2       1 <0>         0.0600
     15 N2         -6.5217   -1.7612    1.1224 N.2       1 <0>        -0.4460
     16 C11        -8.8052   -2.6624    1.6841 C.ar      1 <0>         0.0397
     17 C12        -9.5683   -3.7960    1.3824 C.ar      1 <0>        -0.1547
     18 C13       -10.5481   -4.1969    2.2660 C.ar      1 <0>         0.1020
     19 N3        -10.7699   -3.5273    3.3814 N.ar      1 <0>        -0.4829
     20 C14       -10.0734   -2.4536    3.7038 C.ar      1 <0>         0.1009
     21 C15        -9.0708   -1.9865    2.8804 C.ar      1 <0>        -0.1469
     22 C16        -8.9814   -2.5126   -1.4503 C.ar      1 <0>        -0.0400
     23 C17       -10.2631   -2.0665   -1.1192 C.ar      1 <0>        -0.0563
     24 C18       -11.3392   -2.4265   -1.9026 C.ar      1 <0>        -0.1471
     25 C19       -11.1511   -3.2299   -3.0163 C.ar      1 <0>         0.1129
     26 C20        -9.8817   -3.6756   -3.3498 C.ar      1 <0>        -0.1491
     27 C21        -8.7972   -3.3169   -2.5775 C.ar      1 <0>        -0.0765
     28 F1        -12.2093   -3.5802   -3.7797 F         1 <0>        -0.1335
     29 H2          0.5355    2.9936    0.1264 H         1 <0>         0.1086
     30 H3         -1.0243    2.8681   -0.7218 H         1 <0>         0.1118
     31 H4         -0.9645    2.7506    1.0533 H         1 <0>         0.0820
     32 H5         -1.9427   -0.0960    2.1446 H         1 <0>         0.1340
     33 H6         -4.2409   -0.9717    2.1752 H         1 <0>         0.1409
     34 H7         -4.3783   -0.7065   -2.1030 H         1 <0>         0.1252
     35 H8         -2.0825    0.1760   -2.1109 H         1 <0>         0.1447
     36 H9         -9.3927   -4.3483    0.4711 H         1 <0>         0.1333
     37 H10       -11.1422   -5.0705    2.0420 H         1 <0>         0.1579
     38 H11       -10.2890   -1.9361    4.6268 H         1 <0>         0.1588
     39 H12        -8.5017   -1.1100    3.1527 H         1 <0>         0.1379
     40 H13       -10.4110   -1.4411   -0.2513 H         1 <0>         0.1357
     41 H14       -12.3306   -2.0822   -1.6477 H         1 <0>         0.1434
     42 H15        -9.7412   -4.3013   -4.2187 H         1 <0>         0.1424
     43 H16        -7.8079   -3.6609   -2.8410 H         1 <0>         0.1331
@<TRIPOS>BOND
     1    1    2 1
     2    1   29 1
     3    1   30 1
     4    1   31 1
     5    2    3 2
     6    2    4 1
     7    4    9 ar
     8    4    5 ar
     9    5    6 ar
    10    5   32 1
    11    6    7 ar
    12    6   33 1
    13    7    8 ar
    14    7   10 1
    15    8    9 ar
    16    8   34 1
    17    9   35 1
    18   10   15 2
    19   10   11 1
    20   11   12 1
    21   11   13 1
    22   13   14 2
    23   13   22 1
    24   14   15 1
    25   14   16 1
    26   16   21 ar
    27   16   17 ar
    28   17   18 ar
    29   17   36 1
    30   18   19 ar
    31   18   37 1
    32   19   20 ar
    33   20   21 ar
    34   20   38 1
    35   21   39 1
    36   22   27 ar
    37   22   23 ar
    38   23   24 ar
    39   23   40 1
    40   24   25 ar
    41   24   41 1
    42   25   26 ar
    43   25   28 1
    44   26   27 ar
    45   26   42 1
    46   27   43 1
@<TRIPOS>MOLECULE
ZINC18274812
   43    46     0     0     0
SMALL
USER_CHARGES

@<TRIPOS>ATOM
      1 C1          0.0458    2.4645   -0.3714 C.3       1 <0>        -0.4977
      2 S1          0.1034    0.6635   -0.1624 S.o       1 <0>         1.3328
      3 O1          0.9995    0.3374    0.8912 O.2       1 <0>        -0.8522
      4 C2          0.9248    0.0922   -1.6127 C.ar      1 <0>        -0.4531
      5 C3          0.1894   -0.2245   -2.7411 C.ar      1 <0>        -0.0385
      6 C4          0.8263   -0.6720   -3.8801 C.ar      1 <0>        -0.0921
      7 C5          2.2157   -0.8050   -3.8925 C.ar      1 <0>         0.0171
      8 C6          2.9515   -0.4838   -2.7508 C.ar      1 <0>        -0.1253
      9 C7          2.3027   -0.0324   -1.6200 C.ar      1 <0>        -0.0497
     10 C8          2.9049   -1.2844   -5.1094 C.2       1 <0>         0.2582
     11 N1          4.2515   -1.4590   -5.2384 N.pl3     1 <0>        -0.5486
     12 H1          4.9216   -1.2936   -4.5568 H         1 <0>         0.4252
     13 C9          4.4814   -1.9147   -6.5171 C.2       1 <0>         0.0337
     14 C10         3.2416   -2.0017   -7.1294 C.2       1 <0>         0.0807
     15 N2          2.3171   -1.6154   -6.2370 N.2       1 <0>        -0.4488
     16 C11         2.9826   -2.4473   -8.5186 C.ar      1 <0>        -0.0206
     17 C12         3.6496   -3.5590   -9.0325 C.ar      1 <0>        -0.0694
     18 C13         3.4051   -3.9700  -10.3265 C.ar      1 <0>        -0.1511
     19 C14         2.4988   -3.2799  -11.1154 C.ar      1 <0>         0.1060
     20 C15         1.8337   -2.1747  -10.6093 C.ar      1 <0>        -0.1526
     21 C16         2.0668   -1.7598   -9.3145 C.ar      1 <0>        -0.0599
     22 F1          2.2634   -3.6856  -12.3824 F         1 <0>        -0.1371
     23 C17         5.7881   -2.2443   -7.1163 C.ar      1 <0>         0.0226
     24 C18         6.1399   -1.7662   -8.3862 C.ar      1 <0>        -0.1423
     25 C19         7.3716   -2.0992   -8.9074 C.ar      1 <0>         0.1081
     26 N3          8.2131   -2.8565   -8.2286 N.ar      1 <0>        -0.4784
     27 C20         7.9224   -3.3278   -7.0303 C.ar      1 <0>         0.1071
     28 C21         6.7158   -3.0398   -6.4296 C.ar      1 <0>        -0.1652
     29 H2          1.0609    2.8540   -0.4489 H         1 <0>         0.0810
     30 H3         -0.5069    2.7075   -1.2790 H         1 <0>         0.1130
     31 H4         -0.4514    2.9143    0.4881 H         1 <0>         0.1088
     32 H5         -0.8856   -0.1215   -2.7301 H         1 <0>         0.1470
     33 H6          0.2512   -0.9192   -4.7602 H         1 <0>         0.1462
     34 H7          4.0268   -0.5845   -2.7539 H         1 <0>         0.1202
     35 H8          2.8713    0.2203   -0.7373 H         1 <0>         0.1322
     36 H9          4.3566   -4.0971   -8.4186 H         1 <0>         0.1287
     37 H10         3.9211   -4.8308  -10.7253 H         1 <0>         0.1387
     38 H11         1.1282   -1.6400  -11.2280 H         1 <0>         0.1401
     39 H12         1.5446   -0.9009   -8.9194 H         1 <0>         0.1377
     40 H13         5.4562   -1.1467   -8.9476 H         1 <0>         0.1400
     41 H14         7.6520   -1.7358   -9.8850 H         1 <0>         0.1626
     42 H15         8.6418   -3.9441   -6.5116 H         1 <0>         0.1610
     43 H16         6.4868   -3.4248   -5.4469 H         1 <0>         0.1340
@<TRIPOS>BOND
     1    1    2 1
     2    1   29 1
     3    1   30 1
     4    1   31 1
     5    2    3 2
     6    2    4 1
     7    4    9 ar
     8    4    5 ar
     9    5    6 ar
    10    5   32 1
    11    6    7 ar
    12    6   33 1
    13    7    8 ar
    14    7   10 1
    15    8    9 ar
    16    8   34 1
    17    9   35 1
    18   10   15 2
    19   10   11 1
    20   11   12 1
    21   11   13 1
    22   13   14 2
    23   13   23 1
    24   14   15 1
    25   14   16 1
    26   16   21 ar
    27   16   17 ar
    28   17   18 ar
    29   17   36 1
    30   18   19 ar
    31   18   37 1
    32   19   20 ar
    33   19   22 1
    34   20   21 ar
    35   20   38 1
    36   21   39 1
    37   23   28 ar
    38   23   24 ar
    39   24   25 ar
    40   24   40 1
    41   25   26 ar
    42   25   41 1
    43   26   27 ar
    44   27   28 ar
    45   27   42 1
    46   28   43 1
@<TRIPOS>MOLECULE
ZINC18274812
   43    46     0     0     0
SMALL
USER_CHARGES

@<TRIPOS>ATOM
      1 C1          0.0761    2.5207   -0.3946 C.3       1 <0>        -0.4977
      2 S1          0.1067    0.7194   -0.1829 S.o       1 <0>         1.3328
      3 O1          0.9925    0.3819    0.8757 O.2       1 <0>        -0.8523
      4 C2          0.9273    0.1342   -1.6283 C.ar      1 <0>        -0.4535
      5 C3          0.1933   -0.1734   -2.7600 C.ar      1 <0>        -0.0382
      6 C4          0.8295   -0.6320   -3.8950 C.ar      1 <0>        -0.0929
      7 C5          2.2169   -0.7850   -3.8999 C.ar      1 <0>         0.0183
      8 C6          2.9514   -0.4724   -2.7550 C.ar      1 <0>        -0.1257
      9 C7          2.3033   -0.0102   -1.6282 C.ar      1 <0>        -0.0496
     10 C8          2.9053   -1.2765   -5.1125 C.2       1 <0>         0.2536
     11 N1          4.2517   -1.4710   -5.2346 N.pl3     1 <0>        -0.5504
     12 H1          4.9205   -1.3136   -4.5499 H         1 <0>         0.4255
     13 C9          4.4817   -1.9314   -6.5089 C.2       1 <0>         0.0556
     14 C10         3.2446   -2.0022   -7.1288 C.2       1 <0>         0.0602
     15 N2          2.3192   -1.6008   -6.2417 N.2       1 <0>        -0.4443
     16 C11         2.9879   -2.4463   -8.5176 C.ar      1 <0>         0.0401
     17 C12         3.6482   -3.5593   -9.0502 C.ar      1 <0>        -0.1549
     18 C13         3.3789   -3.9386  -10.3482 C.ar      1 <0>         0.1021
     19 N3          2.5133   -3.2676  -11.0845 N.ar      1 <0>        -0.4831
     20 C14         1.8693   -2.2129  -10.6212 C.ar      1 <0>         0.1008
     21 C15         2.0741   -1.7682   -9.3321 C.ar      1 <0>        -0.1466
     22 C16         5.7882   -2.2812   -7.1001 C.ar      1 <0>        -0.0406
     23 C17         6.1350   -1.8042   -8.3665 C.ar      1 <0>        -0.0561
     24 C18         7.3568   -2.1344   -8.9137 C.ar      1 <0>        -0.1471
     25 C19         8.2399   -2.9383   -8.2101 C.ar      1 <0>         0.1131
     26 C20         7.9012   -3.4146   -6.9533 C.ar      1 <0>        -0.1492
     27 C21         6.6848   -3.0860   -6.3932 C.ar      1 <0>        -0.0767
     28 F1          9.4352   -3.2593   -8.7516 F         1 <0>        -0.1334
     29 H2          1.0971    2.8954   -0.4674 H         1 <0>         0.0810
     30 H3         -0.4683    2.7703   -1.3054 H         1 <0>         0.1130
     31 H4         -0.4189    2.9788    0.4616 H         1 <0>         0.1087
     32 H5         -0.8802   -0.0546   -2.7549 H         1 <0>         0.1468
     33 H6          0.2554   -0.8725   -4.7775 H         1 <0>         0.1457
     34 H7          4.0251   -0.5889   -2.7522 H         1 <0>         0.1204
     35 H8          2.8708    0.2356   -0.7429 H         1 <0>         0.1321
     36 H9          4.3583   -4.1127   -8.4536 H         1 <0>         0.1329
     37 H10         3.8834   -4.7962  -10.7681 H         1 <0>         0.1577
     38 H11         1.1696   -1.6933  -11.2591 H         1 <0>         0.1590
     39 H12         1.5402   -0.9072   -8.9580 H         1 <0>         0.1385
     40 H13         5.4474   -1.1783   -8.9159 H         1 <0>         0.1360
     41 H14         7.6261   -1.7662   -9.8926 H         1 <0>         0.1436
     42 H15         8.5933   -4.0406   -6.4097 H         1 <0>         0.1423
     43 H16         6.4240   -3.4537   -5.4118 H         1 <0>         0.1327
@<TRIPOS>BOND
     1    1    2 1
     2    1   29 1
     3    1   30 1
     4    1   31 1
     5    2    3 2
     6    2    4 1
     7    4    9 ar
     8    4    5 ar
     9    5    6 ar
    10    5   32 1
    11    6    7 ar
    12    6   33 1
    13    7    8 ar
    14    7   10 1
    15    8    9 ar
    16    8   34 1
    17    9   35 1
    18   10   15 2
    19   10   11 1
    20   11   12 1
    21   11   13 1
    22   13   14 2
    23   13   22 1
    24   14   15 1
    25   14   16 1
    26   16   21 ar
    27   16   17 ar
    28   17   18 ar
    29   17   36 1
    30   18   19 ar
    31   18   37 1
    32   19   20 ar
    33   20   21 ar
    34   20   38 1
    35   21   39 1
    36   22   27 ar
    37   22   23 ar
    38   23   24 ar
    39   23   40 1
    40   24   25 ar
    41   24   41 1
    42   25   26 ar
    43   25   28 1
    44   26   27 ar
    45   26   42 1
    46   27   43 1
@<TRIPOS>MOLECULE
ZINC27110251
   50    54     0     0     0
SMALL
USER_CHARGES
7-ethoxy-4-[2-(6-methyl-2-pyridyl)-5,6-dihydro-4H-pyrrolo[2,1-e]pyrazol-3-yl]quinoline
@<TRIPOS>ATOM
      1 C1          4.8127    4.1887   -0.0235 C.3       1 <0>        -0.1551
      2 C2          3.4177    3.5606   -0.0131 C.3       1 <0>         0.0519
      3 O1          3.5364    2.1365   -0.0215 O.3       1 <0>        -0.3126
      4 C3          2.3815    1.4214   -0.0139 C.ar      1 <0>         0.1485
      5 C4          1.1542    2.0909    0.0023 C.ar      1 <0>        -0.1975
      6 C5         -0.0169    1.3973    0.0097 C.ar      1 <0>        -0.0335
      7 C6          0.0021   -0.0041    0.0020 C.ar      1 <0>        -0.1037
      8 C7         -1.2002   -0.7559    0.0100 C.ar      1 <0>         0.0971
      9 C8         -1.0991   -2.1421    0.0039 C.ar      1 <0>        -0.1852
     10 C9          0.1541   -2.7391   -0.0114 C.ar      1 <0>         0.1464
     11 N1          1.2591   -2.0311   -0.0195 N.ar      1 <0>        -0.4857
     12 C10         1.2388   -0.6932   -0.0135 C.ar      1 <0>         0.1709
     13 C11         2.4330    0.0462   -0.0214 C.ar      1 <0>        -0.1482
     14 C12        -2.5196   -0.0863    0.0265 C.2       1 <0>        -0.1753
     15 C13        -3.2376    0.2778    1.1331 C.2       1 <0>         0.0846
     16 N2         -4.3774    0.8616    0.7242 N.pl3     1 <0>        -0.3861
     17 N3         -4.4075    0.8747   -0.6810 N.2       1 <0>        -0.2469
     18 C14        -3.3073    0.3209   -1.1367 C.2       1 <0>         0.1422
     19 C15        -2.9361    0.1393   -2.5601 C.ar      1 <0>         0.2017
     20 C16        -3.9332    0.0781   -3.5323 C.ar      1 <0>        -0.1476
     21 C17        -3.5711   -0.0917   -4.8569 C.ar      1 <0>        -0.0715
     22 C18        -2.2220   -0.1949   -5.1671 C.ar      1 <0>        -0.1640
     23 C19        -1.2857   -0.1258   -4.1525 C.ar      1 <0>         0.1360
     24 N4         -1.6570    0.0418   -2.8993 N.ar      1 <0>        -0.4536
     25 C20         0.1800   -0.2369   -4.4849 C.3       1 <0>        -0.1083
     26 C21        -5.1938    1.2845    1.8765 C.3       1 <0>         0.1238
     27 C22        -4.6361    0.5071    3.0874 C.3       1 <0>        -0.1265
     28 C23        -3.1788    0.2431    2.6465 C.3       1 <0>        -0.0660
     29 H1          4.7213    5.2849   -0.0170 H         1 <0>         0.0796
     30 H2          5.3511    3.8710   -0.9286 H         1 <0>         0.0680
     31 H3          5.3686    3.8618    0.8676 H         1 <0>         0.0679
     32 H4          2.8793    3.8783    0.8920 H         1 <0>         0.0629
     33 H5          2.8617    3.8875   -0.9042 H         1 <0>         0.0632
     34 H6          1.1351    3.1707    0.0083 H         1 <0>         0.1294
     35 H7         -0.9588    1.9257    0.0171 H         1 <0>         0.1237
     36 H8         -1.9908   -2.7515    0.0103 H         1 <0>         0.1306
     37 H9          0.2217   -3.8170   -0.0171 H         1 <0>         0.1572
     38 H10         3.3861   -0.4616   -0.0336 H         1 <0>         0.1409
     39 H11        -4.9738    0.1617   -3.2555 H         1 <0>         0.1385
     40 H12        -4.3212   -0.1424   -5.6322 H         1 <0>         0.1398
     41 H13        -1.9069   -0.3283   -6.1914 H         1 <0>         0.1379
     42 H14         0.7722   -0.1610   -3.5611 H         1 <0>         0.0780
     43 H15         0.4632    0.5759   -5.1699 H         1 <0>         0.0791
     44 H16         0.3743   -1.2067   -4.9664 H         1 <0>         0.0800
     45 H17        -5.0945    2.3709    2.0172 H         1 <0>         0.0924
     46 H18        -6.2486    1.0338    1.6903 H         1 <0>         0.0962
     47 H19        -4.7094    1.1321    3.9897 H         1 <0>         0.1067
     48 H20        -5.2190   -0.4146    3.2315 H         1 <0>         0.0917
     49 H21        -2.8193   -0.7426    2.9769 H         1 <0>         0.1001
     50 H22        -2.4910    1.0232    3.0047 H         1 <0>         0.1007
@<TRIPOS>BOND
     1    1    2 1
     2    1   29 1
     3    1   30 1
     4    1   31 1
     5    2    3 1
     6    2   32 1
     7    2   33 1
     8    3    4 1
     9    4   13 ar
    10    4    5 ar
    11    5    6 ar
    12    5   34 1
    13    6    7 ar
    14    6   35 1
    15    7   12 ar
    16    7    8 ar
    17    8    9 ar
    18    8   14 1
    19    9   10 ar
    20    9   36 1
    21   10   11 ar
    22   10   37 1
    23   11   12 ar
    24   12   13 ar
    25   13   38 1
    26   14   18 1
    27   14   15 2
    28   15   28 1
    29   15   16 1
    30   16   17 1
    31   16   26 1
    32   17   18 2
    33   18   19 1
    34   19   24 ar
    35   19   20 ar
    36   20   21 ar
    37   20   39 1
    38   21   22 ar
    39   21   40 1
    40   22   23 ar
    41   22   41 1
    42   23   24 ar
    43   23   25 1
    44   25   42 1
    45   25   43 1
    46   25   44 1
    47   26   27 1
    48   26   45 1
    49   26   46 1
    50   27   28 1
    51   27   47 1
    52   27   48 1
    53   28   49 1
    54   28   50 1
@<TRIPOS>MOLECULE
ZINC27182176
   40    44     0     0     0
SMALL
USER_CHARGES
4-[2-(2-pyridyl)-5,6-dihydro-4H-pyrrolo[2,1-e]pyrazol-3-yl]quinoline
@<TRIPOS>ATOM
      1 C1         -0.0126    1.0758    0.0080 C.ar      1 <0>        -0.1241
      2 C2          1.1891    1.7801    0.0003 C.ar      1 <0>        -0.1000
      3 C3          1.2049    3.1412    0.0070 C.ar      1 <0>        -0.0977
      4 C4         -0.0075    3.8529    0.0223 C.ar      1 <0>         0.1312
      5 C5         -1.2265    3.1333    0.0306 C.ar      1 <0>        -0.0727
      6 C6         -1.2065    1.7326    0.0172 C.ar      1 <0>        -0.0762
      7 C7         -2.4478    3.8541    0.0462 C.ar      1 <0>         0.0841
      8 C8         -2.3814    5.2423    0.0520 C.ar      1 <0>        -0.1727
      9 C9         -1.1431    5.8702    0.0426 C.ar      1 <0>         0.1339
     10 N1         -0.0207    5.1901    0.0287 N.ar      1 <0>        -0.4803
     11 C10        -3.7498    3.1513    0.0558 C.2       1 <0>        -0.1736
     12 C11        -4.4801    2.7682   -1.0363 C.2       1 <0>         0.0844
     13 N2         -5.5966    2.1564   -0.6047 N.pl3     1 <0>        -0.3860
     14 N3         -5.5988    2.1440    0.8008 N.2       1 <0>        -0.2471
     15 C12        -4.5039    2.7252    1.2345 C.2       1 <0>         0.1410
     16 C13        -4.1090    2.9165    2.6502 C.ar      1 <0>         0.1972
     17 C14        -5.0878    2.9534    3.6421 C.ar      1 <0>        -0.1406
     18 C15        -4.7036    3.1322    4.9593 C.ar      1 <0>        -0.0751
     19 C16        -3.3516    3.2685    5.2426 C.ar      1 <0>        -0.1634
     20 C17        -2.4342    3.2223    4.2096 C.ar      1 <0>         0.1053
     21 N4         -2.8262    3.0458    2.9640 N.ar      1 <0>        -0.4541
     22 C18        -6.4246    1.7121   -1.7405 C.3       1 <0>         0.1237
     23 C19        -5.9105    2.5019   -2.9626 C.3       1 <0>        -0.1265
     24 C20        -4.4518    2.8028   -2.5506 C.3       1 <0>        -0.0659
     25 H1          0.0021   -0.0041    0.0020 H         1 <0>         0.1228
     26 H2          2.1230    1.2377   -0.0115 H         1 <0>         0.1274
     27 H3          2.1452    3.6723    0.0008 H         1 <0>         0.1333
     28 H4         -2.1322    1.1763    0.0186 H         1 <0>         0.1193
     29 H5         -3.2878    5.8294    0.0635 H         1 <0>         0.1309
     30 H6         -1.1022    6.9494    0.0473 H         1 <0>         0.1566
     31 H7         -6.1313    2.8443    3.3860 H         1 <0>         0.1390
     32 H8         -5.4393    3.1654    5.7493 H         1 <0>         0.1397
     33 H9         -3.0196    3.4098    6.2606 H         1 <0>         0.1389
     34 H10        -1.3816    3.3277    4.4269 H         1 <0>         0.1593
     35 H11        -6.3009    0.6284   -1.8826 H         1 <0>         0.0927
     36 H12        -7.4814    1.9365   -1.5338 H         1 <0>         0.0962
     37 H13        -5.9858    1.8743   -3.8629 H         1 <0>         0.1069
     38 H14        -6.5190    3.4085   -3.0957 H         1 <0>         0.0916
     39 H15        -4.1236    3.7968   -2.8886 H         1 <0>         0.0996
     40 H16        -3.7518    2.0398   -2.9218 H         1 <0>         0.1011
@<TRIPOS>BOND
     1    1    6 ar
     2    1    2 ar
     3    1   25 1
     4    2    3 ar
     5    2   26 1
     6    3    4 ar
     7    3   27 1
     8    4   10 ar
     9    4    5 ar
    10    5    6 ar
    11    5    7 ar
    12    6   28 1
    13    7    8 ar
    14    7   11 1
    15    8    9 ar
    16    8   29 1
    17    9   10 ar
    18    9   30 1
    19   11   15 1
    20   11   12 2
    21   12   24 1
    22   12   13 1
    23   13   14 1
    24   13   22 1
    25   14   15 2
    26   15   16 1
    27   16   21 ar
    28   16   17 ar
    29   17   18 ar
    30   17   31 1
    31   18   19 ar
    32   18   32 1
    33   19   20 ar
    34   19   33 1
    35   20   21 ar
    36   20   34 1
    37   22   23 1
    38   22   35 1
    39   22   36 1
    40   23   24 1
    41   23   37 1
    42   23   38 1
    43   24   39 1
    44   24   40 1
@<TRIPOS>MOLECULE
ZINC13526637
   31    33     0     0     0
SMALL
USER_CHARGES

@<TRIPOS>ATOM
      1 C1         -0.0184    1.5028    0.0103 C.3       1 <0>        -0.1067
      2 C2          0.0021   -0.0041    0.0020 C.ar      1 <0>         0.1404
      3 C3          0.0056   -0.6793   -1.2050 C.ar      1 <0>        -0.1635
      4 C4          0.0249   -2.0673   -1.2096 C.ar      1 <0>        -0.0652
      5 C5          0.0401   -2.7321    0.0035 C.ar      1 <0>        -0.1672
      6 C6          0.0355   -1.9879    1.1844 C.ar      1 <0>         0.1825
      7 N1          0.0218   -0.6595    1.1443 N.ar      1 <0>        -0.4494
      8 C7          0.0510   -2.6816    2.4880 C.2       1 <0>         0.1366
      9 C8          0.5162   -2.1684    3.6913 C.2       1 <0>        -0.1554
     10 C9          0.3405   -3.1652    4.6667 C.2       1 <0>         0.0650
     11 N2         -0.1944   -4.2134    4.0989 N.2       1 <0>        -0.2718
     12 N3         -0.3943   -3.9456    2.7397 N.pl3     1 <0>        -0.4630
     13 H1         -0.7806   -4.5535    2.0900 H         1 <0>         0.4421
     14 C10         1.0917   -0.8190    3.9074 C.ar      1 <0>         0.0006
     15 C11         2.1009   -0.3470    3.0695 C.ar      1 <0>        -0.0567
     16 C12         2.6334    0.9092    3.2744 C.ar      1 <0>        -0.1518
     17 C13         2.1666    1.7012    4.3110 C.ar      1 <0>         0.0943
     18 C14         1.1641    1.2360    5.1466 C.ar      1 <0>        -0.1516
     19 C15         0.6213   -0.0164    4.9455 C.ar      1 <0>        -0.0786
     20 F1          2.6910    2.9306    4.5079 F         1 <0>        -0.1425
     21 H2          1.0042    1.8801    0.0026 H         1 <0>         0.0818
     22 H3         -0.5455    1.8639   -0.8728 H         1 <0>         0.0777
     23 H4         -0.5286    1.8543    0.9071 H         1 <0>         0.0801
     24 H5         -0.0069   -0.1316   -2.1357 H         1 <0>         0.1401
     25 H6          0.0276   -2.6161   -2.1398 H         1 <0>         0.1413
     26 H7          0.0549   -3.8115    0.0365 H         1 <0>         0.1327
     27 H8          0.6039   -3.0792    5.7105 H         1 <0>         0.1924
     28 H9          2.4655   -0.9637    2.2614 H         1 <0>         0.1188
     29 H10         3.4155    1.2756    2.6260 H         1 <0>         0.1311
     30 H11         0.8039    1.8565    5.9538 H         1 <0>         0.1345
     31 H12        -0.1638   -0.3761    5.5942 H         1 <0>         0.1315
@<TRIPOS>BOND
     1    1    2 1
     2    1   21 1
     3    1   22 1
     4    1   23 1
     5    2    7 ar
     6    2    3 ar
     7    3    4 ar
     8    3   24 1
     9    4    5 ar
    10    4   25 1
    11    5    6 ar
    12    5   26 1
    13    6    7 ar
    14    6    8 1
    15    8   12 1
    16    8    9 2
    17    9   10 1
    18    9   14 1
    19   10   11 2
    20   10   27 1
    21   11   12 1
    22   12   13 1
    23   14   19 ar
    24   14   15 ar
    25   15   16 ar
    26   15   28 1
    27   16   17 ar
    28   16   29 1
    29   17   18 ar
    30   17   20 1
    31   18   19 ar
    32   18   30 1
    33   19   31 1
@<TRIPOS>MOLECULE
ZINC13526637
   31    33     0     0     0
SMALL
USER_CHARGES

@<TRIPOS>ATOM
      1 C1         -0.0184    1.5028    0.0103 C.3       1 <0>        -0.1045
      2 C2          0.0021   -0.0041    0.0020 C.ar      1 <0>         0.1335
      3 C3          0.0056   -0.6794   -1.2046 C.ar      1 <0>        -0.1645
      4 C4          0.0249   -2.0670   -1.2080 C.ar      1 <0>        -0.0723
      5 C5          0.0401   -2.7306    0.0065 C.ar      1 <0>        -0.1477
      6 C6          0.0355   -1.9865    1.1848 C.ar      1 <0>         0.1971
      7 N1          0.0218   -0.6599    1.1445 N.ar      1 <0>        -0.4545
      8 C7          0.0515   -2.6820    2.4936 C.2       1 <0>         0.1355
      9 C8          0.5291   -2.1483    3.7172 C.2       1 <0>        -0.1716
     10 C9          0.3650   -3.1051    4.6731 C.2       1 <0>         0.0738
     11 N2         -0.1872   -4.1866    4.0852 N.pl3     1 <0>        -0.4630
     12 H1         -0.4152   -5.0188    4.5284 H         1 <0>         0.4466
     13 N3         -0.3800   -3.9024    2.7280 N.2       1 <0>        -0.2708
     14 C10         1.1029   -0.7950    3.9197 C.ar      1 <0>         0.0019
     15 C11         2.1077   -0.3285    3.0745 C.ar      1 <0>        -0.0544
     16 C12         2.6381    0.9309    3.2662 C.ar      1 <0>        -0.1511
     17 C13         2.1731    1.7311    4.2970 C.ar      1 <0>         0.0937
     18 C14         1.1742    1.2713    5.1396 C.ar      1 <0>        -0.1523
     19 C15         0.6344    0.0153    4.9520 C.ar      1 <0>        -0.0825
     20 F1          2.6955    2.9633    4.4813 F         1 <0>        -0.1427
     21 H2          1.0042    1.8801    0.0026 H         1 <0>         0.0794
     22 H3         -0.5455    1.8639   -0.8728 H         1 <0>         0.0760
     23 H4         -0.5286    1.8543    0.9071 H         1 <0>         0.0780
     24 H5         -0.0069   -0.1322   -2.1356 H         1 <0>         0.1375
     25 H6          0.0277   -2.6167   -2.1375 H         1 <0>         0.1392
     26 H7          0.0549   -3.8100    0.0406 H         1 <0>         0.1391
     27 H8          0.6298   -3.0140    5.7162 H         1 <0>         0.1858
     28 H9          2.4711   -0.9517    2.2709 H         1 <0>         0.1203
     29 H10         3.4172    1.2932    2.6118 H         1 <0>         0.1314
     30 H11         0.8146    1.8984    5.9420 H         1 <0>         0.1336
     31 H12        -0.1474   -0.3406    5.6066 H         1 <0>         0.1291
@<TRIPOS>BOND
     1    1    2 1
     2    1   21 1
     3    1   22 1
     4    1   23 1
     5    2    7 ar
     6    2    3 ar
     7    3    4 ar
     8    3   24 1
     9    4    5 ar
    10    4   25 1
    11    5    6 ar
    12    5   26 1
    13    6    7 ar
    14    6    8 1
    15    8   13 2
    16    8    9 1
    17    9   10 2
    18    9   14 1
    19   10   11 1
    20   10   27 1
    21   11   12 1
    22   11   13 1
    23   14   19 ar
    24   14   15 ar
    25   15   16 ar
    26   15   28 1
    27   16   17 ar
    28   16   29 1
    29   17   18 ar
    30   17   20 1
    31   18   19 ar
    32   18   30 1
    33   19   31 1
@<TRIPOS>MOLECULE
ZINC01502387
   34    37     0     0     0
SMALL
USER_CHARGES

@<TRIPOS>ATOM
      1 C1         -0.1205    1.1752   -0.2598 C.ar      1 <0>        -0.1076
      2 C2          0.3819    0.7429    0.9544 C.ar      1 <0>        -0.1186
      3 C3          1.6133    0.1227    1.0132 C.ar      1 <0>        -0.0883
      4 C4          2.3511   -0.0679   -0.1538 C.ar      1 <0>        -0.0197
      5 C5          1.8399    0.3697   -1.3745 C.ar      1 <0>        -0.0905
      6 C6          0.6073    0.9887   -1.4212 C.ar      1 <0>        -0.1202
      7 C7          3.6752   -0.7332   -0.0970 C.2       1 <0>         0.1407
      8 C8          4.0074   -1.8696    0.6858 C.2       1 <0>        -0.2035
      9 C9          5.3203   -2.1596    0.4479 C.2       1 <0>         0.0883
     10 N1          5.7885   -1.2565   -0.4352 N.pl3     1 <0>        -0.4651
     11 H1          6.6925   -1.2221   -0.7850 H         1 <0>         0.4463
     12 N2          4.7492   -0.3794   -0.7670 N.2       1 <0>        -0.2762
     13 C10         3.0984   -2.6046    1.5926 C.ar      1 <0>         0.0623
     14 C11         3.3045   -2.6085    2.9672 C.ar      1 <0>        -0.1742
     15 C12         2.4321   -3.3081    3.7900 C.ar      1 <0>         0.1336
     16 N3          1.4085   -3.9737    3.3089 N.ar      1 <0>        -0.4774
     17 C13         1.1483   -4.0146    1.9978 C.ar      1 <0>         0.1319
     18 C14         1.9847   -3.3235    1.0885 C.ar      1 <0>        -0.0866
     19 C15         1.7040   -3.3659   -0.2833 C.ar      1 <0>        -0.0834
     20 C16         0.6245   -4.0682   -0.7289 C.ar      1 <0>        -0.1187
     21 C17        -0.2041   -4.7449    0.1629 C.ar      1 <0>        -0.0974
     22 C18         0.0469   -4.7334    1.5008 C.ar      1 <0>        -0.0972
     23 H2         -1.0866    1.6560   -0.3017 H         1 <0>         0.1248
     24 H3         -0.1905    0.8914    1.8582 H         1 <0>         0.1256
     25 H4          2.0047   -0.2140    1.9618 H         1 <0>         0.1214
     26 H5          2.4074    0.2250   -2.2818 H         1 <0>         0.1253
     27 H6          0.2100    1.3278   -2.3665 H         1 <0>         0.1266
     28 H7          5.8832   -2.9687    0.8894 H         1 <0>         0.1849
     29 H8          4.1387   -2.0706    3.3927 H         1 <0>         0.1374
     30 H9          2.6010   -3.3049    4.8567 H         1 <0>         0.1599
     31 H10         2.3395   -2.8446   -0.9839 H         1 <0>         0.1243
     32 H11         0.4086   -4.1001   -1.7866 H         1 <0>         0.1258
     33 H12        -1.0539   -5.2948   -0.2138 H         1 <0>         0.1297
     34 H13        -0.6049   -5.2639    2.1791 H         1 <0>         0.1354
@<TRIPOS>BOND
     1    1    6 ar
     2    1    2 ar
     3    1   23 1
     4    2    3 ar
     5    2   24 1
     6    3    4 ar
     7    3   25 1
     8    4    5 ar
     9    4    7 1
    10    5    6 ar
    11    5   26 1
    12    6   27 1
    13    7   12 2
    14    7    8 1
    15    8    9 2
    16    8   13 1
    17    9   10 1
    18    9   28 1
    19   10   11 1
    20   10   12 1
    21   13   18 ar
    22   13   14 ar
    23   14   15 ar
    24   14   29 1
    25   15   16 ar
    26   15   30 1
    27   16   17 ar
    28   17   22 ar
    29   17   18 ar
    30   18   19 ar
    31   19   20 ar
    32   19   31 1
    33   20   21 ar
    34   20   32 1
    35   21   22 ar
    36   21   33 1
    37   22   34 1
@<TRIPOS>MOLECULE
ZINC03817808
   36    39     0     0     0
SMALL
USER_CHARGES

@<TRIPOS>ATOM
      1 C1         -0.0184    1.5028    0.0103 C.3       1 <0>        -0.1072
      2 C2          0.0021   -0.0041    0.0020 C.ar      1 <0>         0.1366
      3 C3          0.0055   -0.6795   -1.2046 C.ar      1 <0>        -0.1631
      4 C4          0.0244   -2.0670   -1.2080 C.ar      1 <0>        -0.0718
      5 C5          0.0391   -2.7306    0.0065 C.ar      1 <0>        -0.1464
      6 C6          0.0346   -1.9865    1.1848 C.ar      1 <0>         0.1949
      7 N1          0.0218   -0.6599    1.1444 N.ar      1 <0>        -0.4516
      8 C7          0.0498   -2.6820    2.4936 C.2       1 <0>         0.1404
      9 C8          0.5405   -2.1401    3.7620 C.2       1 <0>        -0.1849
     10 C9          0.3639   -3.1174    4.6998 C.2       1 <0>         0.0833
     11 N2         -0.1872   -4.1845    4.0924 N.pl3     1 <0>        -0.4660
     12 H1         -0.4183   -5.0196    4.5285 H         1 <0>         0.4464
     13 N3         -0.3803   -3.9012    2.7368 N.2       1 <0>        -0.2639
     14 C10         1.1161   -0.7955    3.9847 C.ar      1 <0>         0.0695
     15 C11         2.4454   -0.6366    4.3581 C.ar      1 <0>        -0.1772
     16 C12         2.9542    0.6396    4.5586 C.ar      1 <0>         0.1303
     17 N4          2.2146    1.7128    4.4063 N.ar      1 <0>        -0.4799
     18 C13         0.9282    1.6367    4.0487 C.ar      1 <0>         0.1312
     19 C14         0.3313    0.3740    3.8184 C.ar      1 <0>        -0.0644
     20 C15        -1.0151    0.3010    3.4386 C.ar      1 <0>        -0.0416
     21 C16        -1.7362    1.4477    3.2891 C.ar      1 <0>        -0.1350
     22 C17        -1.1511    2.6923    3.5093 C.ar      1 <0>        -0.0955
     23 C18         0.1513    2.7979    3.8909 C.ar      1 <0>        -0.1050
     24 H2          1.0042    1.8801    0.0026 H         1 <0>         0.0775
     25 H3         -0.5455    1.8639   -0.8728 H         1 <0>         0.0758
     26 H4         -0.5286    1.8543    0.9071 H         1 <0>         0.0813
     27 H5         -0.0067   -0.1322   -2.1356 H         1 <0>         0.1375
     28 H6          0.0271   -2.6168   -2.1376 H         1 <0>         0.1395
     29 H7          0.0536   -3.8100    0.0406 H         1 <0>         0.1388
     30 H8          0.6220   -3.0464    5.7461 H         1 <0>         0.1874
     31 H9          3.0789   -1.5010    4.4919 H         1 <0>         0.1330
     32 H10         3.9884    0.7522    4.8487 H         1 <0>         0.1565
     33 H11        -1.4790   -0.6586    3.2648 H         1 <0>         0.1172
     34 H12        -2.7741    1.3906    2.9958 H         1 <0>         0.1198
     35 H13        -1.7426    3.5873    3.3842 H         1 <0>         0.1254
     36 H14         0.5899    3.7705    4.0584 H         1 <0>         0.1313
@<TRIPOS>BOND
     1    1    2 1
     2    1   24 1
     3    1   25 1
     4    1   26 1
     5    2    7 ar
     6    2    3 ar
     7    3    4 ar
     8    3   27 1
     9    4    5 ar
    10    4   28 1
    11    5    6 ar
    12    5   29 1
    13    6    7 ar
    14    6    8 1
    15    8   13 2
    16    8    9 1
    17    9   10 2
    18    9   14 1
    19   10   11 1
    20   10   30 1
    21   11   12 1
    22   11   13 1
    23   14   19 ar
    24   14   15 ar
    25   15   16 ar
    26   15   31 1
    27   16   17 ar
    28   16   32 1
    29   17   18 ar
    30   18   23 ar
    31   18   19 ar
    32   19   20 ar
    33   20   21 ar
    34   20   33 1
    35   21   22 ar
    36   21   34 1
    37   22   23 ar
    38   22   35 1
    39   23   36 1
@<TRIPOS>MOLECULE
ZINC01502393
   37    40     0     0     0
SMALL
USER_CHARGES

@<TRIPOS>ATOM
      1 C1          0.2668    1.2841    0.3460 C.ar      1 <0>        -0.1161
      2 C2          1.4880    1.9514    0.2893 C.ar      1 <0>        -0.0969
      3 C3          2.6521    1.2700    0.1065 C.ar      1 <0>        -0.0960
      4 C4          2.6278   -0.1294   -0.0276 C.ar      1 <0>         0.1319
      5 C5          1.3845   -0.8036    0.0307 C.ar      1 <0>        -0.0872
      6 C6          0.2053   -0.0714    0.2199 C.ar      1 <0>        -0.0874
      7 C7          1.3633   -2.2152   -0.1049 C.ar      1 <0>         0.0576
      8 C8          2.5769   -2.8671   -0.2897 C.ar      1 <0>        -0.1721
      9 C9          3.7522   -2.1295   -0.3350 C.ar      1 <0>         0.1332
     10 N1          3.7567   -0.8233   -0.2076 N.ar      1 <0>        -0.4755
     11 C10         0.0915   -2.9690   -0.0511 C.2       1 <0>        -0.2001
     12 C11        -0.2827   -3.8551    0.9181 C.2       1 <0>         0.0913
     13 N2         -1.5058   -4.3214    0.6004 N.pl3     1 <0>        -0.4613
     14 H1         -2.0171   -4.9666    1.1134 H         1 <0>         0.4479
     15 N3         -1.9148   -3.7182   -0.5947 N.2       1 <0>        -0.2709
     16 C12        -0.9671   -2.8996   -0.9941 C.2       1 <0>         0.1349
     17 C13        -0.9969   -2.0569   -2.2139 C.ar      1 <0>        -0.0163
     18 C14         0.1420   -1.9357   -3.0086 C.ar      1 <0>        -0.0573
     19 C15         0.1083   -1.1505   -4.1428 C.ar      1 <0>        -0.1160
     20 C16        -1.0527   -0.4840   -4.4917 C.ar      1 <0>        -0.0612
     21 C17        -2.1856   -0.6002   -3.7068 C.ar      1 <0>        -0.1819
     22 C18        -2.1653   -1.3878   -2.5734 C.ar      1 <0>        -0.0412
     23 C19        -3.4463    0.1294   -4.0932 C.3       1 <0>         0.5095
     24 F1         -3.2252    0.8507   -5.2713 F         1 <0>        -0.1755
     25 F2         -4.4758   -0.7953   -4.2989 F         1 <0>        -0.1748
     26 F3         -3.8084    1.0099   -3.0682 F         1 <0>        -0.1752
     27 H2         -0.6423    1.8475    0.4964 H         1 <0>         0.1267
     28 H3          1.5117    3.0263    0.3915 H         1 <0>         0.1304
     29 H4          3.5909    1.8023    0.0644 H         1 <0>         0.1360
     30 H5         -0.7472   -0.5783    0.2658 H         1 <0>         0.1242
     31 H6          2.6054   -3.9414   -0.3970 H         1 <0>         0.1383
     32 H7          4.6900   -2.6456   -0.4786 H         1 <0>         0.1605
     33 H8          0.2987   -4.1329    1.7848 H         1 <0>         0.1867
     34 H9          1.0491   -2.4550   -2.7368 H         1 <0>         0.1330
     35 H10         0.9901   -1.0559   -4.7592 H         1 <0>         0.1407
     36 H11        -1.0745    0.1297   -5.3801 H         1 <0>         0.1426
     37 H12        -3.0519   -1.4816   -1.9639 H         1 <0>         0.1376
@<TRIPOS>BOND
     1    1    6 ar
     2    1    2 ar
     3    1   27 1
     4    2    3 ar
     5    2   28 1
     6    3    4 ar
     7    3   29 1
     8    4   10 ar
     9    4    5 ar
    10    5    6 ar
    11    5    7 ar
    12    6   30 1
    13    7    8 ar
    14    7   11 1
    15    8    9 ar
    16    8   31 1
    17    9   10 ar
    18    9   32 1
    19   11   16 1
    20   11   12 2
    21   12   13 1
    22   12   33 1
    23   13   14 1
    24   13   15 1
    25   15   16 2
    26   16   17 1
    27   17   22 ar
    28   17   18 ar
    29   18   19 ar
    30   18   34 1
    31   19   20 ar
    32   19   35 1
    33   20   21 ar
    34   20   36 1
    35   21   22 ar
    36   21   23 1
    37   22   37 1
    38   23   24 1
    39   23   25 1
    40   23   26 1
@<TRIPOS>MOLECULE
ZINC21982951
   60    63     0     0     0
SMALL
USER_CHARGES

@<TRIPOS>ATOM
      1 C1         -2.0700    1.6928    0.2333 C.3       1 <0>        -0.1170
      2 C2         -1.6482    0.2604    0.0301 C.ar      1 <0>        -0.0813
      3 C3         -1.8479   -0.3525   -1.1919 C.ar      1 <0>        -0.1034
      4 C4         -1.4615   -1.6665   -1.3798 C.ar      1 <0>        -0.0990
      5 C5         -0.8738   -2.3725   -0.3459 C.ar      1 <0>        -0.1046
      6 C6         -0.6714   -1.7660    0.8791 C.ar      1 <0>        -0.0220
      7 C7         -1.0534   -0.4428    1.0688 C.ar      1 <0>         0.1347
      8 N1         -0.8441    0.1769    2.3055 N.am      1 <0>        -0.6659
      9 C8         -1.2819   -0.4110    3.4365 C.2       1 <0>         0.6018
     10 O1         -1.7689   -1.5261    3.3939 O.2       1 <0>        -0.4722
     11 C9         -1.1720    0.2905    4.7149 C.2       1 <0>        -0.2635
     12 C10        -1.5472   -0.1201    5.9866 C.2       1 <0>         0.1512
     13 N2         -1.3262    0.7270    6.9599 N.2       1 <0>        -0.5510
     14 C11        -0.7756    1.9070    6.7361 C.2       1 <0>         0.2513
     15 S1         -0.5107    1.9100    5.0742 S.3       1 <0>         0.2445
     16 N3         -0.4817    2.8997    7.6498 N.pl3     1 <0>        -0.5870
     17 C12        -0.6908    2.6801    9.0050 C.ar      1 <0>         0.4543
     18 C13        -1.0534    1.4192    9.4679 C.ar      1 <0>        -0.2926
     19 C14        -1.2512    1.2508   10.8352 C.ar      1 <0>         0.4935
     20 N4         -1.0875    2.2952   11.6453 N.ar      1 <0>        -0.5328
     21 C15        -0.7435    3.4737   11.1677 C.ar      1 <0>         0.4541
     22 N5         -0.5417    3.6719    9.8809 N.ar      1 <0>        -0.5672
     23 C16        -0.5694    4.6273   12.1217 C.3       1 <0>        -0.1251
     24 N6         -1.6138    0.0143   11.3464 N.pl3     1 <0>        -0.5370
     25 C17        -2.0559   -0.1253   12.7422 C.3       1 <0>         0.1090
     26 C18        -3.3866   -0.8852   12.7576 C.3       1 <0>         0.0383
     27 N7         -3.2335   -2.1493   12.0251 N.3       1 <0>        -0.5289
     28 C19        -2.9165   -1.9105   10.6107 C.3       1 <0>         0.0343
     29 C20        -1.5725   -1.1917   10.5056 C.3       1 <0>         0.1057
     30 C21        -4.4334   -2.9856   12.1619 C.3       1 <0>         0.0545
     31 C22        -4.1483   -4.3816   11.6043 C.3       1 <0>         0.0776
     32 O2         -3.1500   -5.0191   12.4038 O.3       1 <0>        -0.5606
     33 Cl1         0.0658   -2.6526    2.1768 Cl        1 <0>        -0.0453
     34 H1         -1.2464    2.3553   -0.0328 H         1 <0>         0.0773
     35 H2         -2.9308    1.9112   -0.3987 H         1 <0>         0.0785
     36 H3         -2.3379    1.8478    1.2784 H         1 <0>         0.0640
     37 H4         -2.3069    0.1956   -2.0014 H         1 <0>         0.1372
     38 H5         -1.6193   -2.1430   -2.3361 H         1 <0>         0.1391
     39 H6         -0.5731   -3.3989   -0.4959 H         1 <0>         0.1403
     40 H7         -0.3838    1.0296    2.3489 H         1 <0>         0.4083
     41 H8         -1.9972   -1.0858    6.1634 H         1 <0>         0.2027
     42 H9         -0.1293    3.7505    7.3451 H         1 <0>         0.4460
     43 H10        -1.1784    0.5927    8.7841 H         1 <0>         0.2218
     44 H11         0.4644    4.6619   12.4652 H         1 <0>         0.1245
     45 H12        -0.8146    5.5596   11.6130 H         1 <0>         0.1071
     46 H13        -1.2322    4.4948   12.9768 H         1 <0>         0.1273
     47 H14        -1.3096   -0.6823   13.3087 H         1 <0>         0.0989
     48 H15        -2.1929    0.8619   13.1834 H         1 <0>         0.1094
     49 H16        -3.6740   -1.0944   13.7880 H         1 <0>         0.1036
     50 H17        -4.1569   -0.2794   12.2806 H         1 <0>         0.0428
     51 H18        -2.8631   -2.8634   10.0841 H         1 <0>         0.1043
     52 H19        -3.6935   -1.2904   10.1636 H         1 <0>         0.0450
     53 H20        -1.3900   -0.9091    9.4688 H         1 <0>         0.1029
     54 H21        -0.7788   -1.8532   10.8529 H         1 <0>         0.1042
     55 H22        -4.7041   -3.0633   13.2149 H         1 <0>         0.0912
     56 H23        -5.2561   -2.5340   11.6075 H         1 <0>         0.0533
     57 H24        -5.0627   -4.9745   11.6240 H         1 <0>         0.0547
     58 H25        -3.7921   -4.2970   10.5776 H         1 <0>         0.0454
     59 H26        -2.9188   -5.9101   12.1076 H         1 <0>         0.3805
     60 H27        -0.2852    4.5531    9.5669 H         1 <0>         0.4414
@<TRIPOS>BOND
     1    1    2 1
     2    1   34 1
     3    1   35 1
     4    1   36 1
     5    2    7 ar
     6    2    3 ar
     7    3    4 ar
     8    3   37 1
     9    4    5 ar
    10    4   38 1
    11    5    6 ar
    12    5   39 1
    13    6    7 ar
    14    6   33 1
    15    7    8 1
    16    8    9 am
    17    8   40 1
    18    9   10 2
    19    9   11 1
    20   11   15 1
    21   11   12 2
    22   12   13 1
    23   12   41 1
    24   13   14 2
    25   14   15 1
    26   14   16 1
    27   16   17 1
    28   16   42 1
    29   17   22 ar
    30   17   18 ar
    31   18   19 ar
    32   18   43 1
    33   19   20 ar
    34   19   24 1
    35   20   21 ar
    36   21   22 ar
    37   21   23 1
    38   22   60 1
    39   23   44 1
    40   23   45 1
    41   23   46 1
    42   24   29 1
    43   24   25 1
    44   25   26 1
    45   25   47 1
    46   25   48 1
    47   26   27 1
    48   26   49 1
    49   26   50 1
    50   27   28 1
    51   27   30 1
    52   28   29 1
    53   28   51 1
    54   28   52 1
    55   29   53 1
    56   29   54 1
    57   30   31 1
    58   30   55 1
    59   30   56 1
    60   31   32 1
    61   31   57 1
    62   31   58 1
    63   32   59 1
@<TRIPOS>MOLECULE
ZINC21982951
   60    63     0     0     0
SMALL
USER_CHARGES

@<TRIPOS>ATOM
      1 C1          3.2739    6.6585    1.8418 C.3       1 <0>        -0.1168
      2 C2          2.5810    7.9910    1.9663 C.ar      1 <0>        -0.0823
      3 C3          2.8983    9.0189    1.0995 C.ar      1 <0>        -0.1038
      4 C4          2.2635   10.2419    1.2126 C.ar      1 <0>        -0.1008
      5 C5          1.3088   10.4411    2.1933 C.ar      1 <0>        -0.1049
      6 C6          0.9869    9.4175    3.0639 C.ar      1 <0>        -0.0226
      7 C7          1.6192    8.1849    2.9486 C.ar      1 <0>         0.1373
      8 N1          1.2913    7.1440    3.8238 N.am      1 <0>        -0.6678
      9 C8          1.3128    7.3511    5.1554 C.2       1 <0>         0.6036
     10 O1          1.5184    8.4680    5.5945 O.2       1 <0>        -0.4759
     11 C9          1.0891    6.2346    6.0728 C.2       1 <0>        -0.2694
     12 C10         1.0619    6.2190    7.4604 C.2       1 <0>         0.1522
     13 N2          0.8357    5.0596    8.0247 N.2       1 <0>        -0.5060
     14 C11         0.6446    3.9678    7.3056 C.2       1 <0>         0.2464
     15 S1          0.7674    4.5141    5.7185 S.3       1 <0>         0.2029
     16 N3          0.3973    2.6842    7.7505 N.pl3     1 <0>        -0.5650
     17 C12         0.2197    2.4414    9.1063 C.ar      1 <0>         0.4999
     18 C13        -0.1342    1.1736    9.5555 C.ar      1 <0>        -0.3181
     19 C14        -0.3003    0.9817   10.9244 C.ar      1 <0>         0.4940
     20 N4         -0.1157    2.0114   11.7481 N.ar      1 <0>        -0.5712
     21 C15         0.2193    3.1978   11.2829 C.ar      1 <0>         0.4509
     22 N5          0.3911    3.4178    9.9956 N.ar      1 <0>        -0.4879
     23 C16         0.4179    4.3344   12.2523 C.3       1 <0>        -0.1253
     24 N6         -0.6531   -0.2629   11.4224 N.pl3     1 <0>        -0.5744
     25 C17        -0.9639   -0.4449   12.8484 C.3       1 <0>         0.1013
     26 C18        -2.3114   -1.1652   12.9649 C.3       1 <0>         0.0387
     27 N7         -2.2712   -2.4031   12.1749 N.3       1 <0>        -0.5277
     28 C19        -2.0835   -2.1176   10.7462 C.3       1 <0>         0.0305
     29 C20        -0.7325   -1.4351   10.5377 C.3       1 <0>         0.1149
     30 C21        -3.4796   -3.2085   12.3965 C.3       1 <0>         0.0543
     31 C22        -3.2958   -4.5889   11.7629 C.3       1 <0>         0.0774
     32 O2         -2.2472   -5.2869   12.4378 O.3       1 <0>        -0.5615
     33 Cl1        -0.2110    9.6681    4.2952 Cl        1 <0>        -0.0453
     34 H1          2.7121    6.0191    1.1609 H         1 <0>         0.0767
     35 H2          4.2810    6.8077    1.4524 H         1 <0>         0.0779
     36 H3          3.3298    6.1850    2.8220 H         1 <0>         0.0648
     37 H4          3.6435    8.8670    0.3327 H         1 <0>         0.1365
     38 H5          2.5139   11.0437    0.5337 H         1 <0>         0.1383
     39 H6          0.8148   11.3976    2.2790 H         1 <0>         0.1396
     40 H7          1.0484    6.2731    3.4723 H         1 <0>         0.4083
     41 H8          1.2191    7.1147    8.0430 H         1 <0>         0.1979
     42 H9          0.3477    1.9521    7.1161 H         1 <0>         0.4525
     43 H10        -0.2767    0.3593    8.8606 H         1 <0>         0.1835
     44 H11         1.4596    4.3615   12.5720 H         1 <0>         0.1250
     45 H12         0.1626    5.2758   11.7656 H         1 <0>         0.1301
     46 H13        -0.2249    4.1881   13.1203 H         1 <0>         0.1049
     47 H14        -0.1857   -1.0458   13.3190 H         1 <0>         0.1119
     48 H15        -1.0251    0.5276   13.3369 H         1 <0>         0.0843
     49 H16        -2.5057   -1.4068   14.0099 H         1 <0>         0.1076
     50 H17        -3.1034   -0.5184   12.5874 H         1 <0>         0.0465
     51 H18        -2.1124   -3.0499   10.1822 H         1 <0>         0.1076
     52 H19        -2.8786   -1.4576   10.3996 H         1 <0>         0.0467
     53 H20        -0.6409   -1.1170    9.4992 H         1 <0>         0.1034
     54 H21         0.0684   -2.1330   10.7819 H         1 <0>         0.1075
     55 H22        -3.6507   -3.3200   13.4672 H         1 <0>         0.0925
     56 H23        -4.3362   -2.7111   11.9416 H         1 <0>         0.0553
     57 H24        -4.2233   -5.1548   11.8494 H         1 <0>         0.0565
     58 H25        -3.0370   -4.4741   10.7103 H         1 <0>         0.0456
     59 H26        -2.0752   -6.1719   12.0881 H         1 <0>         0.3821
     60 H27        -0.2297    1.8867   12.7033 H         1 <0>         0.4392
@<TRIPOS>BOND
     1    1    2 1
     2    1   34 1
     3    1   35 1
     4    1   36 1
     5    2    7 ar
     6    2    3 ar
     7    3    4 ar
     8    3   37 1
     9    4    5 ar
    10    4   38 1
    11    5    6 ar
    12    5   39 1
    13    6    7 ar
    14    6   33 1
    15    7    8 1
    16    8    9 am
    17    8   40 1
    18    9   10 2
    19    9   11 1
    20   11   15 1
    21   11   12 2
    22   12   13 1
    23   12   41 1
    24   13   14 2
    25   14   15 1
    26   14   16 1
    27   16   17 1
    28   16   42 1
    29   17   18 ar
    30   17   22 ar
    31   18   43 1
    32   18   19 ar
    33   19   24 1
    34   19   20 ar
    35   20   60 1
    36   20   21 ar
    37   21   23 1
    38   21   22 ar
    39   23   44 1
    40   23   45 1
    41   23   46 1
    42   24   29 1
    43   24   25 1
    44   25   26 1
    45   25   47 1
    46   25   48 1
    47   26   27 1
    48   26   49 1
    49   26   50 1
    50   27   28 1
    51   27   30 1
    52   28   29 1
    53   28   51 1
    54   28   52 1
    55   29   53 1
    56   29   54 1
    57   30   31 1
    58   30   55 1
    59   30   56 1
    60   31   32 1
    61   31   57 1
    62   31   58 1
    63   32   59 1
@<TRIPOS>MOLECULE
ZINC21982951
   59    62     0     0     0
SMALL
USER_CHARGES

@<TRIPOS>ATOM
      1 C1          3.4106    6.6420    1.8847 C.3       1 <0>        -0.1165
      2 C2          2.6976    7.9659    1.9845 C.ar      1 <0>        -0.0852
      3 C3          3.0204    8.9921    1.1176 C.ar      1 <0>        -0.1055
      4 C4          2.3672   10.2073    1.2080 C.ar      1 <0>        -0.1070
      5 C5          1.3885   10.4004    2.1660 C.ar      1 <0>        -0.1064
      6 C6          1.0609    9.3785    3.0365 C.ar      1 <0>        -0.0243
      7 C7          1.7118    8.1536    2.9438 C.ar      1 <0>         0.1460
      8 N1          1.3783    7.1144    3.8189 N.am      1 <0>        -0.6734
      9 C8          1.3676    7.3308    5.1492 C.2       1 <0>         0.6131
     10 O1          1.5489    8.4533    5.5848 O.2       1 <0>        -0.4899
     11 C9          1.1384    6.2176    6.0693 C.2       1 <0>        -0.3092
     12 C10         1.0807    6.2111    7.4561 C.2       1 <0>         0.1722
     13 N2          0.8573    5.0526    8.0233 N.2       1 <0>        -0.5180
     14 C11         0.6966    3.9535    7.3079 C.2       1 <0>         0.3121
     15 S1          0.8472    4.4907    5.7202 S.3       1 <0>         0.1340
     16 N3          0.4564    2.6698    7.7563 N.pl3     1 <0>        -0.5904
     17 C12         0.2490    2.4343    9.1091 C.ar      1 <0>         0.4412
     18 C13        -0.1036    1.1661    9.5586 C.ar      1 <0>        -0.3412
     19 C14        -0.3003    0.9817   10.9244 C.ar      1 <0>         0.4686
     20 N4         -0.1450    2.0186   11.7452 N.ar      1 <0>        -0.5923
     21 C15         0.1898    3.2050   11.2799 C.ar      1 <0>         0.3946
     22 N5          0.3901    3.4182    9.9956 N.ar      1 <0>        -0.5459
     23 C16         0.3546    4.3498   12.2460 C.3       1 <0>        -0.0834
     24 N6         -0.6531   -0.2629   11.4224 N.pl3     1 <0>        -0.5966
     25 C17        -1.0693   -0.4249   12.8237 C.3       1 <0>         0.1300
     26 C18        -2.3993   -1.1856   12.8517 C.3       1 <0>         0.0401
     27 N7         -2.2595   -2.4378   12.0965 N.3       1 <0>        -0.5276
     28 C19        -1.9688   -2.1765   10.6804 C.3       1 <0>         0.0363
     29 C20        -0.6270   -1.4554   10.5619 C.3       1 <0>         0.1269
     30 C21        -3.4565   -3.2768   12.2420 C.3       1 <0>         0.0537
     31 C22        -3.1814   -4.6636   11.6572 C.3       1 <0>         0.0792
     32 O2         -2.1684   -5.3132   12.4279 O.3       1 <0>        -0.5589
     33 Cl1        -0.1672    9.6214    4.2392 Cl        1 <0>        -0.0433
     34 H1          2.8725    5.9906    1.1961 H         1 <0>         0.0754
     35 H2          4.4240    6.8020    1.5166 H         1 <0>         0.0754
     36 H3          3.4510    6.1760    2.8692 H         1 <0>         0.0676
     37 H4          3.7844    8.8450    0.3685 H         1 <0>         0.1337
     38 H5          2.6220   11.0077    0.5292 H         1 <0>         0.1350
     39 H6          0.8801   11.3508    2.2339 H         1 <0>         0.1371
     40 H7          1.1547    6.2381    3.4683 H         1 <0>         0.4085
     41 H8          1.2132    7.1127    8.0357 H         1 <0>         0.1884
     42 H9          0.4325    1.9325    7.1264 H         1 <0>         0.4387
     43 H10        -0.2220    0.3459    8.8660 H         1 <0>         0.1413
     44 H11         1.3882    4.3890   12.5900 H         1 <0>         0.0870
     45 H12         0.1021    5.2855   11.7470 H         1 <0>         0.0890
     46 H13        -0.3072    4.2031   13.0995 H         1 <0>         0.0846
     47 H14        -0.3126   -0.9904   13.3674 H         1 <0>         0.0744
     48 H15        -1.1984    0.5551   13.2831 H         1 <0>         0.1008
     49 H16        -2.6676   -1.4113   13.8837 H         1 <0>         0.0903
     50 H17        -3.1785   -0.5727   12.3986 H         1 <0>         0.0372
     51 H18        -1.9249   -3.1208   10.1378 H         1 <0>         0.0905
     52 H19        -2.7540   -1.5497   10.2576 H         1 <0>         0.0380
     53 H20        -0.4638   -1.1563    9.5265 H         1 <0>         0.0877
     54 H21         0.1731   -2.1219   10.8840 H         1 <0>         0.0802
     55 H22        -3.7077   -3.3713   13.2985 H         1 <0>         0.0861
     56 H23        -4.2894   -2.8169   11.7102 H         1 <0>         0.0487
     57 H24        -4.0952   -5.2572   11.6843 H         1 <0>         0.0498
     58 H25        -2.8443   -4.5626   10.6256 H         1 <0>         0.0451
     59 H26        -1.9426   -6.1994   12.1134 H         1 <0>         0.3762
@<TRIPOS>BOND
     1    1    2 1
     2    1   34 1
     3    1   35 1
     4    1   36 1
     5    2    7 ar
     6    2    3 ar
     7    3    4 ar
     8    3   37 1
     9    4    5 ar
    10    4   38 1
    11    5    6 ar
    12    5   39 1
    13    6    7 ar
    14    6   33 1
    15    7    8 1
    16    8    9 am
    17    8   40 1
    18    9   10 2
    19    9   11 1
    20   11   15 1
    21   11   12 2
    22   12   13 1
    23   12   41 1
    24   13   14 2
    25   14   15 1
    26   14   16 1
    27   16   17 1
    28   16   42 1
    29   17   18 ar
    30   17   22 ar
    31   18   43 1
    32   18   19 ar
    33   19   24 1
    34   19   20 ar
    35   20   21 ar
    36   21   23 1
    37   21   22 ar
    38   23   44 1
    39   23   45 1
    40   23   46 1
    41   24   29 1
    42   24   25 1
    43   25   26 1
    44   25   47 1
    45   25   48 1
    46   26   27 1
    47   26   49 1
    48   26   50 1
    49   27   28 1
    50   27   30 1
    51   28   29 1
    52   28   51 1
    53   28   52 1
    54   29   53 1
    55   29   54 1
    56   30   31 1
    57   30   55 1
    58   30   56 1
    59   31   32 1
    60   31   57 1
    61   31   58 1
    62   32   59 1
@<TRIPOS>MOLECULE
ZINC21982951
   61    64     0     0     0
SMALL
USER_CHARGES

@<TRIPOS>ATOM
      1 C1          3.2770    6.6581    1.8427 C.3       1 <0>        -0.1166
      2 C2          2.5837    7.9904    1.9667 C.ar      1 <0>        -0.0814
      3 C3          2.9012    9.0183    1.0999 C.ar      1 <0>        -0.1028
      4 C4          2.2660   10.2411    1.2125 C.ar      1 <0>        -0.0975
      5 C5          1.3108   10.4402    2.1928 C.ar      1 <0>        -0.1039
      6 C6          0.9888    9.4167    3.0634 C.ar      1 <0>        -0.0218
      7 C7          1.6215    8.1842    2.9485 C.ar      1 <0>         0.1327
      8 N1          1.2933    7.1433    3.8237 N.am      1 <0>        -0.6648
      9 C8          1.3141    7.3507    5.1552 C.2       1 <0>         0.5983
     10 O1          1.5193    8.4677    5.5943 O.2       1 <0>        -0.4690
     11 C9          1.0903    6.2342    6.0727 C.2       1 <0>        -0.2500
     12 C10         1.0624    6.2188    7.4604 C.2       1 <0>         0.1439
     13 N2          0.8362    5.0594    8.0246 N.2       1 <0>        -0.4984
     14 C11         0.6458    3.9675    7.3056 C.2       1 <0>         0.2172
     15 S1          0.7692    4.5136    5.7185 S.3       1 <0>         0.2242
     16 N3          0.3986    2.6839    7.7506 N.pl3     1 <0>        -0.5513
     17 C12         0.2203    2.4413    9.1063 C.ar      1 <0>         0.5098
     18 C13        -0.1335    1.1734    9.5556 C.ar      1 <0>        -0.3097
     19 C14        -0.3003    0.9817   10.9244 C.ar      1 <0>         0.4927
     20 N4         -0.1163    2.0116   11.7481 N.ar      1 <0>        -0.5695
     21 C15         0.2187    3.1980   11.2828 C.ar      1 <0>         0.4589
     22 N5          0.3911    3.4178    9.9956 N.ar      1 <0>        -0.4762
     23 C16         0.4165    4.3348   12.2521 C.3       1 <0>        -0.1303
     24 N6         -0.6531   -0.2629   11.4224 N.pl3     1 <0>        -0.6123
     25 C17        -0.9643   -0.4465   12.8484 C.3       1 <0>         0.0782
     26 C18        -2.3027   -1.1838   12.9625 C.3       1 <0>        -0.0204
     27 N7         -2.2406   -2.4311   12.1903 N.4       1 <0>        -0.3852
     28 C19        -2.0770   -2.1279   10.7629 C.3       1 <0>        -0.0304
     29 C20        -0.7330   -1.4363   10.5388 C.3       1 <0>         0.0932
     30 C21        -3.4827   -3.1900   12.3886 C.3       1 <0>        -0.0061
     31 C22        -3.3702   -4.5448   11.6865 C.3       1 <0>         0.0434
     32 O2         -2.3479   -5.3224   12.3128 O.3       1 <0>        -0.5819
     33 Cl1        -0.2098    9.6671    4.2940 Cl        1 <0>        -0.0466
     34 H1          2.7157    6.0184    1.1617 H         1 <0>         0.0770
     35 H2          4.2843    6.8074    1.4538 H         1 <0>         0.0791
     36 H3          3.3325    6.1847    2.8230 H         1 <0>         0.0631
     37 H4          3.6468    8.8665    0.3335 H         1 <0>         0.1380
     38 H5          2.5166   11.0428    0.5336 H         1 <0>         0.1401
     39 H6          0.8165   11.3966    2.2780 H         1 <0>         0.1410
     40 H7          1.0508    6.2723    3.4722 H         1 <0>         0.4077
     41 H8          1.2191    7.1146    8.0429 H         1 <0>         0.2016
     42 H9          0.3494    1.9517    7.1163 H         1 <0>         0.4545
     43 H10        -0.2756    0.3590    8.8607 H         1 <0>         0.1860
     44 H11         1.4581    4.3621   12.5724 H         1 <0>         0.1309
     45 H12         0.1613    5.2760   11.7653 H         1 <0>         0.1358
     46 H13        -0.2267    4.1885   13.1199 H         1 <0>         0.1083
     47 H14        -0.1795   -1.0367   13.3215 H         1 <0>         0.1249
     48 H15        -1.0392    0.5259   13.3352 H         1 <0>         0.1232
     49 H16        -2.5028   -1.4138   14.0090 H         1 <0>         0.1602
     50 H17        -3.0999   -0.5526   12.5701 H         1 <0>         0.1410
     51 H18        -2.1110   -3.0537   10.1885 H         1 <0>         0.1585
     52 H19        -2.8811   -1.4682   10.4370 H         1 <0>         0.1418
     53 H20        -0.6550   -1.1179    9.4992 H         1 <0>         0.1416
     54 H21         0.0756   -2.1281   10.7747 H         1 <0>         0.1211
     55 H22        -3.6469   -3.3459   13.4548 H         1 <0>         0.1465
     56 H23        -4.3202   -2.6321   11.9697 H         1 <0>         0.1464
     57 H24        -4.3221   -5.0710   11.7578 H         1 <0>         0.1026
     58 H25        -3.1180   -4.3904   10.6374 H         1 <0>         0.0719
     59 H26        -2.2211   -6.1961   11.9183 H         1 <0>         0.4154
     60 H27        -0.2308    1.8869   12.7032 H         1 <0>         0.4393
     61 H28        -1.4578   -2.9831   12.5075 H         1 <0>         0.4359
@<TRIPOS>BOND
     1    1    2 1
     2    1   34 1
     3    1   35 1
     4    1   36 1
     5    2    7 ar
     6    2    3 ar
     7    3    4 ar
     8    3   37 1
     9    4    5 ar
    10    4   38 1
    11    5    6 ar
    12    5   39 1
    13    6    7 ar
    14    6   33 1
    15    7    8 1
    16    8    9 am
    17    8   40 1
    18    9   10 2
    19    9   11 1
    20   11   15 1
    21   11   12 2
    22   12   13 1
    23   12   41 1
    24   13   14 2
    25   14   15 1
    26   14   16 1
    27   16   17 1
    28   16   42 1
    29   17   18 ar
    30   17   22 ar
    31   18   43 1
    32   18   19 ar
    33   19   24 1
    34   19   20 ar
    35   20   60 1
    36   20   21 ar
    37   21   23 1
    38   21   22 ar
    39   23   44 1
    40   23   45 1
    41   23   46 1
    42   24   29 1
    43   24   25 1
    44   25   26 1
    45   25   47 1
    46   25   48 1
    47   26   27 1
    48   26   49 1
    49   26   50 1
    50   27   28 1
    51   27   30 1
    52   27   61 1
    53   28   29 1
    54   28   51 1
    55   28   52 1
    56   29   53 1
    57   29   54 1
    58   30   31 1
    59   30   55 1
    60   30   56 1
    61   31   32 1
    62   31   57 1
    63   31   58 1
    64   32   59 1
@<TRIPOS>MOLECULE
ZINC03814434
   62    69     0     0     0
SMALL
USER_CHARGES

@<TRIPOS>ATOM
      1 C1         -0.1295    1.5952   -0.2973 C.3       1 <0>        -0.1687
      2 C2         -0.0862    0.0696   -0.1900 C.3       1 <0>         0.3342
      3 C3          0.5692   -0.4501   -1.4637 C.3       1 <0>         0.0405
      4 H1          1.4796    0.1159   -1.6612 H         1 <0>         0.1372
      5 C4          0.9167   -1.9328   -1.2889 C.3       1 <0>        -0.0061
      6 H2          1.3963   -2.3075   -2.1932 H         1 <0>         0.1555
      7 C5          1.8785   -2.0596   -0.1021 C.3       1 <0>        -0.1827
      8 C6          1.2061   -1.5198    1.1541 C.3       1 <0>         0.2999
      9 H3          1.9797   -1.4243    1.9161 H         1 <0>         0.1550
     10 O1          0.6555   -0.2442    0.9666 O.3       1 <0>        -0.3234
     11 N1          0.2189   -2.4746    1.6600 N.pl3     1 <0>        -0.5366
     12 C7          0.4705   -3.5508    2.4739 C.ar      1 <0>         0.1469
     13 C8          1.6649   -4.0152    3.0240 C.ar      1 <0>        -0.1522
     14 C9          1.5948   -5.1456    3.8201 C.ar      1 <0>        -0.0582
     15 C10         0.4006   -5.7997    4.0696 C.ar      1 <0>        -0.1457
     16 C11        -0.7984   -5.3597    3.5358 C.ar      1 <0>        -0.0280
     17 C12        -0.7487   -4.2198    2.7307 C.ar      1 <0>        -0.1131
     18 C13        -1.7893   -3.4830    2.0197 C.ar      1 <0>         0.0276
     19 C14        -1.1442   -2.4197    1.3841 C.ar      1 <0>         0.0376
     20 C15        -1.8806   -1.5095    0.6175 C.ar      1 <0>         0.0894
     21 N2         -1.4718   -0.3951   -0.1095 N.pl3     1 <0>        -0.5183
     22 C16        -2.5611    0.1913   -0.7090 C.ar      1 <0>         0.1618
     23 C17        -2.6521    1.3277   -1.5118 C.ar      1 <0>        -0.1305
     24 C18        -3.9109    1.6745   -1.9733 C.ar      1 <0>        -0.0737
     25 C19        -5.0393    0.9368   -1.6616 C.ar      1 <0>        -0.1358
     26 C20        -4.9745   -0.1955   -0.8662 C.ar      1 <0>        -0.0503
     27 C21        -3.7147   -0.5596   -0.3919 C.ar      1 <0>        -0.1042
     28 C22        -3.2693   -1.6660    0.4845 C.ar      1 <0>        -0.0360
     29 C23        -3.9084   -2.7313    1.1102 C.ar      1 <0>        -0.0288
     30 C24        -3.1873   -3.6421    1.8754 C.ar      1 <0>        -0.1255
     31 C25        -4.1221   -4.6480    2.4030 C.2       1 <0>         0.5632
     32 O2         -3.8062   -5.5851    3.1110 O.2       1 <0>        -0.5106
     33 N3         -5.3744   -4.3851    1.9926 N.am      1 <0>        -0.7162
     34 C26        -5.3495   -3.1771    1.1601 C.3       1 <0>         0.1358
     35 N4         -0.3067   -2.7008   -1.0216 N.4       1 <0>        -0.5252
     36 C27         0.0145   -4.1336   -0.9773 C.3       1 <0>        -0.0497
     37 O3         -0.3340   -0.2979   -2.5607 O.3       1 <0>        -0.3614
     38 C28         0.3101   -0.0933   -3.8198 C.3       1 <0>         0.0162
     39 H4          0.8261    2.0094    0.0240 H         1 <0>         0.0984
     40 H5         -0.3202    1.8814   -1.3317 H         1 <0>         0.1036
     41 H6         -0.9255    1.9818    0.3392 H         1 <0>         0.0921
     42 H7          2.1370   -3.1081    0.0458 H         1 <0>         0.1233
     43 H8          2.7835   -1.4869   -0.3048 H         1 <0>         0.1455
     44 H9          2.6036   -3.5149    2.8368 H         1 <0>         0.1365
     45 H10         2.5026   -5.5304    4.2610 H         1 <0>         0.1359
     46 H11         0.4045   -6.6780    4.6980 H         1 <0>         0.1352
     47 H12        -1.7278   -5.8736    3.7323 H         1 <0>         0.1600
     48 H13        -1.7792    1.9122   -1.7624 H         1 <0>         0.1440
     49 H14        -4.0153    2.5500   -2.5970 H         1 <0>         0.1336
     50 H15        -5.9967    1.2527   -2.0488 H         1 <0>         0.1332
     51 H16        -5.8575   -0.7687   -0.6249 H         1 <0>         0.1415
     52 H17        -6.1628   -4.9065    2.2103 H         1 <0>         0.4348
     53 H18        -5.9671   -2.3994    1.6094 H         1 <0>         0.1115
     54 H19        -5.7060   -3.4063    0.1559 H         1 <0>         0.1103
     55 H20        -0.6958   -2.4158   -0.1353 H         1 <0>         0.4186
     56 H21         0.4349   -4.4415   -1.9347 H         1 <0>         0.1256
     57 H22         0.7403   -4.3189   -0.1854 H         1 <0>         0.1191
     58 H23        -0.8932   -4.7035   -0.7789 H         1 <0>         0.1256
     59 H24         0.9168    0.8112   -3.7748 H         1 <0>         0.0633
     60 H25         0.9482   -0.9479   -4.0446 H         1 <0>         0.0514
     61 H26        -0.4433    0.0130   -4.6003 H         1 <0>         0.1100
     62 H27        -0.9785   -2.5293   -1.7546 H         1 <0>         0.4274
@<TRIPOS>BOND
     1    1    2 1
     2    1   39 1
     3    1   40 1
     4    1   41 1
     5    2   10 1
     6    2   21 1
     7    2    3 1
     8    3    4 1
     9    3    5 1
    10    3   37 1
    11    5    6 1
    12    5    7 1
    13    5   35 1
    14    7    8 1
    15    7   42 1
    16    7   43 1
    17    8    9 1
    18    8   10 1
    19    8   11 1
    20   11   19 1
    21   11   12 1
    22   12   17 ar
    23   12   13 ar
    24   13   14 ar
    25   13   44 1
    26   14   15 ar
    27   14   45 1
    28   15   16 ar
    29   15   46 1
    30   16   17 ar
    31   16   47 1
    32   17   18 1
    33   18   30 ar
    34   18   19 ar
    35   19   20 ar
    36   20   28 ar
    37   20   21 1
    38   21   22 1
    39   22   27 ar
    40   22   23 ar
    41   23   24 ar
    42   23   48 1
    43   24   25 ar
    44   24   49 1
    45   25   26 ar
    46   25   50 1
    47   26   27 ar
    48   26   51 1
    49   27   28 1
    50   28   29 ar
    51   29   34 1
    52   29   30 ar
    53   30   31 1
    54   31   32 2
    55   31   33 am
    56   33   34 1
    57   33   52 1
    58   34   53 1
    59   34   54 1
    60   35   36 1
    61   35   55 1
    62   35   62 1
    63   36   56 1
    64   36   57 1
    65   36   58 1
    66   37   38 1
    67   38   59 1
    68   38   60 1
    69   38   61 1
@<TRIPOS>MOLECULE
ZINC16052825
   46    49     0     0     0
SMALL
USER_CHARGES

@<TRIPOS>ATOM
      1 C1         -0.0184    1.5028    0.0103 C.3       1 <0>        -0.1069
      2 C2          0.0021   -0.0041    0.0020 C.ar      1 <0>         0.1419
      3 C3          0.0055   -0.6791   -1.2047 C.ar      1 <0>        -0.1724
      4 C4          0.0244   -2.0675   -1.2099 C.ar      1 <0>        -0.0632
      5 C5          0.0392   -2.7328    0.0024 C.ar      1 <0>        -0.1767
      6 C6          0.0347   -1.9886    1.1844 C.ar      1 <0>         0.2045
      7 N1          0.0218   -0.6596    1.1445 N.ar      1 <0>        -0.4582
      8 C7          0.0503   -2.6820    2.4864 C.2       1 <0>         0.0181
      9 C8          0.5116   -2.1797    3.6902 C.2       1 <0>         0.1019
     10 N2          0.3399   -3.1391    4.6177 N.2       1 <0>        -0.4699
     11 C9         -0.1941   -4.1920    4.0636 C.2       1 <0>         0.2490
     12 N3         -0.3969   -3.9577    2.7499 N.pl3     1 <0>        -0.5518
     13 H1         -0.7841   -4.5747    2.1092 H         1 <0>         0.4209
     14 C10        -0.5367   -5.4723    4.7810 C.3       1 <0>         0.0145
     15 C11         0.4917   -6.5476    4.4244 C.3       1 <0>        -0.1427
     16 C12        -0.5190   -5.2307    6.2917 C.3       1 <0>        -0.1298
     17 C13        -1.9304   -5.9383    4.3553 C.3       1 <0>        -0.1479
     18 C14         1.0885   -0.8340    3.9161 C.ar      1 <0>         0.0108
     19 C15         1.8613   -0.2296    2.9248 C.ar      1 <0>        -0.0534
     20 C16         2.3978    1.0236    3.1365 C.ar      1 <0>        -0.1047
     21 C17         2.1711    1.6866    4.3335 C.ar      1 <0>         0.0369
     22 C18         1.3992    1.0876    5.3278 C.ar      1 <0>         0.0243
     23 C19         0.8552   -0.1666    5.1182 C.ar      1 <0>        -0.0693
     24 O1          1.3281    1.9361    6.3950 O.3       1 <0>        -0.3092
     25 C20         2.3982    2.8808    6.2069 C.3       1 <0>         0.2134
     26 O2          2.5823    2.9098    4.7793 O.3       1 <0>        -0.3101
     27 H2          1.0042    1.8801    0.0026 H         1 <0>         0.0818
     28 H3         -0.5455    1.8639   -0.8728 H         1 <0>         0.0768
     29 H4         -0.5286    1.8543    0.9071 H         1 <0>         0.0800
     30 H5         -0.0067   -0.1311   -2.1353 H         1 <0>         0.1381
     31 H6          0.0270   -2.6159   -2.1403 H         1 <0>         0.1384
     32 H7          0.0536   -3.8122    0.0348 H         1 <0>         0.1283
     33 H8          1.4846   -6.2156    4.7277 H         1 <0>         0.0649
     34 H9          0.2439   -7.4736    4.9433 H         1 <0>         0.0715
     35 H10         0.4791   -6.7197    3.3481 H         1 <0>         0.0534
     36 H11        -1.2516   -4.4647    6.5458 H         1 <0>         0.0616
     37 H12        -0.7667   -6.1567    6.8106 H         1 <0>         0.0625
     38 H13         0.4739   -4.8988    6.5950 H         1 <0>         0.0700
     39 H14        -1.9430   -6.1104    3.2790 H         1 <0>         0.0521
     40 H15        -2.1781   -6.8643    4.8742 H         1 <0>         0.0744
     41 H16        -2.6630   -5.1722    4.6094 H         1 <0>         0.0633
     42 H17         2.0399   -0.7428    1.9915 H         1 <0>         0.1286
     43 H18         2.9966    1.4897    2.3679 H         1 <0>         0.1332
     44 H19         0.2535   -0.6301    5.8860 H         1 <0>         0.1373
     45 H20         2.1096    3.8649    6.5760 H         1 <0>         0.1307
     46 H21         3.3053    2.5356    6.7030 H         1 <0>         0.0833
@<TRIPOS>BOND
     1    1    2 1
     2    1   27 1
     3    1   28 1
     4    1   29 1
     5    2    7 ar
     6    2    3 ar
     7    3    4 ar
     8    3   30 1
     9    4    5 ar
    10    4   31 1
    11    5    6 ar
    12    5   32 1
    13    6    7 ar
    14    6    8 1
    15    8   12 1
    16    8    9 2
    17    9   10 1
    18    9   18 1
    19   10   11 2
    20   11   12 1
    21   11   14 1
    22   12   13 1
    23   14   15 1
    24   14   16 1
    25   14   17 1
    26   15   33 1
    27   15   34 1
    28   15   35 1
    29   16   36 1
    30   16   37 1
    31   16   38 1
    32   17   39 1
    33   17   40 1
    34   17   41 1
    35   18   23 ar
    36   18   19 ar
    37   19   20 ar
    38   19   42 1
    39   20   21 ar
    40   20   43 1
    41   21   26 1
    42   21   22 ar
    43   22   23 ar
    44   22   24 1
    45   23   44 1
    46   24   25 1
    47   25   26 1
    48   25   45 1
    49   25   46 1
@<TRIPOS>MOLECULE
ZINC16052825
   46    49     0     0     0
SMALL
USER_CHARGES

@<TRIPOS>ATOM
      1 C1         -0.0184    1.5028    0.0103 C.3       1 <0>        -0.1035
      2 C2          0.0021   -0.0041    0.0020 C.ar      1 <0>         0.1324
      3 C3          0.0056   -0.6792   -1.2044 C.ar      1 <0>        -0.1736
      4 C4          0.0249   -2.0673   -1.2086 C.ar      1 <0>        -0.0726
      5 C5          0.0401   -2.7316    0.0047 C.ar      1 <0>        -0.1485
      6 C6          0.0355   -1.9875    1.1847 C.ar      1 <0>         0.2109
      7 N1          0.0218   -0.6599    1.1447 N.ar      1 <0>        -0.4687
      8 C7          0.0515   -2.6825    2.4911 C.2       1 <0>         0.0611
      9 C8          0.5166   -2.1659    3.6874 C.2       1 <0>         0.0621
     10 N2          0.3381   -3.1526    4.6270 N.pl3     1 <0>        -0.5579
     11 H1          0.5662   -3.0981    5.5683 H         1 <0>         0.4221
     12 C9         -0.2172   -4.2175    3.9942 C.2       1 <0>         0.2384
     13 N3         -0.3894   -3.9320    2.7345 N.2       1 <0>        -0.4601
     14 C10        -0.5831   -5.5250    4.6482 C.3       1 <0>         0.0164
     15 C11        -1.8554   -5.3417    5.4780 C.3       1 <0>        -0.1431
     16 C12        -0.8250   -6.5840    3.5708 C.3       1 <0>        -0.1293
     17 C13         0.5597   -5.9766    5.5598 C.3       1 <0>        -0.1475
     18 C14         1.0900   -0.8234    3.9098 C.ar      1 <0>         0.0022
     19 C15         2.0271   -0.3050    3.0134 C.ar      1 <0>        -0.0495
     20 C16         2.5608    0.9492    3.2228 C.ar      1 <0>        -0.0974
     21 C17         2.1706    1.6996    4.3225 C.ar      1 <0>         0.0411
     22 C18         1.2355    1.1878    5.2214 C.ar      1 <0>         0.0318
     23 C19         0.6923   -0.0665    5.0139 C.ar      1 <0>        -0.0897
     24 O1          1.0253    2.1115    6.2047 O.3       1 <0>        -0.3087
     25 C20         2.1400    3.0191    6.1240 C.3       1 <0>         0.2132
     26 O2          2.5443    2.9431    4.7443 O.3       1 <0>        -0.3072
     27 H2          1.0042    1.8801    0.0026 H         1 <0>         0.0778
     28 H3         -0.5455    1.8639   -0.8728 H         1 <0>         0.0745
     29 H4         -0.5286    1.8543    0.9071 H         1 <0>         0.0758
     30 H5         -0.0069   -0.1316   -2.1352 H         1 <0>         0.1340
     31 H6          0.0276   -2.6164   -2.1385 H         1 <0>         0.1361
     32 H7          0.0549   -3.8110    0.0380 H         1 <0>         0.1392
     33 H8         -2.6695   -5.0200    4.8286 H         1 <0>         0.0641
     34 H9         -2.1200   -6.2874    5.9511 H         1 <0>         0.0709
     35 H10        -1.6830   -4.5872    6.2456 H         1 <0>         0.0537
     36 H11         0.0814   -6.7146    2.9796 H         1 <0>         0.0612
     37 H12        -1.0896   -7.5297    4.0439 H         1 <0>         0.0622
     38 H13        -1.6392   -6.2623    2.9214 H         1 <0>         0.0690
     39 H14         0.7321   -5.2221    6.3273 H         1 <0>         0.0526
     40 H15         0.2951   -6.9223    6.0328 H         1 <0>         0.0736
     41 H16         1.4661   -6.1072    4.9686 H         1 <0>         0.0631
     42 H17         2.3339   -0.8863    2.1566 H         1 <0>         0.1324
     43 H18         3.2853    1.3485    2.5285 H         1 <0>         0.1378
     44 H19        -0.0354   -0.4621    5.7070 H         1 <0>         0.1302
     45 H20         1.8277    4.0325    6.3763 H         1 <0>         0.1330
     46 H21         2.9481    2.6923    6.7784 H         1 <0>         0.0850
@<TRIPOS>BOND
     1    1    2 1
     2    1   27 1
     3    1   28 1
     4    1   29 1
     5    2    7 ar
     6    2    3 ar
     7    3    4 ar
     8    3   30 1
     9    4    5 ar
    10    4   31 1
    11    5    6 ar
    12    5   32 1
    13    6    7 ar
    14    6    8 1
    15    8   13 1
    16    8    9 2
    17    9   10 1
    18    9   18 1
    19   10   11 1
    20   10   12 1
    21   12   13 2
    22   12   14 1
    23   14   15 1
    24   14   16 1
    25   14   17 1
    26   15   33 1
    27   15   34 1
    28   15   35 1
    29   16   36 1
    30   16   37 1
    31   16   38 1
    32   17   39 1
    33   17   40 1
    34   17   41 1
    35   18   23 ar
    36   18   19 ar
    37   19   20 ar
    38   19   42 1
    39   20   21 ar
    40   20   43 1
    41   21   26 1
    42   21   22 ar
    43   22   23 ar
    44   22   24 1
    45   23   44 1
    46   24   25 1
    47   25   26 1
    48   25   45 1
    49   25   46 1
@<TRIPOS>MOLECULE
ZINC16052804
   35    38     0     0     0
SMALL
USER_CHARGES

@<TRIPOS>ATOM
      1 C1         -0.7538    1.6069    0.3240 C.3       1 <0>        -0.1019
      2 C2         -0.5750    0.1138    0.2265 C.ar      1 <0>         0.1331
      3 C3         -0.6852   -0.5074   -1.0040 C.ar      1 <0>        -0.1652
      4 C4         -0.5199   -1.8825   -1.0896 C.ar      1 <0>        -0.0731
      5 C5         -0.2485   -2.5888    0.0694 C.ar      1 <0>        -0.1469
      6 C6         -0.1511   -1.8984    1.2759 C.ar      1 <0>         0.2061
      7 N1         -0.3107   -0.5814    1.3139 N.ar      1 <0>        -0.4488
      8 C7          0.1386   -2.6402    2.5262 C.2       1 <0>         0.1557
      9 C8          0.7597   -2.1117    3.6874 C.2       1 <0>        -0.1738
     10 C9          0.8377   -3.1195    4.6036 C.2       1 <0>         0.0883
     11 N2          0.2960   -4.2224    4.0512 N.pl3     1 <0>        -0.4592
     12 H1          0.2173   -5.0899    4.4781 H         1 <0>         0.4483
     13 N3         -0.1392   -3.9040    2.7594 N.2       1 <0>        -0.2723
     14 C10         1.2362   -0.7214    3.8709 C.ar      1 <0>         0.2576
     15 C11         0.9140   -0.0339    5.0536 C.ar      1 <0>        -0.1455
     16 C12         1.3458    1.2446    5.2349 C.ar      1 <0>        -0.0438
     17 C13         2.1135    1.8448    4.2139 C.ar      1 <0>         0.0713
     18 C14         2.4033    1.0971    3.0463 C.ar      1 <0>         0.0926
     19 N4          1.9591   -0.1556    2.9228 N.ar      1 <0>        -0.4411
     20 C15         3.1701    1.6998    2.0293 C.ar      1 <0>        -0.0449
     21 C16         3.5999    2.9823    2.2179 C.ar      1 <0>        -0.1610
     22 C17         3.2775    3.6589    3.3921 C.ar      1 <0>         0.1269
     23 N5          2.5640    3.0950    4.3370 N.ar      1 <0>        -0.4646
     24 H2          0.1906    2.1015    0.0968 H         1 <0>         0.0763
     25 H3         -1.5133    1.9292   -0.3882 H         1 <0>         0.0763
     26 H4         -1.0679    1.8701    1.3341 H         1 <0>         0.0732
     27 H5         -0.8982    0.0722   -1.8901 H         1 <0>         0.1359
     28 H6         -0.6016   -2.3903   -2.0392 H         1 <0>         0.1385
     29 H7         -0.1145   -3.6601    0.0392 H         1 <0>         0.1383
     30 H8          1.2592   -3.0463    5.5953 H         1 <0>         0.1887
     31 H9          0.3244   -0.5189    5.8175 H         1 <0>         0.1413
     32 H10         1.1063    1.7865    6.1379 H         1 <0>         0.1468
     33 H11         3.4119    1.1616    1.1247 H         1 <0>         0.1418
     34 H12         4.1898    3.4717    1.4570 H         1 <0>         0.1426
     35 H13         3.6243    4.6726    3.5280 H         1 <0>         0.1627
@<TRIPOS>BOND
     1    1    2 1
     2    1   24 1
     3    1   25 1
     4    1   26 1
     5    2    7 ar
     6    2    3 ar
     7    3    4 ar
     8    3   27 1
     9    4    5 ar
    10    4   28 1
    11    5    6 ar
    12    5   29 1
    13    6    7 ar
    14    6    8 1
    15    8   13 2
    16    8    9 1
    17    9   10 2
    18    9   14 1
    19   10   11 1
    20   10   30 1
    21   11   12 1
    22   11   13 1
    23   14   19 ar
    24   14   15 ar
    25   15   16 ar
    26   15   31 1
    27   16   17 ar
    28   16   32 1
    29   17   23 ar
    30   17   18 ar
    31   18   19 ar
    32   18   20 ar
    33   20   21 ar
    34   20   33 1
    35   21   22 ar
    36   21   34 1
    37   22   23 ar
    38   22   35 1
@<TRIPOS>MOLECULE
ZINC16052804
   35    38     0     0     0
SMALL
USER_CHARGES

@<TRIPOS>ATOM
      1 C1         -0.7572    1.6055    0.3252 C.3       1 <0>        -0.1043
      2 C2         -0.5760    0.1126    0.2270 C.ar      1 <0>         0.1400
      3 C3         -0.6848   -0.5080   -1.0045 C.ar      1 <0>        -0.1629
      4 C4         -0.5169   -1.8829   -1.0920 C.ar      1 <0>        -0.0662
      5 C5         -0.2443   -2.5905    0.0656 C.ar      1 <0>        -0.1653
      6 C6         -0.1482   -1.9004    1.2748 C.ar      1 <0>         0.1891
      7 N1         -0.3109   -0.5822    1.3138 N.ar      1 <0>        -0.4426
      8 C7          0.1417   -2.6404    2.5199 C.2       1 <0>         0.1659
      9 C8          0.7489   -2.1314    3.6621 C.2       1 <0>        -0.1635
     10 C9          0.8242   -3.1801    4.5968 C.2       1 <0>         0.0757
     11 N2          0.3006   -4.2507    4.0624 N.2       1 <0>        -0.2713
     12 N3         -0.1404   -3.9488    2.7689 N.pl3     1 <0>        -0.4607
     13 H1         -0.5703   -4.5652    2.1556 H         1 <0>         0.4436
     14 C10         1.2276   -0.7444    3.8581 C.ar      1 <0>         0.2580
     15 C11         0.9039   -0.0658    5.0459 C.ar      1 <0>        -0.1421
     16 C12         1.3383    1.2101    5.2389 C.ar      1 <0>        -0.0439
     17 C13         2.1101    1.8169    4.2250 C.ar      1 <0>         0.0718
     18 C14         2.4013    1.0783    3.0518 C.ar      1 <0>         0.0920
     19 N4          1.9542   -0.1720    2.9164 N.ar      1 <0>        -0.4454
     20 C15         3.1722    1.6877    2.0418 C.ar      1 <0>        -0.0460
     21 C16         3.6045    2.9675    2.2423 C.ar      1 <0>        -0.1609
     22 C17         3.2806    3.6350    3.4214 C.ar      1 <0>         0.1265
     23 N5          2.5632    3.0649    4.3597 N.ar      1 <0>        -0.4640
     24 H2          0.1865    2.1017    0.0986 H         1 <0>         0.0788
     25 H3         -1.5170    1.9269   -0.3871 H         1 <0>         0.0782
     26 H4         -1.0721    1.8675    1.3353 H         1 <0>         0.0753
     27 H5         -0.8987    0.0721   -1.8900 H         1 <0>         0.1389
     28 H6         -0.5976   -2.3895   -2.0424 H         1 <0>         0.1409
     29 H7         -0.1084   -3.6614    0.0337 H         1 <0>         0.1325
     30 H8          1.2447   -3.1116    5.5892 H         1 <0>         0.1948
     31 H9          0.3111   -0.5558    5.8042 H         1 <0>         0.1436
     32 H10         1.0977    1.7450    6.1458 H         1 <0>         0.1474
     33 H11         3.4152    1.1565    1.1334 H         1 <0>         0.1409
     34 H12         4.1975    3.4619    1.4872 H         1 <0>         0.1424
     35 H13         3.6292    4.6468    3.5666 H         1 <0>         0.1627
@<TRIPOS>BOND
     1    1    2 1
     2    1   24 1
     3    1   25 1
     4    1   26 1
     5    2    7 ar
     6    2    3 ar
     7    3    4 ar
     8    3   27 1
     9    4    5 ar
    10    4   28 1
    11    5    6 ar
    12    5   29 1
    13    6    7 ar
    14    6    8 1
    15    8   12 1
    16    8    9 2
    17    9   10 1
    18    9   14 1
    19   10   11 2
    20   10   30 1
    21   11   12 1
    22   12   13 1
    23   14   19 ar
    24   14   15 ar
    25   15   16 ar
    26   15   31 1
    27   16   17 ar
    28   16   32 1
    29   17   23 ar
    30   17   18 ar
    31   18   19 ar
    32   18   20 ar
    33   20   21 ar
    34   20   33 1
    35   21   22 ar
    36   21   34 1
    37   22   23 ar
    38   22   35 1
@<TRIPOS>MOLECULE
ZINC13684484
   55    59     0     0     0
SMALL
USER_CHARGES
4-[4-[3-(2-pyridyl)-1H-pyrazol-4-yl]-2-pyridyl]-N-tetrahydropyran-4-yl-benzamide
@<TRIPOS>ATOM
      1 C1         -9.6818    4.7282  -10.3765 C.ar      1 <0>        -0.0755
      2 C2         -9.9540    5.0319   -9.0497 C.ar      1 <0>        -0.1624
      3 C3         -8.9548    4.8961   -8.1042 C.ar      1 <0>         0.1040
      4 N1         -7.7525    4.4784   -8.4455 N.ar      1 <0>        -0.4563
      5 C4         -7.4501    4.1828   -9.7032 C.ar      1 <0>         0.1901
      6 C5         -8.4095    4.2969  -10.7079 C.ar      1 <0>        -0.1395
      7 C6         -6.0825    3.7217  -10.0415 C.2       1 <0>         0.1398
      8 C7         -4.9000    4.0069   -9.3121 C.2       1 <0>        -0.1822
      9 C8         -3.8641    3.4016   -9.9594 C.2       1 <0>         0.0819
     10 N2         -4.3661    2.7617  -11.0345 N.pl3     1 <0>        -0.4628
     11 H1         -3.8395    2.2254  -11.6941 H         1 <0>         0.4547
     12 N3         -5.7492    2.9748  -11.0714 N.2       1 <0>        -0.2689
     13 C9         -4.8067    4.8197   -8.0756 C.ar      1 <0>         0.0622
     14 C10        -5.3941    6.0876   -8.0041 C.ar      1 <0>        -0.1353
     15 C11        -5.2869    6.8150   -6.8361 C.ar      1 <0>         0.1082
     16 N4         -4.6462    6.3311   -5.7908 N.ar      1 <0>        -0.4773
     17 C12        -4.0684    5.1361   -5.8135 C.ar      1 <0>         0.1595
     18 C13        -4.1306    4.3398   -6.9522 C.ar      1 <0>        -0.1501
     19 C14        -3.3546    4.6428   -4.6107 C.ar      1 <0>        -0.0149
     20 C15        -3.2883    5.4361   -3.4654 C.ar      1 <0>        -0.0881
     21 C16        -2.6258    4.9790   -2.3481 C.ar      1 <0>        -0.0614
     22 C17        -2.0201    3.7204   -2.3619 C.ar      1 <0>        -0.1312
     23 C18        -2.0826    2.9291   -3.5112 C.ar      1 <0>        -0.0881
     24 C19        -2.7497    3.3860   -4.6258 C.ar      1 <0>        -0.1110
     25 C20        -1.3085    3.2291   -1.1636 C.2       1 <0>         0.5603
     26 O1         -1.2500    3.9203   -0.1653 O.2       1 <0>        -0.5325
     27 N5         -0.7242    2.0146   -1.1775 N.am      1 <0>        -0.7230
     28 C21        -0.0187    1.5275    0.0104 C.3       1 <0>         0.1438
     29 C22         1.4223    2.0468   -0.0005 C.3       1 <0>        -0.1672
     30 C23         2.1738    1.4693    1.2018 C.3       1 <0>         0.0627
     31 O2          2.1285    0.0420    1.1493 O.3       1 <0>        -0.3812
     32 C24         0.8084   -0.5023    1.2042 C.3       1 <0>         0.0640
     33 C25         0.0021   -0.0041    0.0020 C.3       1 <0>        -0.1645
     34 H2        -10.4460    4.8268  -11.1333 H         1 <0>         0.1396
     35 H3        -10.9371    5.3714   -8.7588 H         1 <0>         0.1390
     36 H4         -9.1636    5.1313   -7.0710 H         1 <0>         0.1603
     37 H5         -8.1632    4.0524  -11.7306 H         1 <0>         0.1397
     38 H6         -2.8261    3.4280   -9.6623 H         1 <0>         0.1863
     39 H7         -5.9250    6.4924   -8.8530 H         1 <0>         0.1255
     40 H8         -5.7390    7.7939   -6.7761 H         1 <0>         0.1566
     41 H9         -3.6634    3.3662   -6.9672 H         1 <0>         0.1339
     42 H10        -3.7564    6.4093   -3.4550 H         1 <0>         0.1440
     43 H11        -2.5749    5.5932   -1.4612 H         1 <0>         0.1398
     44 H12        -1.6112    1.9575   -3.5243 H         1 <0>         0.1276
     45 H13        -2.8014    2.7727   -5.5132 H         1 <0>         0.1327
     46 H14        -0.7708    1.4631   -1.9741 H         1 <0>         0.4002
     47 H15        -0.5266    1.8804    0.9080 H         1 <0>         0.0922
     48 H16         1.9148    1.7353   -0.9217 H         1 <0>         0.0745
     49 H17         1.4178    3.1351    0.0612 H         1 <0>         0.0807
     50 H18         1.7049    1.8143    2.1234 H         1 <0>         0.0549
     51 H19         3.2116    1.8013    1.1754 H         1 <0>         0.0988
     52 H20         0.3216   -0.1832    2.1258 H         1 <0>         0.0551
     53 H21         0.8624   -1.5907    1.1798 H         1 <0>         0.1004
     54 H22        -1.0181   -0.3825    0.0655 H         1 <0>         0.0819
     55 H23         0.4658   -0.3570   -0.9191 H         1 <0>         0.0786
@<TRIPOS>BOND
     1    1    6 ar
     2    1    2 ar
     3    1   34 1
     4    2    3 ar
     5    2   35 1
     6    3    4 ar
     7    3   36 1
     8    4    5 ar
     9    5    6 ar
    10    5    7 1
    11    6   37 1
    12    7   12 2
    13    7    8 1
    14    8    9 2
    15    8   13 1
    16    9   10 1
    17    9   38 1
    18   10   11 1
    19   10   12 1
    20   13   18 ar
    21   13   14 ar
    22   14   15 ar
    23   14   39 1
    24   15   16 ar
    25   15   40 1
    26   16   17 ar
    27   17   18 ar
    28   17   19 1
    29   18   41 1
    30   19   24 ar
    31   19   20 ar
    32   20   21 ar
    33   20   42 1
    34   21   22 ar
    35   21   43 1
    36   22   23 ar
    37   22   25 1
    38   23   24 ar
    39   23   44 1
    40   24   45 1
    41   25   26 2
    42   25   27 am
    43   27   28 1
    44   27   46 1
    45   28   33 1
    46   28   29 1
    47   28   47 1
    48   29   30 1
    49   29   48 1
    50   29   49 1
    51   30   31 1
    52   30   50 1
    53   30   51 1
    54   31   32 1
    55   32   33 1
    56   32   52 1
    57   32   53 1
    58   33   54 1
    59   33   55 1
@<TRIPOS>MOLECULE
ZINC13684424
   43    46     0     0     0
SMALL
USER_CHARGES
methyl 4-[4-[3-(2-pyridyl)-1H-pyrazol-4-yl]-2-pyridyl]benzoate
@<TRIPOS>ATOM
      1 C1          0.6919   13.7102    2.0073 C.3       1 <0>         0.0362
      2 O1          1.0103   12.3542    1.5969 O.3       1 <0>        -0.3555
      3 C2          0.2550   11.8180    0.6185 C.2       1 <0>         0.5074
      4 O2         -0.6449   12.4656    0.1219 O.2       1 <0>        -0.5033
      5 C3          0.5211   10.4433    0.1499 C.ar      1 <0>        -0.1225
      6 C4         -0.2618    9.8867   -0.8648 C.ar      1 <0>        -0.0568
      7 C5         -0.0130    8.6045   -1.3006 C.ar      1 <0>        -0.0935
      8 C6          1.0199    7.8612   -0.7293 C.ar      1 <0>        -0.0051
      9 C7          1.7988    8.4138    0.2874 C.ar      1 <0>        -0.1181
     10 C8          1.5557    9.6978    0.7210 C.ar      1 <0>        -0.0626
     11 C9          1.2861    6.4799   -1.1990 C.ar      1 <0>         0.1571
     12 C10         2.3177    5.7443   -0.6249 C.ar      1 <0>        -0.1485
     13 C11         2.5548    4.4455   -1.0795 C.ar      1 <0>         0.0623
     14 C12         1.7428    3.9426   -2.1018 C.ar      1 <0>        -0.1341
     15 C13         0.7361    4.7355   -2.6145 C.ar      1 <0>         0.1081
     16 N1          0.5379    5.9580   -2.1634 N.ar      1 <0>        -0.4766
     17 C14         3.6429    3.6230   -0.4981 C.2       1 <0>        -0.1828
     18 C15         4.9394    4.0068   -0.3248 C.2       1 <0>         0.0825
     19 N2          5.6046    2.9754    0.2328 N.pl3     1 <0>        -0.4627
     20 H1          6.5756    2.9669    0.4718 H         1 <0>         0.4548
     21 N3          4.7063    1.9183    0.4208 N.2       1 <0>        -0.2690
     22 C16         3.5252    2.2930   -0.0197 C.2       1 <0>         0.1399
     23 C17         2.2899    1.4736   -0.0118 C.ar      1 <0>         0.1902
     24 C18         2.3827    0.0828   -0.0202 C.ar      1 <0>        -0.1394
     25 C19         1.2207   -0.6685   -0.0132 C.ar      1 <0>        -0.0755
     26 C20         0.0021   -0.0041    0.0020 C.ar      1 <0>        -0.1625
     27 C21        -0.0167    1.3781    0.0096 C.ar      1 <0>         0.1041
     28 N4          1.1047    2.0701    0.0026 N.ar      1 <0>        -0.4565
     29 H2          1.3737   14.0195    2.7995 H         1 <0>         0.1041
     30 H3          0.7966   14.3817    1.1551 H         1 <0>         0.0648
     31 H4         -0.3334   13.7471    2.3753 H         1 <0>         0.0648
     32 H5         -1.0621   10.4617   -1.3068 H         1 <0>         0.1413
     33 H6         -0.6180    8.1740   -2.0848 H         1 <0>         0.1467
     34 H7          2.5956    7.8358    0.7317 H         1 <0>         0.1355
     35 H8          2.1616   10.1270    1.5053 H         1 <0>         0.1419
     36 H9          2.9250    6.1706    0.1598 H         1 <0>         0.1351
     37 H10         1.8992    2.9441   -2.4825 H         1 <0>         0.1258
     38 H11         0.1036    4.3498   -3.4004 H         1 <0>         0.1569
     39 H12         5.3591    4.9665   -0.5877 H         1 <0>         0.1866
     40 H13         3.3479   -0.4015   -0.0324 H         1 <0>         0.1396
     41 H14         1.2611   -1.7477   -0.0197 H         1 <0>         0.1395
     42 H15        -0.9228   -0.5618    0.0082 H         1 <0>         0.1389
     43 H16        -0.9633    1.8979    0.0169 H         1 <0>         0.1603
@<TRIPOS>BOND
     1    1    2 1
     2    1   29 1
     3    1   30 1
     4    1   31 1
     5    2    3 1
     6    3    4 2
     7    3    5 1
     8    5   10 ar
     9    5    6 ar
    10    6    7 ar
    11    6   32 1
    12    7    8 ar
    13    7   33 1
    14    8    9 ar
    15    8   11 1
    16    9   10 ar
    17    9   34 1
    18   10   35 1
    19   11   16 ar
    20   11   12 ar
    21   12   13 ar
    22   12   36 1
    23   13   14 ar
    24   13   17 1
    25   14   15 ar
    26   14   37 1
    27   15   16 ar
    28   15   38 1
    29   17   22 1
    30   17   18 2
    31   18   19 1
    32   18   39 1
    33   19   20 1
    34   19   21 1
    35   21   22 2
    36   22   23 1
    37   23   28 ar
    38   23   24 ar
    39   24   25 ar
    40   24   40 1
    41   25   26 ar
    42   25   41 1
    43   26   27 ar
    44   26   42 1
    45   27   28 ar
    46   27   43 1
@<TRIPOS>MOLECULE
ZINC00009344
   37    40     0     0     0
SMALL
USER_CHARGES
2-phenyl-4-[3-(2-pyridyl)-1H-pyrazol-4-yl]-pyridine
@<TRIPOS>ATOM
      1 C1         -2.9548    7.2691    3.7124 C.ar      1 <0>        -0.1111
      2 C2         -3.9505    7.0215    2.7846 C.ar      1 <0>        -0.1257
      3 C3         -3.8099    5.9926    1.8756 C.ar      1 <0>        -0.0806
      4 C4         -2.6620    5.2027    1.8933 C.ar      1 <0>        -0.0472
      5 C5         -1.6645    5.4533    2.8337 C.ar      1 <0>        -0.1029
      6 C6         -1.8131    6.4885    3.7343 C.ar      1 <0>        -0.1240
      7 C7         -2.5051    4.0953    0.9187 C.ar      1 <0>         0.1689
      8 C8         -1.3557    3.3128    0.9448 C.ar      1 <0>        -0.1550
      9 C9         -1.2244    2.2749    0.0205 C.ar      1 <0>         0.0627
     10 C10        -2.2591    2.0717   -0.8994 C.ar      1 <0>        -0.1413
     11 C11        -3.3694    2.8893   -0.8557 C.ar      1 <0>         0.1077
     12 N1         -3.4630    3.8614    0.0301 N.ar      1 <0>        -0.4819
     13 C12        -0.0172    1.4141    0.0098 C.2       1 <0>        -0.1811
     14 C13         1.2775    1.8408   -0.0003 C.2       1 <0>         0.0813
     15 N2          2.0715    0.7515   -0.0137 N.pl3     1 <0>        -0.4631
     16 H1          3.0714    0.7571   -0.0232 H         1 <0>         0.4544
     17 N3          1.2595   -0.3889   -0.0121 N.2       1 <0>        -0.2696
     18 C14         0.0021   -0.0041    0.0020 C.2       1 <0>         0.1394
     19 C15        -1.1836   -0.8937    0.0090 C.ar      1 <0>         0.1909
     20 C16        -1.0833   -2.1833   -0.5105 C.ar      1 <0>        -0.1398
     21 C17        -2.1987   -3.0021   -0.4970 C.ar      1 <0>        -0.0757
     22 C18        -3.3797   -2.5043    0.0361 C.ar      1 <0>        -0.1629
     23 C19        -3.4085   -1.2153    0.5345 C.ar      1 <0>         0.1040
     24 N4         -2.3304   -0.4579    0.5146 N.ar      1 <0>        -0.4556
     25 H2         -3.0692    8.0751    4.4221 H         1 <0>         0.1230
     26 H3         -4.8397    7.6344    2.7718 H         1 <0>         0.1251
     27 H4         -4.5879    5.8002    1.1516 H         1 <0>         0.1349
     28 H5         -0.7750    4.8411    2.8549 H         1 <0>         0.1247
     29 H6         -1.0387    6.6864    4.4606 H         1 <0>         0.1249
     30 H7         -0.5774    3.5048    1.6686 H         1 <0>         0.1327
     31 H8         -2.1909    1.2816   -1.6326 H         1 <0>         0.1241
     32 H9         -4.1724    2.7337   -1.5610 H         1 <0>         0.1549
     33 H10         1.6083    2.8689    0.0018 H         1 <0>         0.1862
     34 H11        -0.1483   -2.5383   -0.9181 H         1 <0>         0.1396
     35 H12        -2.1516   -4.0059   -0.8927 H         1 <0>         0.1394
     36 H13        -4.2679   -3.1183    0.0609 H         1 <0>         0.1388
     37 H14        -4.3258   -0.8253    0.9503 H         1 <0>         0.1601
@<TRIPOS>BOND
     1    1    6 ar
     2    1    2 ar
     3    1   25 1
     4    2    3 ar
     5    2   26 1
     6    3    4 ar
     7    3   27 1
     8    4    5 ar
     9    4    7 1
    10    5    6 ar
    11    5   28 1
    12    6   29 1
    13    7   12 ar
    14    7    8 ar
    15    8    9 ar
    16    8   30 1
    17    9   10 ar
    18    9   13 1
    19   10   11 ar
    20   10   31 1
    21   11   12 ar
    22   11   32 1
    23   13   18 1
    24   13   14 2
    25   14   15 1
    26   14   33 1
    27   15   16 1
    28   15   17 1
    29   17   18 2
    30   18   19 1
    31   19   24 ar
    32   19   20 ar
    33   20   21 ar
    34   20   34 1
    35   21   22 ar
    36   21   35 1
    37   22   23 ar
    38   22   36 1
    39   23   24 ar
    40   23   37 1
@<TRIPOS>MOLECULE
ZINC13829457
   36    39     0     0     0
SMALL
USER_CHARGES

@<TRIPOS>ATOM
      1 C1          1.0317   -0.4884   -4.9588 C.ar      1 <0>        -0.0441
      2 C2          2.2203    0.2174   -4.9848 C.ar      1 <0>        -0.1479
      3 C3          3.2438   -0.1154   -4.1168 C.ar      1 <0>         0.1712
      4 C4          3.0743   -1.1667   -3.2131 C.ar      1 <0>        -0.0898
      5 C5          1.8731   -1.8737   -3.1927 C.ar      1 <0>        -0.0345
      6 C6          0.8585   -1.5315   -4.0648 C.ar      1 <0>        -0.0631
      7 Cl1        -0.6381   -2.4110   -4.0399 Cl        1 <0>        -0.0511
      8 C7          4.1669   -1.5293   -2.2802 C.ar      1 <0>         0.4343
      9 N1          5.2444   -0.7686   -2.2538 N.ar      1 <0>        -0.4829
     10 C8          6.2643   -1.0437   -1.4330 C.ar      1 <0>         0.3307
     11 C9          6.1677   -2.1756   -0.5847 C.ar      1 <0>        -0.0447
     12 C10         4.9489   -2.9826   -0.6573 C.ar      1 <0>         0.4868
     13 N2          4.0075   -2.6020   -1.5092 N.ar      1 <0>        -0.5606
     14 N3          4.7836   -4.0985    0.1370 N.pl3     1 <0>        -0.6099
     15 C11         3.5676   -4.7790    0.1381 C.ar      1 <0>         0.2896
     16 C12         2.3670   -4.0989   -0.0635 C.ar      1 <0>        -0.1466
     17 C13         1.1849   -4.8093   -0.0551 C.ar      1 <0>         0.1543
     18 N4          1.1812   -6.1145    0.1407 N.ar      1 <0>        -0.4655
     19 C14         2.2959   -6.7939    0.3352 C.ar      1 <0>         0.1621
     20 C15         3.5202   -6.1587    0.3351 C.ar      1 <0>        -0.1660
     21 N5          7.1645   -2.4748    0.2424 N.ar      1 <0>        -0.4033
     22 C16         8.2378   -1.7137    0.2666 C.ar      1 <0>         0.0774
     23 C17         8.3377   -0.5984   -0.5658 C.ar      1 <0>         0.1432
     24 N6          7.3628   -0.2850   -1.3920 N.ar      1 <0>        -0.4099
     25 F1          4.4051    0.5744   -4.1431 F         1 <0>        -0.0964
     26 H1          0.2333   -0.2221   -5.6356 H         1 <0>         0.1548
     27 H2          2.3496    1.0298   -5.6845 H         1 <0>         0.1600
     28 H3          1.7363   -2.6878   -2.4964 H         1 <0>         0.1476
     29 H4          5.5138   -4.4093    0.6948 H         1 <0>         0.4510
     30 H5          2.3629   -3.0309   -0.2237 H         1 <0>         0.1902
     31 H6          0.2502   -4.2909   -0.2105 H         1 <0>         0.2129
     32 H7          2.2491   -7.8614    0.4921 H         1 <0>         0.2143
     33 H8          4.4289   -6.7213    0.4902 H         1 <0>         0.1877
     34 H9          9.0491   -1.9545    0.9376 H         1 <0>         0.1962
     35 H10         9.2261    0.0148   -0.5318 H         1 <0>         0.1987
     36 H11         0.3346   -6.5881    0.1422 H         1 <0>         0.4530
@<TRIPOS>BOND
     1    1    6 ar
     2    1    2 ar
     3    1   26 1
     4    2    3 ar
     5    2   27 1
     6    3    4 ar
     7    3   25 1
     8    4    5 ar
     9    4    8 1
    10    5    6 ar
    11    5   28 1
    12    6    7 1
    13    8   13 ar
    14    8    9 ar
    15    9   10 ar
    16   10   24 ar
    17   10   11 ar
    18   11   12 ar
    19   11   21 ar
    20   12   13 ar
    21   12   14 1
    22   14   15 1
    23   14   29 1
    24   15   20 ar
    25   15   16 ar
    26   16   17 ar
    27   16   30 1
    28   17   18 ar
    29   17   31 1
    30   18   19 ar
    31   18   36 1
    32   19   20 ar
    33   19   32 1
    34   20   33 1
    35   21   22 ar
    36   22   23 ar
    37   22   34 1
    38   23   24 ar
    39   23   35 1
@<TRIPOS>MOLECULE
ZINC14976393
   60    65     0     0     0
SMALL
USER_CHARGES
4-[2-[[4-[2-(2-pyridyl)-5,6-dihydro-4H-pyrrolo[2,1-e]pyrazol-3-yl]-7-quinolyl]oxy]ethyl]morpholine
@<TRIPOS>ATOM
      1 C1         -3.3242    1.9065    4.7950 C.ar      1 <0>        -0.0752
      2 C2         -1.9644    2.0546    5.0312 C.ar      1 <0>        -0.1632
      3 C3         -1.0743    1.9096    3.9835 C.ar      1 <0>         0.1057
      4 N1         -1.4995    1.6285    2.7684 N.ar      1 <0>        -0.4533
      5 C4         -2.7909    1.4841    2.4995 C.ar      1 <0>         0.1968
      6 C5         -3.7435    1.6167    3.5086 C.ar      1 <0>        -0.1407
      7 C6         -3.2236    1.1734    1.1163 C.2       1 <0>         0.1411
      8 C7         -2.4972    1.4878   -0.1137 C.2       1 <0>        -0.1745
      9 C8         -3.2580    1.0174   -1.1493 C.2       1 <0>         0.0844
     10 N2         -4.3673    0.4560   -0.6379 N.pl3     1 <0>        -0.3862
     11 N3         -4.3334    0.5666    0.7629 N.2       1 <0>        -0.2472
     12 C9         -5.2274   -0.0783   -1.7093 C.3       1 <0>         0.1238
     13 C10        -4.7395    0.5969   -3.0084 C.3       1 <0>        -0.1266
     14 C11        -3.2686    0.9192   -2.6610 C.3       1 <0>        -0.0660
     15 C12        -1.1910    2.1750   -0.2176 C.ar      1 <0>         0.0961
     16 C13        -1.1149    3.5586   -0.3307 C.ar      1 <0>        -0.1857
     17 C14         0.1260    4.1718   -0.4322 C.ar      1 <0>         0.1457
     18 N4          1.2431    3.4825   -0.4195 N.ar      1 <0>        -0.4860
     19 C15         1.2471    2.1494   -0.3084 C.ar      1 <0>         0.1717
     20 C16         0.0238    1.4443   -0.2005 C.ar      1 <0>        -0.1044
     21 C17         0.0301    0.0475   -0.0854 C.ar      1 <0>        -0.0339
     22 C18         1.2126   -0.6263   -0.0776 C.ar      1 <0>        -0.1986
     23 C19         2.4268    0.0589   -0.1834 C.ar      1 <0>         0.1500
     24 C20         2.4536    1.4301   -0.2982 C.ar      1 <0>        -0.1473
     25 O1          3.5934   -0.6368   -0.1731 O.3       1 <0>        -0.2942
     26 C21         3.5005   -2.0576   -0.0519 C.3       1 <0>         0.0637
     27 C22         4.9055   -2.6631   -0.0587 C.3       1 <0>         0.0533
     28 N5          5.6357   -2.2194    1.1362 N.3       1 <0>        -0.5294
     29 C23         7.0861   -2.3795    0.9571 C.3       1 <0>         0.0177
     30 C24         7.8096   -1.8512    2.1986 C.3       1 <0>         0.0609
     31 O2          7.3275   -2.5411    3.3548 O.3       1 <0>        -0.3851
     32 C25         5.9186   -2.4060    3.5601 C.3       1 <0>         0.0620
     33 C26         5.1759   -2.9399    2.3324 C.3       1 <0>         0.0135
     34 H1         -4.0389    2.0154    5.5972 H         1 <0>         0.1394
     35 H2         -1.6052    2.2813    6.0242 H         1 <0>         0.1388
     36 H3         -0.0157    2.0239    4.1642 H         1 <0>         0.1594
     37 H4         -4.7940    1.4952    3.2893 H         1 <0>         0.1387
     38 H5         -5.1149   -1.1714   -1.7589 H         1 <0>         0.0923
     39 H6         -6.2770    0.1730   -1.4966 H         1 <0>         0.0962
     40 H7         -4.8424   -0.1062   -3.8481 H         1 <0>         0.1067
     41 H8         -5.3449    1.4940   -3.2051 H         1 <0>         0.0917
     42 H9         -2.9423    1.8768   -3.0929 H         1 <0>         0.1002
     43 H10        -2.5838    0.1202   -2.9814 H         1 <0>         0.1007
     44 H11        -2.0168    4.1526   -0.3441 H         1 <0>         0.1303
     45 H12         0.1740    5.2468   -0.5239 H         1 <0>         0.1569
     46 H13        -0.9013   -0.4929   -0.0033 H         1 <0>         0.1228
     47 H14         1.2131   -1.7027    0.0110 H         1 <0>         0.1273
     48 H15         3.3967    1.9500   -0.3794 H         1 <0>         0.1404
     49 H16         2.9958   -2.3129    0.8916 H         1 <0>         0.0633
     50 H17         2.9234   -2.4608   -0.8971 H         1 <0>         0.0679
     51 H18         4.8318   -3.7606   -0.0569 H         1 <0>         0.0615
     52 H19         5.4426   -2.3332   -0.9602 H         1 <0>         0.0900
     53 H20         7.3230   -3.4446    0.8178 H         1 <0>         0.0431
     54 H21         7.4110   -1.8128    0.0721 H         1 <0>         0.0898
     55 H22         8.8913   -2.0208    2.0925 H         1 <0>         0.1003
     56 H23         7.6161   -0.7736    2.3050 H         1 <0>         0.0627
     57 H24         5.6210   -2.9805    4.4497 H         1 <0>         0.0993
     58 H25         5.6698   -1.3449    3.7088 H         1 <0>         0.0622
     59 H26         4.0943   -2.7858    2.4601 H         1 <0>         0.0854
     60 H27         5.3819   -4.0141    2.2153 H         1 <0>         0.0440
@<TRIPOS>BOND
     1    1    6 ar
     2    1    2 ar
     3    1   34 1
     4    2    3 ar
     5    2   35 1
     6    3    4 ar
     7    3   36 1
     8    4    5 ar
     9    5    6 ar
    10    5    7 1
    11    6   37 1
    12    7   11 2
    13    7    8 1
    14    8    9 2
    15    8   15 1
    16    9   14 1
    17    9   10 1
    18   10   11 1
    19   10   12 1
    20   12   13 1
    21   12   38 1
    22   12   39 1
    23   13   14 1
    24   13   40 1
    25   13   41 1
    26   14   42 1
    27   14   43 1
    28   15   20 ar
    29   15   16 ar
    30   16   17 ar
    31   16   44 1
    32   17   18 ar
    33   17   45 1
    34   18   19 ar
    35   19   24 ar
    36   19   20 ar
    37   20   21 ar
    38   21   22 ar
    39   21   46 1
    40   22   23 ar
    41   22   47 1
    42   23   24 ar
    43   23   25 1
    44   24   48 1
    45   25   26 1
    46   26   27 1
    47   26   49 1
    48   26   50 1
    49   27   28 1
    50   27   51 1
    51   27   52 1
    52   28   33 1
    53   28   29 1
    54   29   30 1
    55   29   53 1
    56   29   54 1
    57   30   31 1
    58   30   55 1
    59   30   56 1
    60   31   32 1
    61   32   33 1
    62   32   57 1
    63   32   58 1
    64   33   59 1
    65   33   60 1
@<TRIPOS>MOLECULE
ZINC14976376
   41    45     0     0     0
SMALL
USER_CHARGES

@<TRIPOS>ATOM
      1 C1         -0.0167    1.3795    0.0096 C.ar      1 <0>        -0.0747
      2 C2          1.1938    2.0587    0.0017 C.ar      1 <0>        -0.1637
      3 C3          2.3746    1.3401   -0.0134 C.ar      1 <0>         0.1050
      4 N1          2.3647    0.0224   -0.0204 N.ar      1 <0>        -0.4562
      5 C4          1.2295   -0.6646   -0.0133 C.ar      1 <0>         0.1980
      6 C5          0.0021   -0.0041    0.0020 C.ar      1 <0>        -0.1407
      7 C6          1.2669   -2.1463   -0.0216 C.2       1 <0>         0.1410
      8 C7          2.3520   -2.9862   -0.5281 C.2       1 <0>        -0.1739
      9 C8          1.9636   -4.2847   -0.3387 C.2       1 <0>         0.0871
     10 N2          0.7492   -4.2829    0.2378 N.pl3     1 <0>        -0.3846
     11 N3          0.3346   -2.9536    0.4296 N.2       1 <0>        -0.2455
     12 C9          0.2787   -5.6595    0.4758 C.3       1 <0>         0.1287
     13 C10         1.1569   -6.5586   -0.4198 C.3       1 <0>        -0.1316
     14 C11         2.4383   -5.7063   -0.5593 C.3       1 <0>        -0.0694
     15 C12         3.6223   -2.5223   -1.1283 C.ar      1 <0>         0.0849
     16 C13         4.7474   -2.2978   -0.3430 C.ar      1 <0>        -0.1530
     17 C14         5.9237   -1.8628   -0.9372 C.ar      1 <0>         0.1418
     18 N4          6.0110   -1.6532   -2.2300 N.ar      1 <0>        -0.4817
     19 C15         4.9699   -1.8481   -3.0472 C.ar      1 <0>         0.1465
     20 C16         3.7333   -2.2978   -2.5237 C.ar      1 <0>        -0.0960
     21 C17         2.6458   -2.5070   -3.3827 C.ar      1 <0>        -0.0691
     22 C18         2.7840   -2.2826   -4.7180 C.ar      1 <0>        -0.1450
     23 C19         4.0018   -1.8447   -5.2472 C.ar      1 <0>         0.1242
     24 C20         5.0843   -1.6179   -4.4282 C.ar      1 <0>        -0.1260
     25 O1          4.1143   -1.6288   -6.5836 O.3       1 <0>        -0.4968
     26 H1         -0.9522    1.9188    0.0259 H         1 <0>         0.1398
     27 H2          1.2130    3.1385    0.0070 H         1 <0>         0.1391
     28 H3          3.3180    1.8657   -0.0200 H         1 <0>         0.1604
     29 H4         -0.9212   -0.5643    0.0082 H         1 <0>         0.1393
     30 H5          0.4115   -5.9272    1.5240 H         1 <0>         0.0936
     31 H6         -0.7695   -5.7538    0.1920 H         1 <0>         0.0966
     32 H7          1.3711   -7.5080    0.0708 H         1 <0>         0.1068
     33 H8          0.6878   -6.7197   -1.3905 H         1 <0>         0.0906
     34 H9          2.8632   -5.8164   -1.5570 H         1 <0>         0.0986
     35 H10         3.1679   -5.9871    0.2003 H         1 <0>         0.1008
     36 H11         4.7060   -2.4608    0.7238 H         1 <0>         0.1339
     37 H12         6.7919   -1.6914   -0.3182 H         1 <0>         0.1593
     38 H13         1.7002   -2.8459   -2.9859 H         1 <0>         0.1263
     39 H14         1.9435   -2.4451   -5.3764 H         1 <0>         0.1311
     40 H15         6.0205   -1.2790   -4.8466 H         1 <0>         0.1412
     41 H16         3.8948   -0.7274   -6.8563 H         1 <0>         0.3935
@<TRIPOS>BOND
     1    1    6 ar
     2    1    2 ar
     3    1   26 1
     4    2    3 ar
     5    2   27 1
     6    3    4 ar
     7    3   28 1
     8    4    5 ar
     9    5    6 ar
    10    5    7 1
    11    6   29 1
    12    7   11 2
    13    7    8 1
    14    8    9 2
    15    8   15 1
    16    9   14 1
    17    9   10 1
    18   10   11 1
    19   10   12 1
    20   12   13 1
    21   12   30 1
    22   12   31 1
    23   13   14 1
    24   13   32 1
    25   13   33 1
    26   14   34 1
    27   14   35 1
    28   15   20 ar
    29   15   16 ar
    30   16   17 ar
    31   16   36 1
    32   17   18 ar
    33   17   37 1
    34   18   19 ar
    35   19   24 ar
    36   19   20 ar
    37   20   21 ar
    38   21   22 ar
    39   21   38 1
    40   22   23 ar
    41   22   39 1
    42   23   24 ar
    43   23   25 1
    44   24   40 1
    45   25   41 1
@<TRIPOS>MOLECULE
ZINC14976376
   42    46     0     0     0
SMALL
USER_CHARGES
4-[2-(2-pyridyl)-5,6-dihydro-4H-pyrrolo[2,1-e]pyrazol-3-yl]-1H-quinolin-7-one
@<TRIPOS>ATOM
      1 C1         -0.0167    1.3838    0.0097 C.ar      1 <0>        -0.0689
      2 C2          0.0021   -0.0041    0.0020 C.ar      1 <0>        -0.1533
      3 C3          1.2158   -0.6658   -0.0131 C.ar      1 <0>         0.1030
      4 N1          2.3511    0.0030   -0.0204 N.ar      1 <0>        -0.4725
      5 C4          2.3767    1.3297   -0.0135 C.ar      1 <0>         0.1825
      6 C5          1.1900    2.0609    0.0018 C.ar      1 <0>        -0.1315
      7 C6          3.6777    2.0398   -0.0226 C.2       1 <0>         0.1646
      8 C7          4.9586    1.5177    0.4596 C.2       1 <0>        -0.2503
      9 C8          5.8887    2.5196    0.2562 C.2       1 <0>         0.1131
     10 N2          5.2611    3.5660   -0.3017 N.pl3     1 <0>        -0.3685
     11 N3          3.9013    3.2528   -0.4692 N.2       1 <0>        -0.2364
     12 C9          6.2041    4.6713   -0.5530 C.3       1 <0>         0.1151
     13 C10         7.4423    4.3657    0.3160 C.3       1 <0>        -0.1281
     14 C11         7.3589    2.8283    0.4493 C.3       1 <0>        -0.0707
     15 C12         5.2063    0.1880    1.0458 C.2       1 <0>         0.2405
     16 C13         5.5613   -0.8995    0.2326 C.2       1 <0>        -0.1844
     17 C14         5.7874   -2.1200    0.7802 C.2       1 <0>         0.2198
     18 N4          5.6815   -2.3336    2.1062 N.pl3     1 <0>        -0.5328
     19 C15         5.3370   -1.3127    2.9612 C.2       1 <0>         0.2245
     20 C16         5.2275   -1.5335    4.3238 C.2       1 <0>        -0.2297
     21 C17         4.8758   -0.4786    5.1679 C.2       1 <0>         0.2704
     22 O1          4.7686   -0.6870    6.4815 O.3       1 <0>        -0.4632
     23 C18         4.6330    0.8043    4.6400 C.2       1 <0>        -0.2087
     24 C19         4.7381    1.0301    3.3049 C.2       1 <0>         0.0038
     25 C20         5.0971   -0.0189    2.4426 C.2       1 <0>        -0.1365
     26 H1         -0.9524    1.9232    0.0170 H         1 <0>         0.1458
     27 H2         -0.9228   -0.5618    0.0082 H         1 <0>         0.1442
     28 H3          1.2337   -1.7456   -0.0195 H         1 <0>         0.1625
     29 H4          1.2122    3.1407    0.0070 H         1 <0>         0.1434
     30 H5          6.4613    4.6979   -1.6222 H         1 <0>         0.1027
     31 H6          5.7371    5.6245   -0.2644 H         1 <0>         0.1057
     32 H7          8.3490    4.7073   -0.2047 H         1 <0>         0.1152
     33 H8          7.3530    4.8900    1.2789 H         1 <0>         0.0965
     34 H9          7.6789    2.4816    1.4430 H         1 <0>         0.1019
     35 H10         7.9464    2.3138   -0.3253 H         1 <0>         0.1097
     36 H11         5.6544   -0.7641   -0.8348 H         1 <0>         0.1766
     37 H12         6.0594   -2.9427    0.1356 H         1 <0>         0.2039
     38 H13         5.4127   -2.5163    4.7313 H         1 <0>         0.1608
     39 H14         4.3612    1.6138    5.3012 H         1 <0>         0.1561
     40 H15         4.5504    2.0164    2.9071 H         1 <0>         0.1520
     41 H16         4.5168    0.0668    7.0884 H         1 <0>         0.4414
     42 H17         5.8715   -3.3354    2.5188 H         1 <0>         0.4798
@<TRIPOS>BOND
     1    1    6 ar
     2    1    2 ar
     3    1   26 1
     4    2    3 ar
     5    2   27 1
     6    3    4 ar
     7    3   28 1
     8    4    5 ar
     9    5    6 ar
    10    5    7 1
    11    6   29 1
    12    7   11 2
    13    7    8 1
    14    8    9 2
    15    8   15 1
    16    9   14 1
    17    9   10 1
    18   10   11 1
    19   10   12 1
    20   12   13 1
    21   12   30 1
    22   12   31 1
    23   13   14 1
    24   13   32 1
    25   13   33 1
    26   14   34 1
    27   14   35 1
    28   15   25 2
    29   15   16 1
    30   16   17 2
    31   16   36 1
    32   17   18 1
    33   17   37 1
    34   18   19 1
    35   18   42 1
    36   19   25 1
    37   19   20 2
    38   20   21 1
    39   20   38 1
    40   21   22 2
    41   21   23 1
    42   22   41 1
    43   23   24 2
    44   23   39 1
    45   24   25 1
    46   24   40 1
@<TRIPOS>MOLECULE
ZINC14976356
   43    47     0     0     0
SMALL
USER_CHARGES
6-bromo-4-[2-(6-methyl-2-pyridyl)-5,6-dihydro-4H-pyrrolo[2,1-e]pyrazol-3-yl]quinoline
@<TRIPOS>ATOM
      1 C1          2.0750    1.3991    4.4724 C.3       1 <0>        -0.1037
      2 C2          2.9753    0.2369    4.1411 C.ar      1 <0>         0.1358
      3 C3          3.4330   -0.5824    5.1567 C.ar      1 <0>        -0.1630
      4 C4          4.2618   -1.6516    4.8476 C.ar      1 <0>        -0.0709
      5 C5          4.6034   -1.8614    3.5227 C.ar      1 <0>        -0.1466
      6 C6          4.1059   -0.9962    2.5501 C.ar      1 <0>         0.2014
      7 N1          3.3199    0.0184    2.8885 N.ar      1 <0>        -0.4560
      8 C7          4.4622   -1.2071    1.1269 C.2       1 <0>         0.1441
      9 C8          3.6888   -0.7745   -0.0368 C.2       1 <0>        -0.1805
     10 C9          4.3890   -1.1734   -1.1429 C.2       1 <0>         0.0892
     11 N2          5.5039   -1.8029   -0.7332 N.pl3     1 <0>        -0.3835
     12 N3          5.5304   -1.8208    0.6720 N.2       1 <0>        -0.2440
     13 C10         6.3071   -2.2518   -1.8850 C.3       1 <0>         0.1282
     14 C11         5.3517   -2.2148   -3.0964 C.3       1 <0>        -0.1313
     15 C12         4.3284   -1.1438   -2.6563 C.3       1 <0>        -0.0697
     16 C13         2.4031   -0.0426   -0.0211 C.ar      1 <0>         0.0939
     17 C14         1.1906   -0.7217   -0.0132 C.ar      1 <0>        -0.1705
     18 C15         0.0021   -0.0041    0.0020 C.ar      1 <0>         0.1432
     19 N4         -0.0157    1.3081    0.0092 N.ar      1 <0>        -0.4794
     20 C16         1.1114    2.0279    0.0023 C.ar      1 <0>         0.1423
     21 C17         2.3674    1.3752   -0.0131 C.ar      1 <0>        -0.0742
     22 C18         3.5448    2.1340   -0.0206 C.ar      1 <0>        -0.0374
     23 C19         3.4695    3.4955   -0.0131 C.ar      1 <0>        -0.0944
     24 C20         2.2347    4.1416    0.0025 C.ar      1 <0>        -0.0811
     25 C21         1.0724    3.4334    0.0106 C.ar      1 <0>        -0.0867
     26 Br1         5.0594    4.5192   -0.0233 Br        1 <0>        -0.0503
     27 H1          2.6810    2.2836    4.6689 H         1 <0>         0.0796
     28 H2          1.4093    1.5942    3.6317 H         1 <0>         0.0758
     29 H3          1.4837    1.1602    5.3564 H         1 <0>         0.0770
     30 H4          3.1479   -0.3922    6.1809 H         1 <0>         0.1383
     31 H5          4.6323   -2.3052    5.6234 H         1 <0>         0.1402
     32 H6          5.2461   -2.6842    3.2466 H         1 <0>         0.1390
     33 H7          6.6675   -3.2672   -1.7201 H         1 <0>         0.0970
     34 H8          7.1468   -1.5760   -2.0466 H         1 <0>         0.0941
     35 H9          4.8678   -3.1807   -3.2414 H         1 <0>         0.0909
     36 H10         5.8775   -1.9046   -3.9994 H         1 <0>         0.1069
     37 H11         3.3289   -1.4055   -3.0035 H         1 <0>         0.0993
     38 H12         4.6186   -0.1621   -3.0308 H         1 <0>         0.1003
     39 H13         1.1729   -1.8016   -0.0185 H         1 <0>         0.1347
     40 H14        -0.9348   -0.5413    0.0084 H         1 <0>         0.1601
     41 H15         4.5069    1.6435   -0.0327 H         1 <0>         0.1308
     42 H16         2.1995    5.2210    0.0085 H         1 <0>         0.1376
     43 H17         0.1236    3.9492    0.0231 H         1 <0>         0.1434
@<TRIPOS>BOND
     1    1    2 1
     2    1   27 1
     3    1   28 1
     4    1   29 1
     5    2    7 ar
     6    2    3 ar
     7    3    4 ar
     8    3   30 1
     9    4    5 ar
    10    4   31 1
    11    5    6 ar
    12    5   32 1
    13    6    7 ar
    14    6    8 1
    15    8   12 2
    16    8    9 1
    17    9   10 2
    18    9   16 1
    19   10   15 1
    20   10   11 1
    21   11   12 1
    22   11   13 1
    23   13   14 1
    24   13   33 1
    25   13   34 1
    26   14   15 1
    27   14   35 1
    28   14   36 1
    29   15   37 1
    30   15   38 1
    31   16   21 ar
    32   16   17 ar
    33   17   18 ar
    34   17   39 1
    35   18   19 ar
    36   18   40 1
    37   19   20 ar
    38   20   25 ar
    39   20   21 ar
    40   21   22 ar
    41   22   23 ar
    42   22   41 1
    43   23   24 ar
    44   23   26 1
    45   24   25 ar
    46   24   42 1
    47   25   43 1
@<TRIPOS>MOLECULE
ZINC15894680
   33    36     0     0     0
SMALL
USER_CHARGES

@<TRIPOS>ATOM
      1 C1         -0.0164    1.3585    0.0095 C.ar      1 <0>        -0.1340
      2 C2          1.1699    2.0882    0.0021 C.ar      1 <0>        -0.0948
      3 C3          2.3787    1.4625   -0.0128 C.ar      1 <0>        -0.1054
      4 C4          2.4370    0.0577   -0.0208 C.ar      1 <0>         0.1307
      5 C5          1.2290   -0.6802   -0.0132 C.ar      1 <0>        -0.0659
      6 C6          0.0021   -0.0041    0.0020 C.ar      1 <0>        -0.0425
      7 C7          1.2912   -2.0970   -0.0213 C.ar      1 <0>         0.0689
      8 C8          2.5477   -2.6907   -0.0364 C.ar      1 <0>        -0.1771
      9 C9          3.6839   -1.8927   -0.0430 C.ar      1 <0>         0.1302
     10 N1          3.6110   -0.5824   -0.0349 N.ar      1 <0>        -0.4801
     11 C10         0.0591   -2.9160   -0.0134 C.2       1 <0>        -0.1846
     12 C11        -0.3572   -3.7539    0.9818 C.2       1 <0>         0.0835
     13 N2         -1.5227   -4.3084    0.6008 N.pl3     1 <0>        -0.4658
     14 H1         -2.0377   -4.9435    1.1227 H         1 <0>         0.4465
     15 N3         -1.8768   -3.8272   -0.6635 N.2       1 <0>        -0.2642
     16 C12        -0.9543   -2.9811   -1.0681 C.2       1 <0>         0.1395
     17 C13        -0.9414   -2.2374   -2.3501 C.ar      1 <0>         0.1900
     18 C14        -1.6373   -2.7406   -3.4483 C.ar      1 <0>        -0.1393
     19 C15        -1.6159   -2.0350   -4.6384 C.ar      1 <0>        -0.0755
     20 C16        -0.8987   -0.8478   -4.6922 C.ar      1 <0>        -0.1621
     21 C17        -0.2313   -0.4070   -3.5647 C.ar      1 <0>         0.1057
     22 N4         -0.2722   -1.0953   -2.4418 N.ar      1 <0>        -0.4511
     23 H2         -0.9626    1.8790    0.0259 H         1 <0>         0.1199
     24 H3          1.1302    3.1675    0.0079 H         1 <0>         0.1253
     25 H4          3.2895    2.0428   -0.0187 H         1 <0>         0.1314
     26 H5         -0.9240   -0.5597    0.0082 H         1 <0>         0.1176
     27 H6          2.6399   -3.7668   -0.0426 H         1 <0>         0.1333
     28 H7          4.6556   -2.3638   -0.0543 H         1 <0>         0.1567
     29 H8          0.1592   -3.9393    1.9120 H         1 <0>         0.1876
     30 H9         -2.1850   -3.6682   -3.3713 H         1 <0>         0.1392
     31 H10        -2.1452   -2.4001   -5.5062 H         1 <0>         0.1394
     32 H11        -0.8622   -0.2740   -5.6064 H         1 <0>         0.1384
     33 H12         0.3278    0.5162   -3.6035 H         1 <0>         0.1588
@<TRIPOS>BOND
     1    1    6 ar
     2    1    2 ar
     3    1   23 1
     4    2    3 ar
     5    2   24 1
     6    3    4 ar
     7    3   25 1
     8    4   10 ar
     9    4    5 ar
    10    5    6 ar
    11    5    7 ar
    12    6   26 1
    13    7    8 ar
    14    7   11 1
    15    8    9 ar
    16    8   27 1
    17    9   10 ar
    18    9   28 1
    19   11   16 1
    20   11   12 2
    21   12   13 1
    22   12   29 1
    23   13   14 1
    24   13   15 1
    25   15   16 2
    26   16   17 1
    27   17   22 ar
    28   17   18 ar
    29   18   19 ar
    30   18   30 1
    31   19   20 ar
    32   19   31 1
    33   20   21 ar
    34   20   32 1
    35   21   22 ar
    36   21   33 1
@<TRIPOS>MOLECULE
ZINC15894680
   33    36     0     0     0
SMALL
USER_CHARGES

@<TRIPOS>ATOM
      1 C1         -0.0164    1.3586    0.0095 C.ar      1 <0>        -0.1350
      2 C2          1.1699    2.0883    0.0021 C.ar      1 <0>        -0.0957
      3 C3          2.3786    1.4625   -0.0128 C.ar      1 <0>        -0.1047
      4 C4          2.4369    0.0577   -0.0208 C.ar      1 <0>         0.1303
      5 C5          1.2288   -0.6801   -0.0132 C.ar      1 <0>        -0.0630
      6 C6          0.0021   -0.0041    0.0020 C.ar      1 <0>        -0.0425
      7 C7          1.2910   -2.0973   -0.0213 C.ar      1 <0>         0.0648
      8 C8          2.5481   -2.6911   -0.0364 C.ar      1 <0>        -0.1734
      9 C9          3.6840   -1.8927   -0.0430 C.ar      1 <0>         0.1301
     10 N1          3.6109   -0.5824   -0.0349 N.ar      1 <0>        -0.4796
     11 C10         0.0597   -2.9159   -0.0135 C.2       1 <0>        -0.1662
     12 C11        -0.3636   -3.7778    1.0157 C.2       1 <0>         0.0717
     13 N2         -1.4949   -4.3246    0.6599 N.2       1 <0>        -0.2696
     14 N3         -1.8572   -3.8487   -0.6053 N.pl3     1 <0>        -0.4604
     15 H1         -2.6543   -4.0959   -1.0996 H         1 <0>         0.4431
     16 C12        -0.8996   -2.9734   -1.0192 C.2       1 <0>         0.1437
     17 C13        -0.8815   -2.2290   -2.2945 C.ar      1 <0>         0.1723
     18 C14        -1.5753   -2.7286   -3.3982 C.ar      1 <0>        -0.1576
     19 C15        -1.5488   -2.0193   -4.5855 C.ar      1 <0>        -0.0687
     20 C16        -0.8298   -0.8326   -4.6331 C.ar      1 <0>        -0.1604
     21 C17        -0.1651   -0.3953   -3.5020 C.ar      1 <0>         0.1117
     22 N4         -0.2095   -1.0861   -2.3814 N.ar      1 <0>        -0.4450
     23 H2         -0.9626    1.8791    0.0259 H         1 <0>         0.1193
     24 H3          1.1302    3.1675    0.0079 H         1 <0>         0.1251
     25 H4          3.2895    2.0428   -0.0187 H         1 <0>         0.1314
     26 H5         -0.9240   -0.5597    0.0078 H         1 <0>         0.1159
     27 H6          2.6405   -3.7671   -0.0426 H         1 <0>         0.1347
     28 H7          4.6559   -2.3636   -0.0543 H         1 <0>         0.1572
     29 H8          0.1595   -3.9572    1.9434 H         1 <0>         0.1936
     30 H9         -2.1245   -3.6558   -3.3262 H         1 <0>         0.1328
     31 H10        -2.0756   -2.3808   -5.4563 H         1 <0>         0.1413
     32 H11        -0.7897   -0.2562   -5.5456 H         1 <0>         0.1410
     33 H12         0.3951    0.5274   -3.5369 H         1 <0>         0.1616
@<TRIPOS>BOND
     1    1    6 ar
     2    1    2 ar
     3    1   23 1
     4    2    3 ar
     5    2   24 1
     6    3    4 ar
     7    3   25 1
     8    4   10 ar
     9    4    5 ar
    10    5    6 ar
    11    5    7 ar
    12    6   26 1
    13    7    8 ar
    14    7   11 1
    15    8    9 ar
    16    8   27 1
    17    9   10 ar
    18    9   28 1
    19   11   16 2
    20   11   12 1
    21   12   13 2
    22   12   29 1
    23   13   14 1
    24   14   15 1
    25   14   16 1
    26   16   17 1
    27   17   22 ar
    28   17   18 ar
    29   18   19 ar
    30   18   30 1
    31   19   20 ar
    32   19   31 1
    33   20   21 ar
    34   20   32 1
    35   21   22 ar
    36   21   33 1
@<TRIPOS>MOLECULE
ZINC27439698
   59    62     0     0     0
SMALL
USER_CHARGES

@<TRIPOS>ATOM
      1 C1         -0.2063    1.0844    0.8125 C.2       1 <0>        -0.0780
      2 C2         -0.0916   -0.1284    0.2785 C.2       1 <0>        -0.2217
      3 C3          1.1892   -0.8472    0.3546 C.2       1 <0>         0.5464
      4 O1          2.1435   -0.3327    0.9059 O.2       1 <0>        -0.5301
      5 N1          1.3054   -2.0761   -0.1864 N.am      1 <0>        -0.6549
      6 C4          2.5517   -2.7129   -0.2160 C.ar      1 <0>         0.1200
      7 C5          3.7048   -1.9595   -0.1827 C.ar      1 <0>        -0.0579
      8 C6          4.9490   -2.5997   -0.2120 C.ar      1 <0>        -0.1974
      9 C7          5.0154   -4.0138   -0.2753 C.ar      1 <0>         0.2129
     10 C8          3.8313   -4.7603   -0.3083 C.ar      1 <0>        -0.1947
     11 C9          2.6164   -4.1137   -0.2734 C.ar      1 <0>         0.1622
     12 O2          1.4681   -4.8389   -0.3002 O.3       1 <0>        -0.3093
     13 C10         1.5999   -6.2606   -0.3586 C.3       1 <0>         0.0588
     14 C11         0.2106   -6.9010   -0.3813 C.3       1 <0>        -0.1156
     15 C12         0.3517   -8.4232   -0.4438 C.3       1 <0>         0.0578
     16 N2         -0.9822   -9.0382   -0.4657 N.3       1 <0>        -0.5360
     17 C13        -1.6880   -8.8108    0.8038 C.3       1 <0>         0.0125
     18 C14        -3.0921   -9.4148    0.7161 C.3       1 <0>         0.0626
     19 O3         -2.9885  -10.8047    0.3955 O.3       1 <0>        -0.3850
     20 C15        -2.3071  -11.0626   -0.8351 C.3       1 <0>         0.0628
     21 C16        -0.8951  -10.4753   -0.7631 C.3       1 <0>         0.0171
     22 N3          6.2221   -4.6015   -0.3018 N.ar      1 <0>        -0.5452
     23 C17         7.3156   -3.8777   -0.2694 C.ar      1 <0>         0.3493
     24 N4          7.3023   -2.5556   -0.2097 N.ar      1 <0>        -0.5859
     25 C18         6.1642   -1.8746   -0.1796 C.ar      1 <0>         0.4714
     26 N5          6.1650   -0.4957   -0.1182 N.pl3     1 <0>        -0.6328
     27 C19         7.3694    0.2084   -0.2227 C.ar      1 <0>         0.1581
     28 C20         7.5013    1.4536    0.3785 C.ar      1 <0>        -0.1169
     29 C21         8.6911    2.1472    0.2750 C.ar      1 <0>        -0.1176
     30 C22         9.7524    1.6027   -0.4280 C.ar      1 <0>         0.0901
     31 C23         9.6235    0.3609   -1.0292 C.ar      1 <0>        -0.0524
     32 C24         8.4363   -0.3392   -0.9225 C.ar      1 <0>        -0.0856
     33 Cl1        10.9555   -0.3188   -1.9109 Cl        1 <0>        -0.0424
     34 F1         10.9152    2.2833   -0.5284 F         1 <0>        -0.1264
     35 H1          0.6411    1.5413    1.3020 H         1 <0>         0.1166
     36 H2         -1.1456    1.6141    0.7527 H         1 <0>         0.1209
     37 H3         -0.9390   -0.5853   -0.2110 H         1 <0>         0.1323
     38 H4          0.5255   -2.5194   -0.5554 H         1 <0>         0.4201
     39 H5          3.6489   -0.8820   -0.1348 H         1 <0>         0.1596
     40 H6          3.8708   -5.8385   -0.3565 H         1 <0>         0.1517
     41 H7          2.1429   -6.5383   -1.2620 H         1 <0>         0.0720
     42 H8          2.1473   -6.6110    0.5165 H         1 <0>         0.0691
     43 H9         -0.3323   -6.6233    0.5221 H         1 <0>         0.0760
     44 H10        -0.3367   -6.5506   -1.2564 H         1 <0>         0.0860
     45 H11         0.8947   -8.7010   -1.3473 H         1 <0>         0.0821
     46 H12         0.8990   -8.7736    0.4312 H         1 <0>         0.0409
     47 H13        -1.1377   -9.2854    1.6162 H         1 <0>         0.0448
     48 H14        -1.7636   -7.7398    0.9914 H         1 <0>         0.0895
     49 H15        -3.5986   -9.2990    1.6743 H         1 <0>         0.0993
     50 H16        -3.6604   -8.9035   -0.0609 H         1 <0>         0.0609
     51 H17        -2.2459  -12.1385   -0.9988 H         1 <0>         0.1001
     52 H18        -2.8525  -10.5991   -1.6572 H         1 <0>         0.0612
     53 H19        -0.3918  -10.6192   -1.7193 H         1 <0>         0.0886
     54 H20        -0.3321  -10.9764    0.0243 H         1 <0>         0.0452
     55 H21         8.2696   -4.3834   -0.2921 H         1 <0>         0.1993
     56 H22         5.3306   -0.0149   -0.0027 H         1 <0>         0.4275
     57 H23         6.6738    1.8794    0.9265 H         1 <0>         0.1431
     58 H24         8.7936    3.1154    0.7424 H         1 <0>         0.1506
     59 H25         8.3373   -1.3092   -1.3869 H         1 <0>         0.1663
@<TRIPOS>BOND
     1    1    2 2
     2    1   35 1
     3    1   36 1
     4    2    3 1
     5    2   37 1
     6    3    4 2
     7    3    5 am
     8    5    6 1
     9    5   38 1
    10    6   11 ar
    11    6    7 ar
    12    7    8 ar
    13    7   39 1
    14    8   25 ar
    15    8    9 ar
    16    9   10 ar
    17    9   22 ar
    18   10   11 ar
    19   10   40 1
    20   11   12 1
    21   12   13 1
    22   13   14 1
    23   13   41 1
    24   13   42 1
    25   14   15 1
    26   14   43 1
    27   14   44 1
    28   15   16 1
    29   15   45 1
    30   15   46 1
    31   16   21 1
    32   16   17 1
    33   17   18 1
    34   17   47 1
    35   17   48 1
    36   18   19 1
    37   18   49 1
    38   18   50 1
    39   19   20 1
    40   20   21 1
    41   20   51 1
    42   20   52 1
    43   21   53 1
    44   21   54 1
    45   22   23 ar
    46   23   24 ar
    47   23   55 1
    48   24   25 ar
    49   25   26 1
    50   26   27 1
    51   26   56 1
    52   27   32 ar
    53   27   28 ar
    54   28   29 ar
    55   28   57 1
    56   29   30 ar
    57   29   58 1
    58   30   31 ar
    59   30   34 1
    60   31   32 ar
    61   31   33 1
    62   32   59 1
@<TRIPOS>MOLECULE
ZINC13980772
   47    50     0     0     0
SMALL
USER_CHARGES

@<TRIPOS>ATOM
      1 C1         -0.0184    1.5028    0.0103 C.3       1 <0>        -0.1070
      2 C2          0.0021   -0.0041    0.0020 C.ar      1 <0>         0.1422
      3 C3          0.0055   -0.6792   -1.2049 C.ar      1 <0>        -0.1707
      4 C4          0.0244   -2.0675   -1.2099 C.ar      1 <0>        -0.0626
      5 C5          0.0392   -2.7326    0.0026 C.ar      1 <0>        -0.1750
      6 C6          0.0347   -1.9884    1.1844 C.ar      1 <0>         0.2022
      7 N1          0.0218   -0.6595    1.1444 N.ar      1 <0>        -0.4607
      8 C7          0.0503   -2.6818    2.4867 C.2       1 <0>         0.0242
      9 C8          0.5118   -2.1790    3.6909 C.2       1 <0>         0.0903
     10 N2          0.3402   -3.1390    4.6185 N.2       1 <0>        -0.4667
     11 C9         -0.1935   -4.1914    4.0638 C.2       1 <0>         0.2499
     12 N3         -0.3965   -3.9564    2.7500 N.pl3     1 <0>        -0.5508
     13 H1         -0.7843   -4.5729    2.1093 H         1 <0>         0.4216
     14 C10        -0.5363   -5.4719    4.7806 C.3       1 <0>         0.0143
     15 C11         0.4921   -6.5471    4.4240 C.3       1 <0>        -0.1428
     16 C12        -0.5191   -5.2310    6.2915 C.3       1 <0>        -0.1302
     17 C13        -1.9299   -5.9377    4.3543 C.3       1 <0>        -0.1480
     18 C14         1.0884   -0.8341    3.9167 C.ar      1 <0>         0.0283
     19 C15         1.8665   -0.2314    2.9127 C.ar      1 <0>        -0.0422
     20 C16         2.4058    1.0005    3.0958 C.ar      1 <0>        -0.0930
     21 C17         2.1896    1.6922    4.3024 C.ar      1 <0>         0.0852
     22 C18         1.4061    1.0941    5.3228 C.ar      1 <0>         0.0781
     23 C19         0.8526   -0.1782    5.1116 C.ar      1 <0>        -0.0567
     24 N4          1.2002    1.7526    6.4695 N.ar      1 <0>        -0.4225
     25 C20         1.7249    2.9451    6.6388 C.ar      1 <0>         0.0705
     26 C21         2.4957    3.5333    5.6346 C.ar      1 <0>         0.0728
     27 N5          2.7125    2.9066    4.5003 N.ar      1 <0>        -0.4274
     28 H2          1.0042    1.8801    0.0026 H         1 <0>         0.0826
     29 H3         -0.5455    1.8639   -0.8728 H         1 <0>         0.0777
     30 H4         -0.5286    1.8543    0.9071 H         1 <0>         0.0787
     31 H5         -0.0067   -0.1313   -2.1355 H         1 <0>         0.1390
     32 H6          0.0270   -2.6159   -2.1403 H         1 <0>         0.1393
     33 H7          0.0536   -3.8121    0.0352 H         1 <0>         0.1290
     34 H8          1.4850   -6.2152    4.7277 H         1 <0>         0.0650
     35 H9          0.2442   -7.4733    4.9424 H         1 <0>         0.0720
     36 H10         0.4799   -6.7188    3.3476 H         1 <0>         0.0535
     37 H11        -1.2518   -4.4650    6.5456 H         1 <0>         0.0619
     38 H12        -0.7671   -6.1571    6.8099 H         1 <0>         0.0631
     39 H13         0.4737   -4.8991    6.5952 H         1 <0>         0.0701
     40 H14        -1.9421   -6.1094    3.2779 H         1 <0>         0.0521
     41 H15        -2.1778   -6.8639    4.8727 H         1 <0>         0.0749
     42 H16        -2.6626   -5.1717    4.6084 H         1 <0>         0.0634
     43 H17         2.0375   -0.7555    1.9840 H         1 <0>         0.1262
     44 H18         3.0015    1.4502    2.3153 H         1 <0>         0.1374
     45 H19         0.2506   -0.6436    5.8780 H         1 <0>         0.1431
     46 H20         1.5579    3.4760    7.5643 H         1 <0>         0.1739
     47 H21         2.9187    4.5145    5.7918 H         1 <0>         0.1736
@<TRIPOS>BOND
     1    1    2 1
     2    1   28 1
     3    1   29 1
     4    1   30 1
     5    2    7 ar
     6    2    3 ar
     7    3    4 ar
     8    3   31 1
     9    4    5 ar
    10    4   32 1
    11    5    6 ar
    12    5   33 1
    13    6    7 ar
    14    6    8 1
    15    8   12 1
    16    8    9 2
    17    9   10 1
    18    9   18 1
    19   10   11 2
    20   11   12 1
    21   11   14 1
    22   12   13 1
    23   14   15 1
    24   14   16 1
    25   14   17 1
    26   15   34 1
    27   15   35 1
    28   15   36 1
    29   16   37 1
    30   16   38 1
    31   16   39 1
    32   17   40 1
    33   17   41 1
    34   17   42 1
    35   18   23 ar
    36   18   19 ar
    37   19   20 ar
    38   19   43 1
    39   20   21 ar
    40   20   44 1
    41   21   27 ar
    42   21   22 ar
    43   22   23 ar
    44   22   24 ar
    45   23   45 1
    46   24   25 ar
    47   25   26 ar
    48   25   46 1
    49   26   27 ar
    50   26   47 1
@<TRIPOS>MOLECULE
ZINC13980772
   47    50     0     0     0
SMALL
USER_CHARGES

@<TRIPOS>ATOM
      1 C1         -0.0184    1.5028    0.0103 C.3       1 <0>        -0.1035
      2 C2          0.0021   -0.0041    0.0020 C.ar      1 <0>         0.1328
      3 C3          0.0055   -0.6793   -1.2045 C.ar      1 <0>        -0.1719
      4 C4          0.0244   -2.0673   -1.2086 C.ar      1 <0>        -0.0720
      5 C5          0.0392   -2.7315    0.0050 C.ar      1 <0>        -0.1468
      6 C6          0.0346   -1.9873    1.1847 C.ar      1 <0>         0.2087
      7 N1          0.0218   -0.6598    1.1445 N.ar      1 <0>        -0.4708
      8 C7          0.0498   -2.6823    2.4914 C.2       1 <0>         0.0689
      9 C8          0.5150   -2.1658    3.6884 C.2       1 <0>         0.0476
     10 N2          0.3352   -3.1530    4.6280 N.pl3     1 <0>        -0.5556
     11 H1          0.5629   -3.0990    5.5693 H         1 <0>         0.4229
     12 C9         -0.2202   -4.2165    3.9950 C.2       1 <0>         0.2426
     13 N3         -0.3917   -3.9307    2.7348 N.2       1 <0>        -0.4606
     14 C10        -0.5873   -5.5238    4.6486 C.3       1 <0>         0.0158
     15 C11        -1.8599   -5.3397    5.4778 C.3       1 <0>        -0.1434
     16 C12        -0.8295   -6.5825    3.5709 C.3       1 <0>        -0.1294
     17 C13         0.5547   -5.9764    5.5606 C.3       1 <0>        -0.1479
     18 C14         1.0893   -0.8247    3.9110 C.ar      1 <0>         0.0270
     19 C15         2.0344   -0.3098    3.0037 C.ar      1 <0>        -0.0455
     20 C16         2.5760    0.9202    3.1875 C.ar      1 <0>        -0.0815
     21 C17         2.1952    1.7005    4.2957 C.ar      1 <0>         0.0860
     22 C18         1.2431    1.1932    5.2174 C.ar      1 <0>         0.0821
     23 C19         0.6900   -0.0792    5.0085 C.ar      1 <0>        -0.0781
     24 N4          0.8815    1.9361    6.2704 N.ar      1 <0>        -0.4257
     25 C20         1.4112    3.1265    6.4400 C.ar      1 <0>         0.0752
     26 C21         2.3474    3.6253    5.5329 C.ar      1 <0>         0.0755
     27 N5          2.7187    2.9148    4.4917 N.ar      1 <0>        -0.4245
     28 H2          1.0042    1.8801    0.0026 H         1 <0>         0.0784
     29 H3         -0.5455    1.8639   -0.8728 H         1 <0>         0.0754
     30 H4         -0.5286    1.8543    0.9071 H         1 <0>         0.0744
     31 H5         -0.0067   -0.1318   -2.1354 H         1 <0>         0.1348
     32 H6          0.0271   -2.6165   -2.1385 H         1 <0>         0.1370
     33 H7          0.0536   -3.8109    0.0384 H         1 <0>         0.1400
     34 H8         -2.6734   -5.0173    4.8280 H         1 <0>         0.0643
     35 H9         -2.1254   -6.2853    5.9506 H         1 <0>         0.0716
     36 H10        -1.6873   -4.5855    6.2456 H         1 <0>         0.0541
     37 H11         0.0771   -6.7136    2.9801 H         1 <0>         0.0613
     38 H12        -1.0951   -7.5281    4.0436 H         1 <0>         0.0628
     39 H13        -1.6431   -6.2600    2.9211 H         1 <0>         0.0692
     40 H14         0.7273   -5.2222    6.3284 H         1 <0>         0.0528
     41 H15         0.2892   -6.9220    6.0334 H         1 <0>         0.0743
     42 H16         1.4613   -6.1076    4.9698 H         1 <0>         0.0632
     43 H17         2.3322   -0.9017    2.1508 H         1 <0>         0.1300
     44 H18         3.3005    1.3013    2.4831 H         1 <0>         0.1416
     45 H19        -0.0386   -0.4760    5.6998 H         1 <0>         0.1355
     46 H20         1.1188    3.7253    7.2899 H         1 <0>         0.1758
     47 H21         2.7714    4.6063    5.6885 H         1 <0>         0.1758
@<TRIPOS>BOND
     1    1    2 1
     2    1   28 1
     3    1   29 1
     4    1   30 1
     5    2    7 ar
     6    2    3 ar
     7    3    4 ar
     8    3   31 1
     9    4    5 ar
    10    4   32 1
    11    5    6 ar
    12    5   33 1
    13    6    7 ar
    14    6    8 1
    15    8   13 1
    16    8    9 2
    17    9   10 1
    18    9   18 1
    19   10   11 1
    20   10   12 1
    21   12   13 2
    22   12   14 1
    23   14   15 1
    24   14   16 1
    25   14   17 1
    26   15   34 1
    27   15   35 1
    28   15   36 1
    29   16   37 1
    30   16   38 1
    31   16   39 1
    32   17   40 1
    33   17   41 1
    34   17   42 1
    35   18   23 ar
    36   18   19 ar
    37   19   20 ar
    38   19   43 1
    39   20   21 ar
    40   20   44 1
    41   21   27 ar
    42   21   22 ar
    43   22   23 ar
    44   22   24 ar
    45   23   45 1
    46   24   25 ar
    47   25   26 ar
    48   25   46 1
    49   26   27 ar
    50   26   47 1
@<TRIPOS>MOLECULE
ZINC14976362
   49    53     0     0     0
SMALL
USER_CHARGES
methyl 4-[2-(6-methyl-2-pyridyl)-5,6-dihydro-4H-pyrrolo[2,1-e]pyrazol-3-yl]quinoline-6-carboxylate
@<TRIPOS>ATOM
      1 C1          2.0743    1.3984    4.4734 C.3       1 <0>        -0.1038
      2 C2          2.9747    0.2364    4.1417 C.ar      1 <0>         0.1353
      3 C3          3.4328   -0.5830    5.1571 C.ar      1 <0>        -0.1631
      4 C4          4.2617   -1.6519    4.8476 C.ar      1 <0>        -0.0708
      5 C5          4.6032   -1.8613    3.5227 C.ar      1 <0>        -0.1462
      6 C6          4.1053   -0.9961    2.5503 C.ar      1 <0>         0.2020
      7 N1          3.3192    0.0182    2.8890 N.ar      1 <0>        -0.4574
      8 C7          4.4615   -1.2067    1.1270 C.2       1 <0>         0.1450
      9 C8          3.6878   -0.7740   -0.0368 C.2       1 <0>        -0.1851
     10 C9          4.3884   -1.1730   -1.1433 C.2       1 <0>         0.0910
     11 N2          5.5031   -1.8019   -0.7334 N.pl3     1 <0>        -0.3823
     12 N3          5.5299   -1.8194    0.6718 N.2       1 <0>        -0.2432
     13 C10         6.3068   -2.2505   -1.8850 C.3       1 <0>         0.1277
     14 C11         5.3517   -2.2141   -3.0966 C.3       1 <0>        -0.1310
     15 C12         4.3278   -1.1435   -2.6567 C.3       1 <0>        -0.0701
     16 C13         2.4027   -0.0425   -0.0211 C.ar      1 <0>         0.1036
     17 C14         1.1896   -0.7220   -0.0132 C.ar      1 <0>        -0.1760
     18 C15         0.0021   -0.0041    0.0020 C.ar      1 <0>         0.1519
     19 N4         -0.0157    1.3088    0.0092 N.ar      1 <0>        -0.4845
     20 C16         1.1095    2.0298    0.0024 C.ar      1 <0>         0.1609
     21 C17         2.3667    1.3767   -0.0131 C.ar      1 <0>        -0.0935
     22 C18         3.5433    2.1311   -0.0197 C.ar      1 <0>         0.0091
     23 C19         3.4647    3.5168   -0.0111 C.ar      1 <0>        -0.1359
     24 C20         2.2125    4.1570    0.0041 C.ar      1 <0>        -0.0588
     25 C21         1.0623    3.4369    0.0108 C.ar      1 <0>        -0.1052
     26 C22         4.7011    4.3223   -0.0175 C.2       1 <0>         0.5094
     27 O1          5.7844    3.7724   -0.0303 O.2       1 <0>        -0.5060
     28 O2          4.6287    5.6677   -0.0092 O.3       1 <0>        -0.3536
     29 C23         5.8851    6.3956   -0.0162 C.3       1 <0>         0.0365
     30 H1          2.6801    2.2830    4.6698 H         1 <0>         0.0792
     31 H2          1.4083    1.5935    3.6328 H         1 <0>         0.0763
     32 H3          1.4831    1.1592    5.3573 H         1 <0>         0.0773
     33 H4          3.1478   -0.3930    6.1813 H         1 <0>         0.1384
     34 H5          4.6325   -2.3056    5.6232 H         1 <0>         0.1404
     35 H6          5.2461   -2.6840    3.2463 H         1 <0>         0.1394
     36 H7          6.6676   -3.2658   -1.7200 H         1 <0>         0.0973
     37 H8          7.1463   -1.5744   -2.0465 H         1 <0>         0.0944
     38 H9          4.8682   -3.1802   -3.2417 H         1 <0>         0.0912
     39 H10         5.8774   -1.9036   -3.9996 H         1 <0>         0.1069
     40 H11         3.3284   -1.4058   -3.0038 H         1 <0>         0.0998
     41 H12         4.6175   -0.1617   -3.0312 H         1 <0>         0.1004
     42 H13         1.1716   -1.8018   -0.0185 H         1 <0>         0.1360
     43 H14        -0.9350   -0.5410    0.0084 H         1 <0>         0.1611
     44 H15         4.5051    1.6401   -0.0318 H         1 <0>         0.1372
     45 H16         2.1657    5.2359    0.0110 H         1 <0>         0.1429
     46 H17         0.1089    3.9442    0.0221 H         1 <0>         0.1431
     47 H18         5.6843    7.4669   -0.0083 H         1 <0>         0.1047
     48 H19         6.4649    6.1280    0.8671 H         1 <0>         0.0638
     49 H20         6.4491    6.1382   -0.9127 H         1 <0>         0.0639
@<TRIPOS>BOND
     1    1    2 1
     2    1   30 1
     3    1   31 1
     4    1   32 1
     5    2    7 ar
     6    2    3 ar
     7    3    4 ar
     8    3   33 1
     9    4    5 ar
    10    4   34 1
    11    5    6 ar
    12    5   35 1
    13    6    7 ar
    14    6    8 1
    15    8   12 2
    16    8    9 1
    17    9   10 2
    18    9   16 1
    19   10   15 1
    20   10   11 1
    21   11   12 1
    22   11   13 1
    23   13   14 1
    24   13   36 1
    25   13   37 1
    26   14   15 1
    27   14   38 1
    28   14   39 1
    29   15   40 1
    30   15   41 1
    31   16   21 ar
    32   16   17 ar
    33   17   18 ar
    34   17   42 1
    35   18   19 ar
    36   18   43 1
    37   19   20 ar
    38   20   25 ar
    39   20   21 ar
    40   21   22 ar
    41   22   23 ar
    42   22   44 1
    43   23   24 ar
    44   23   26 1
    45   24   25 ar
    46   24   45 1
    47   25   46 1
    48   26   27 2
    49   26   28 1
    50   28   29 1
    51   29   47 1
    52   29   48 1
    53   29   49 1
@<TRIPOS>MOLECULE
ZINC14806405
   48    52     0     0     0
SMALL
USER_CHARGES

@<TRIPOS>ATOM
      1 C1         -0.0167    1.3789    0.0096 C.ar      1 <0>        -0.0760
      2 C2          1.1941    2.0586    0.0017 C.ar      1 <0>        -0.1722
      3 C3          2.3751    1.3408   -0.0134 C.ar      1 <0>         0.1031
      4 N1          2.3663    0.0230   -0.0208 N.ar      1 <0>        -0.4662
      5 C4          1.2307   -0.6650   -0.0137 C.ar      1 <0>         0.2043
      6 C5          0.0021   -0.0041    0.0020 C.ar      1 <0>        -0.1413
      7 C6          1.2685   -2.1448   -0.0225 C.2       1 <0>         0.0622
      8 C7          2.3023   -2.9340   -0.5056 C.2       1 <0>         0.0852
      9 N2          1.9164   -4.2375   -0.3156 N.pl3     1 <0>        -0.5510
     10 H1          2.4258   -5.0288   -0.5508 H         1 <0>         0.4261
     11 C8          0.6805   -4.2121    0.2676 C.2       1 <0>         0.2474
     12 N3          0.3115   -2.9636    0.4406 N.2       1 <0>        -0.4438
     13 C9         -0.1115   -5.3995    0.6478 C.ar      1 <0>         0.0159
     14 C10         0.3976   -6.6810    0.4208 C.ar      1 <0>        -0.1185
     15 C11        -0.3375   -7.7833    0.7737 C.ar      1 <0>        -0.0514
     16 C12        -1.5961   -7.6252    1.3604 C.ar      1 <0>        -0.1321
     17 C13        -2.1053   -6.3436    1.5874 C.ar      1 <0>        -0.0809
     18 C14        -1.3676   -5.2413    1.2397 C.ar      1 <0>        -0.0850
     19 C15        -2.3883   -8.8125    1.7401 C.2       1 <0>         0.5625
     20 O1         -1.9455   -9.9273    1.5423 O.2       1 <0>        -0.5372
     21 N4         -3.6020   -8.6600    2.3059 N.am      1 <0>        -0.8495
     22 C16         3.5664   -2.4649   -1.1051 C.ar      1 <0>        -0.0120
     23 C17         3.5551   -1.4326   -2.0465 C.ar      1 <0>        -0.0527
     24 C18         4.7376   -0.9975   -2.6050 C.ar      1 <0>        -0.1113
     25 C19         5.9430   -1.5810   -2.2358 C.ar      1 <0>         0.0632
     26 C20         5.9618   -2.6083   -1.2970 C.ar      1 <0>         0.0505
     27 C21         4.7787   -3.0474   -0.7290 C.ar      1 <0>        -0.0989
     28 O2          7.1357   -3.1850   -0.9192 O.3       1 <0>        -0.3073
     29 C22         8.2625   -2.9725   -1.7764 C.3       1 <0>         0.0204
     30 C23         8.3169   -1.4820   -2.1376 C.3       1 <0>         0.0198
     31 O3          7.0976   -1.1376   -2.8042 O.3       1 <0>        -0.3055
     32 H2         -0.9523    1.9181    0.0259 H         1 <0>         0.1364
     33 H3          1.2128    3.1385    0.0070 H         1 <0>         0.1352
     34 H4          3.3182    1.8671   -0.0196 H         1 <0>         0.1571
     35 H5         -0.9212   -0.5644    0.0082 H         1 <0>         0.1398
     36 H6          1.3701   -6.8031   -0.0329 H         1 <0>         0.1272
     37 H7          0.0558   -8.7736    0.5980 H         1 <0>         0.1434
     38 H8         -3.0779   -6.2214    2.0408 H         1 <0>         0.1343
     39 H9         -1.7590   -4.2509    1.4195 H         1 <0>         0.1461
     40 H10        -3.9552   -7.7705    2.4638 H         1 <0>         0.4019
     41 H11        -4.1222   -9.4398    2.5553 H         1 <0>         0.4074
     42 H12         2.6203   -0.9760   -2.3366 H         1 <0>         0.1282
     43 H13         4.7270   -0.1998   -3.3330 H         1 <0>         0.1382
     44 H14         4.7925   -3.8428    0.0014 H         1 <0>         0.1309
     45 H15         9.1777   -3.2589   -1.2584 H         1 <0>         0.1238
     46 H16         8.1515   -3.5667   -2.6835 H         1 <0>         0.0784
     47 H17         8.4204   -0.8874   -1.2300 H         1 <0>         0.0797
     48 H18         9.1628   -1.2946   -2.7989 H         1 <0>         0.1240
@<TRIPOS>BOND
     1    1    6 ar
     2    1    2 ar
     3    1   32 1
     4    2    3 ar
     5    2   33 1
     6    3    4 ar
     7    3   34 1
     8    4    5 ar
     9    5    6 ar
    10    5    7 1
    11    6   35 1
    12    7   12 1
    13    7    8 2
    14    8    9 1
    15    8   22 1
    16    9   10 1
    17    9   11 1
    18   11   12 2
    19   11   13 1
    20   13   18 ar
    21   13   14 ar
    22   14   15 ar
    23   14   36 1
    24   15   16 ar
    25   15   37 1
    26   16   17 ar
    27   16   19 1
    28   17   18 ar
    29   17   38 1
    30   18   39 1
    31   19   20 2
    32   19   21 am
    33   21   40 1
    34   21   41 1
    35   22   27 ar
    36   22   23 ar
    37   23   24 ar
    38   23   42 1
    39   24   25 ar
    40   24   43 1
    41   25   31 1
    42   25   26 ar
    43   26   27 ar
    44   26   28 1
    45   27   44 1
    46   28   29 1
    47   29   30 1
    48   29   45 1
    49   29   46 1
    50   30   31 1
    51   30   47 1
    52   30   48 1
@<TRIPOS>MOLECULE
ZINC14806405
   49    53     0     0     0
SMALL
USER_CHARGES
4-[4-(2,3-dihydro-1,4-benzodioxin-6-yl)-5-(2-pyridyl)-1H-imidazol-2-yl]benzamide
@<TRIPOS>ATOM
      1 C1         -6.5267    2.4428    2.4163 C.ar      1 <0>        -0.0639
      2 C2         -5.4142    3.0273    3.0078 C.ar      1 <0>        -0.1371
      3 C3         -4.1664    2.4651    2.8120 C.ar      1 <0>         0.1158
      4 N1         -4.0189    1.3845    2.0731 N.ar      1 <0>        -0.4461
      5 C4         -5.0569    0.7935    1.4890 C.ar      1 <0>         0.1505
      6 C5         -6.3455    1.3126    1.6408 C.ar      1 <0>        -0.1450
      7 C6         -4.8462   -0.4147    0.6704 C.2       1 <0>         0.1168
      8 C7         -3.6790   -0.7837    0.0186 C.2       1 <0>         0.1451
      9 C8         -5.1511   -2.3237   -0.3898 C.cat     1 <0>         0.3788
     10 N2         -5.7682   -1.3997    0.4019 N.pl3     1 <0>        -0.5026
     11 H1         -6.7136   -1.4324    0.7262 H         1 <0>         0.4700
     12 C9         -5.7767   -3.5538   -0.9173 C.ar      1 <0>        -0.0643
     13 C10        -7.1067   -3.8493   -0.6074 C.ar      1 <0>        -0.0792
     14 C11        -7.6909   -4.9926   -1.1026 C.ar      1 <0>        -0.0767
     15 C12        -6.9508   -5.8635   -1.9066 C.ar      1 <0>        -0.0835
     16 C13        -5.6190   -5.5706   -2.2121 C.ar      1 <0>        -0.0476
     17 C14        -5.0365   -4.4246   -1.7212 C.ar      1 <0>        -0.0796
     18 C15        -7.5760   -7.0940   -2.4332 C.2       1 <0>         0.5535
     19 O1         -6.9319   -7.8518   -3.1323 O.2       1 <0>        -0.5185
     20 N3         -8.8604   -7.3765   -2.1385 N.am      1 <0>        -0.8426
     21 C16        -2.4037   -0.0293    0.0159 C.ar      1 <0>        -0.0635
     22 C17        -2.4165    1.3652    0.0254 C.ar      1 <0>        -0.0331
     23 C18        -1.2283    2.0653    0.0191 C.ar      1 <0>        -0.1143
     24 C19        -0.0168    1.3869    0.0097 C.ar      1 <0>         0.0932
     25 C20         0.0021   -0.0041    0.0020 C.ar      1 <0>         0.0531
     26 C21        -1.1882   -0.7115    0.0043 C.ar      1 <0>        -0.0880
     27 O2          1.1811   -0.6847   -0.0064 O.3       1 <0>        -0.3037
     28 C22         2.3474    0.0534   -0.3868 C.3       1 <0>         0.0192
     29 C23         2.3347    1.3914    0.3649 C.3       1 <0>         0.0172
     30 O3          1.1439    2.0983    0.0024 O.3       1 <0>        -0.2987
     31 H2         -7.5112    2.8646    2.5554 H         1 <0>         0.1508
     32 H3         -5.5231    3.9132    3.6159 H         1 <0>         0.1517
     33 H4         -3.3003    2.9181    3.2715 H         1 <0>         0.1741
     34 H5         -7.1881    0.8353    1.1628 H         1 <0>         0.1360
     35 H6         -7.6776   -3.1783    0.0174 H         1 <0>         0.1395
     36 H7         -8.7203   -5.2188   -0.8667 H         1 <0>         0.1497
     37 H8         -5.0468   -6.2438   -2.8332 H         1 <0>         0.1610
     38 H9         -4.0071   -4.1984   -1.9570 H         1 <0>         0.1413
     39 H10        -9.3743   -6.7718   -1.5807 H         1 <0>         0.4023
     40 H11        -9.2710   -8.1844   -2.4843 H         1 <0>         0.4155
     41 H12        -3.3566    1.8968    0.0354 H         1 <0>         0.1334
     42 H13        -1.2401    3.1452    0.0270 H         1 <0>         0.1473
     43 H14        -1.1748   -1.7914   -0.0032 H         1 <0>         0.1355
     44 H15         3.2419   -0.5095   -0.1204 H         1 <0>         0.1315
     45 H16         2.3336    0.2346   -1.4615 H         1 <0>         0.0842
     46 H17         2.3411    1.2094    1.4395 H         1 <0>         0.0858
     47 H18         3.2099    1.9781    0.0857 H         1 <0>         0.1322
     48 N4         -3.9128   -1.9428   -0.6137 N.pl3     1 <0>        -0.4759
     49 H19        -3.2298   -2.4543   -1.1848 H         1 <0>         0.4789
@<TRIPOS>BOND
     1    1    6 ar
     2    1    2 ar
     3    1   31 1
     4    2    3 ar
     5    2   32 1
     6    3    4 ar
     7    3   33 1
     8    4    5 ar
     9    5    6 ar
    10    5    7 1
    11    6   34 1
    12    7   10 1
    13    7    8 2
    14    8   21 1
    15    8   48 1
    16    9   10 1
    17    9   12 1
    18    9   48 2
    19   10   11 1
    20   12   17 ar
    21   12   13 ar
    22   13   14 ar
    23   13   35 1
    24   14   15 ar
    25   14   36 1
    26   15   16 ar
    27   15   18 1
    28   16   17 ar
    29   16   37 1
    30   17   38 1
    31   18   19 2
    32   18   20 am
    33   20   39 1
    34   20   40 1
    35   21   26 ar
    36   21   22 ar
    37   22   23 ar
    38   22   41 1
    39   23   24 ar
    40   23   42 1
    41   24   30 1
    42   24   25 ar
    43   25   26 ar
    44   25   27 1
    45   26   43 1
    46   27   28 1
    47   28   29 1
    48   28   44 1
    49   28   45 1
    50   29   30 1
    51   29   46 1
    52   29   47 1
    53   48   49 1
@<TRIPOS>MOLECULE
ZINC00603769
   45    49     0     0     0
SMALL
USER_CHARGES

@<TRIPOS>ATOM
      1 C1         -0.0167    1.3789    0.0096 C.ar      1 <0>        -0.0757
      2 C2          1.1941    2.0586    0.0017 C.ar      1 <0>        -0.1711
      3 C3          2.3751    1.3408   -0.0134 C.ar      1 <0>         0.1033
      4 N1          2.3663    0.0230   -0.0208 N.ar      1 <0>        -0.4675
      5 C4          1.2307   -0.6650   -0.0137 C.ar      1 <0>         0.2024
      6 C5          0.0021   -0.0041    0.0020 C.ar      1 <0>        -0.1404
      7 C6          1.2685   -2.1448   -0.0225 C.2       1 <0>         0.0666
      8 C7          2.3023   -2.9340   -0.5056 C.2       1 <0>         0.0811
      9 N2          1.9164   -4.2375   -0.3156 N.pl3     1 <0>        -0.5508
     10 H1          2.4258   -5.0288   -0.5508 H         1 <0>         0.4264
     11 C8          0.6805   -4.2121    0.2676 C.2       1 <0>         0.2507
     12 N3          0.3115   -2.9636    0.4406 N.2       1 <0>        -0.4439
     13 C9         -0.1115   -5.3995    0.6478 C.ar      1 <0>         0.0144
     14 C10         0.3976   -6.6810    0.4208 C.ar      1 <0>        -0.1179
     15 C11        -0.3375   -7.7833    0.7737 C.ar      1 <0>        -0.0516
     16 C12        -1.5961   -7.6252    1.3604 C.ar      1 <0>        -0.1312
     17 C13        -2.1053   -6.3436    1.5874 C.ar      1 <0>        -0.0810
     18 C14        -1.3676   -5.2413    1.2397 C.ar      1 <0>        -0.0843
     19 C15        -2.3883   -8.8125    1.7401 C.2       1 <0>         0.5623
     20 O1         -1.9455   -9.9273    1.5423 O.2       1 <0>        -0.5370
     21 N4         -3.6020   -8.6600    2.3059 N.am      1 <0>        -0.8494
     22 C16         3.5664   -2.4649   -1.1051 C.ar      1 <0>        -0.0057
     23 C17         3.5546   -1.4326   -2.0465 C.ar      1 <0>        -0.0473
     24 C18         4.7370   -0.9960   -2.6052 C.ar      1 <0>        -0.0979
     25 C19         5.9411   -1.5787   -2.2363 C.ar      1 <0>         0.0448
     26 C20         5.9601   -2.6096   -1.2973 C.ar      1 <0>         0.0322
     27 C21         4.7789   -3.0478   -0.7286 C.ar      1 <0>        -0.0871
     28 O2          7.2534   -3.0055   -1.1110 O.3       1 <0>        -0.3079
     29 C22         7.9798   -2.4901   -2.2422 C.3       1 <0>         0.2130
     30 O3          7.2226   -1.3307   -2.6361 O.3       1 <0>        -0.3065
     31 H2         -0.9523    1.9181    0.0259 H         1 <0>         0.1368
     32 H3          1.2128    3.1385    0.0070 H         1 <0>         0.1357
     33 H4          3.3182    1.8671   -0.0196 H         1 <0>         0.1579
     34 H5         -0.9212   -0.5644    0.0082 H         1 <0>         0.1401
     35 H6          1.3701   -6.8031   -0.0329 H         1 <0>         0.1272
     36 H7          0.0558   -8.7736    0.5980 H         1 <0>         0.1436
     37 H8         -3.0779   -6.2214    2.0408 H         1 <0>         0.1346
     38 H9         -1.7590   -4.2509    1.4195 H         1 <0>         0.1464
     39 H10        -3.9552   -7.7705    2.4638 H         1 <0>         0.4019
     40 H11        -4.1222   -9.4398    2.5553 H         1 <0>         0.4075
     41 H12         2.6195   -0.9770   -2.3368 H         1 <0>         0.1341
     42 H13         4.7260   -0.1979   -3.3327 H         1 <0>         0.1396
     43 H14         4.7928   -3.8430    0.0020 H         1 <0>         0.1318
     44 H15         8.9911   -2.2062   -1.9508 H         1 <0>         0.1338
     45 H16         8.0041   -3.2236   -3.0481 H         1 <0>         0.0860
@<TRIPOS>BOND
     1    1    6 ar
     2    1    2 ar
     3    1   31 1
     4    2    3 ar
     5    2   32 1
     6    3    4 ar
     7    3   33 1
     8    4    5 ar
     9    5    6 ar
    10    5    7 1
    11    6   34 1
    12    7   12 1
    13    7    8 2
    14    8    9 1
    15    8   22 1
    16    9   10 1
    17    9   11 1
    18   11   12 2
    19   11   13 1
    20   13   18 ar
    21   13   14 ar
    22   14   15 ar
    23   14   35 1
    24   15   16 ar
    25   15   36 1
    26   16   17 ar
    27   16   19 1
    28   17   18 ar
    29   17   37 1
    30   18   38 1
    31   19   20 2
    32   19   21 am
    33   21   39 1
    34   21   40 1
    35   22   27 ar
    36   22   23 ar
    37   23   24 ar
    38   23   41 1
    39   24   25 ar
    40   24   42 1
    41   25   30 1
    42   25   26 ar
    43   26   27 ar
    44   26   28 1
    45   27   43 1
    46   28   29 1
    47   29   30 1
    48   29   44 1
    49   29   45 1
@<TRIPOS>MOLECULE
ZINC00603769
   45    49     0     0     0
SMALL
USER_CHARGES

@<TRIPOS>ATOM
      1 C1         -0.0167    1.3784    0.0096 C.ar      1 <0>        -0.0669
      2 C2          1.1942    2.0587    0.0017 C.ar      1 <0>        -0.1676
      3 C3          2.3763    1.3417   -0.0134 C.ar      1 <0>         0.1113
      4 N1          2.3693    0.0244   -0.0204 N.ar      1 <0>        -0.4550
      5 C4          1.2328   -0.6657   -0.0133 C.ar      1 <0>         0.1920
      6 C5          0.0021   -0.0041    0.0020 C.ar      1 <0>        -0.1658
      7 C6          1.2714   -2.1398   -0.0216 C.2       1 <0>         0.0382
      8 C7          2.2970   -2.9416   -0.4999 C.2       1 <0>         0.1062
      9 N2          1.9339   -4.2194   -0.3200 N.2       1 <0>        -0.4531
     10 C8          0.7459   -4.2650    0.2406 C.2       1 <0>         0.2625
     11 N3          0.2999   -2.9925    0.4490 N.pl3     1 <0>        -0.5476
     12 H1         -0.5448   -2.7370    0.8516 H         1 <0>         0.4250
     13 C9          0.0129   -5.4979    0.5945 C.ar      1 <0>         0.0109
     14 C10        -1.2515   -5.4143    1.1833 C.ar      1 <0>        -0.1171
     15 C11        -1.9345   -6.5627    1.5126 C.ar      1 <0>        -0.0525
     16 C12        -1.3635   -7.8124    1.2582 C.ar      1 <0>        -0.1294
     17 C13        -0.0990   -7.8960    0.6694 C.ar      1 <0>        -0.0814
     18 C14         0.5816   -6.7476    0.3352 C.ar      1 <0>        -0.0818
     19 C15        -2.0964   -9.0452    1.6121 C.2       1 <0>         0.5623
     20 O1         -3.1964   -8.9725    2.1247 O.2       1 <0>        -0.5370
     21 N4         -1.5457  -10.2506    1.3667 N.am      1 <0>        -0.8491
     22 C16         3.5663   -2.4704   -1.1017 C.ar      1 <0>         0.0066
     23 C17         3.5838   -1.3119   -1.8779 C.ar      1 <0>        -0.0530
     24 C18         4.7662   -0.8745   -2.4381 C.ar      1 <0>        -0.1046
     25 C19         5.9404   -1.5831   -2.2312 C.ar      1 <0>         0.0391
     26 C20         5.9290   -2.7416   -1.4559 C.ar      1 <0>         0.0249
     27 C21         4.7469   -3.1812   -0.8884 C.ar      1 <0>        -0.0684
     28 O2          7.1968   -3.2459   -1.4069 O.3       1 <0>        -0.3087
     29 C22         7.9032   -2.6161   -2.4920 C.3       1 <0>         0.2133
     30 O3          7.2156   -1.3632   -2.6666 O.3       1 <0>        -0.3096
     31 H2         -0.9524    1.9175    0.0259 H         1 <0>         0.1396
     32 H3          1.2122    3.1385    0.0070 H         1 <0>         0.1402
     33 H4          3.3188    1.8691   -0.0200 H         1 <0>         0.1641
     34 H5         -0.9211   -0.5645    0.0082 H         1 <0>         0.1300
     35 H6         -1.6927   -4.4484    1.3803 H         1 <0>         0.1270
     36 H7         -2.9117   -6.4980    1.9680 H         1 <0>         0.1439
     37 H8          0.3423   -8.8619    0.4727 H         1 <0>         0.1353
     38 H9          1.5570   -6.8122   -0.1239 H         1 <0>         0.1477
     39 H10        -0.6681  -10.3086    0.9577 H         1 <0>         0.4021
     40 H11        -2.0270  -11.0601    1.5991 H         1 <0>         0.4077
     41 H12         2.6715   -0.7574   -2.0408 H         1 <0>         0.1298
     42 H13         4.7777    0.0227   -3.0392 H         1 <0>         0.1349
     43 H14         4.7373   -4.0762   -0.2840 H         1 <0>         0.1381
     44 H15         8.9457   -2.4465   -2.2230 H         1 <0>         0.1312
     45 H16         7.8334   -3.2205   -3.3964 H         1 <0>         0.0841
@<TRIPOS>BOND
     1    1    6 ar
     2    1    2 ar
     3    1   31 1
     4    2    3 ar
     5    2   32 1
     6    3    4 ar
     7    3   33 1
     8    4    5 ar
     9    5    6 ar
    10    5    7 1
    11    6   34 1
    12    7   11 1
    13    7    8 2
    14    8    9 1
    15    8   22 1
    16    9   10 2
    17   10   11 1
    18   10   13 1
    19   11   12 1
    20   13   18 ar
    21   13   14 ar
    22   14   15 ar
    23   14   35 1
    24   15   16 ar
    25   15   36 1
    26   16   17 ar
    27   16   19 1
    28   17   18 ar
    29   17   37 1
    30   18   38 1
    31   19   20 2
    32   19   21 am
    33   21   39 1
    34   21   40 1
    35   22   27 ar
    36   22   23 ar
    37   23   24 ar
    38   23   41 1
    39   24   25 ar
    40   24   42 1
    41   25   30 1
    42   25   26 ar
    43   26   27 ar
    44   26   28 1
    45   27   43 1
    46   28   29 1
    47   29   30 1
    48   29   44 1
    49   29   45 1
@<TRIPOS>MOLECULE
ZINC40935136
   38    41     0     0     0
SMALL
USER_CHARGES

@<TRIPOS>ATOM
      1 C1         -0.0184    1.5028    0.0103 C.3       1 <0>        -0.1137
      2 C2          0.0021   -0.0041    0.0020 C.ar      1 <0>         0.1252
      3 C3          0.0056   -0.6805   -1.2065 C.ar      1 <0>         0.0823
      4 C4          0.0249   -2.0710   -1.2103 C.ar      1 <0>        -0.0955
      5 C5          0.0401   -2.7346    0.0022 C.ar      1 <0>        -0.1240
      6 C6          0.0355   -1.9892    1.1843 C.ar      1 <0>         0.1509
      7 N1          0.0218   -0.6599    1.1444 N.ar      1 <0>        -0.4237
      8 C7          0.0515   -2.6816    2.4854 C.2       1 <0>         0.1206
      9 C8          0.5129   -2.1776    3.6874 C.2       1 <0>         0.1279
     10 N2          0.3455   -3.1331    4.6221 N.pl3     1 <0>        -0.5142
     11 C9         -0.1908   -4.1967    4.0731 C.cat     1 <0>         0.6088
     12 N3         -0.3975   -3.9627    2.7488 N.pl3     1 <0>        -0.5432
     13 H1         -0.7853   -4.5798    2.1087 H         1 <0>         0.4626
     14 N4         -0.5016   -5.3683    4.7361 N.pl3     1 <0>        -0.7964
     15 C10         1.0878   -0.8314    3.9072 C.ar      1 <0>        -0.0234
     16 C11         2.0304   -0.3185    2.9984 C.ar      1 <0>        -0.0543
     17 C12         2.5713    0.9130    3.1781 C.ar      1 <0>        -0.0676
     18 C13         2.1915    1.6952    4.2850 C.ar      1 <0>         0.0983
     19 C14         1.2413    1.1883    5.2088 C.ar      1 <0>         0.0724
     20 C15         0.6893   -0.0852    5.0022 C.ar      1 <0>        -0.0442
     21 N5          0.8799    1.9328    6.2605 N.ar      1 <0>        -0.4220
     22 C16         1.4080    3.1243    6.4271 C.ar      1 <0>         0.0876
     23 C17         2.3424    3.6227    5.5179 C.ar      1 <0>         0.0972
     24 N6          2.7139    2.9104    4.4780 N.ar      1 <0>        -0.4243
     25 F1         -0.0101    0.0042   -2.3710 F         1 <0>        -0.1101
     26 H2          1.0042    1.8801    0.0026 H         1 <0>         0.0930
     27 H3         -0.5455    1.8639   -0.8728 H         1 <0>         0.0886
     28 H4         -0.5286    1.8543    0.9071 H         1 <0>         0.0886
     29 H5          0.0277   -2.6204   -2.1402 H         1 <0>         0.1637
     30 H6          0.0549   -3.8140    0.0356 H         1 <0>         0.1468
     31 H7         -0.3237   -5.4497    5.6861 H         1 <0>         0.4431
     32 H8         -0.8977   -6.1093    4.2515 H         1 <0>         0.4426
     33 H9          2.3279   -0.9124    2.1468 H         1 <0>         0.1334
     34 H10         3.2941    1.2932    2.4714 H         1 <0>         0.1498
     35 H11        -0.0380   -0.4818    5.6951 H         1 <0>         0.1422
     36 H12         1.1158    3.7244    7.2761 H         1 <0>         0.1842
     37 H13         2.7651    4.6047    5.6710 H         1 <0>         0.1845
     38 H14         0.5852   -3.0476    5.5581 H         1 <0>         0.4626
@<TRIPOS>BOND
     1    1    2 1
     2    1   26 1
     3    1   27 1
     4    1   28 1
     5    2    7 ar
     6    2    3 ar
     7    3    4 ar
     8    3   25 1
     9    4    5 ar
    10    4   29 1
    11    5    6 ar
    12    5   30 1
    13    6    7 ar
    14    6    8 1
    15    8   12 1
    16    8    9 2
    17    9   10 1
    18    9   15 1
    19   10   11 2
    20   10   38 1
    21   11   12 1
    22   11   14 1
    23   12   13 1
    24   14   31 1
    25   14   32 1
    26   15   20 ar
    27   15   16 ar
    28   16   17 ar
    29   16   33 1
    30   17   18 ar
    31   17   34 1
    32   18   24 ar
    33   18   19 ar
    34   19   20 ar
    35   19   21 ar
    36   20   35 1
    37   21   22 ar
    38   22   23 ar
    39   22   36 1
    40   23   24 ar
    41   23   37 1
@<TRIPOS>MOLECULE
ZINC40935136
   38    41     0     0     0
SMALL
USER_CHARGES

@<TRIPOS>ATOM
      1 C1         -0.0184    1.5028    0.0103 C.3       1 <0>        -0.1139
      2 C2          0.0021   -0.0041    0.0020 C.ar      1 <0>         0.1265
      3 C3          0.0055   -0.6808   -1.2064 C.ar      1 <0>         0.0804
      4 C4          0.0244   -2.0708   -1.2089 C.ar      1 <0>        -0.0940
      5 C5          0.0392   -2.7330    0.0054 C.ar      1 <0>        -0.1282
      6 C6          0.0346   -1.9876    1.1845 C.ar      1 <0>         0.1533
      7 N1          0.0218   -0.6601    1.1442 N.ar      1 <0>        -0.4257
      8 C7          0.0503   -2.6818    2.4914 C.2       1 <0>         0.0959
      9 C8          0.5156   -2.1631    3.6856 C.2       1 <0>         0.1529
     10 N2          0.3372   -3.1521    4.6340 N.pl3     1 <0>        -0.5466
     11 H1          0.5661   -3.0953    5.5749 H         1 <0>         0.4640
     12 C9         -0.2198   -4.2207    4.0013 C.cat     1 <0>         0.6080
     13 N3         -0.3918   -3.9317    2.7337 N.pl3     1 <0>        -0.5103
     14 N4         -0.5567   -5.4190    4.6012 N.pl3     1 <0>        -0.7967
     15 C10         1.0884   -0.8223    3.9036 C.ar      1 <0>        -0.0255
     16 C11         2.0326   -0.3088    2.9935 C.ar      1 <0>        -0.0528
     17 C12         2.5731    0.9220    3.1734 C.ar      1 <0>        -0.0685
     18 C13         2.1929    1.7050    4.2803 C.ar      1 <0>         0.0996
     19 C14         1.2424    1.1993    5.2049 C.ar      1 <0>         0.0711
     20 C15         0.6896   -0.0732    5.0001 C.ar      1 <0>        -0.0400
     21 N5          0.8814    1.9453    6.2562 N.ar      1 <0>        -0.4214
     22 C16         1.4102    3.1369    6.4213 C.ar      1 <0>         0.0872
     23 C17         2.3447    3.6335    5.5118 C.ar      1 <0>         0.0978
     24 N6          2.7155    2.9200    4.4722 N.ar      1 <0>        -0.4246
     25 F1         -0.0097    0.0032   -2.3714 F         1 <0>        -0.1104
     26 H2          1.0042    1.8801    0.0026 H         1 <0>         0.0930
     27 H3         -0.5455    1.8639   -0.8728 H         1 <0>         0.0885
     28 H4         -0.5286    1.8543    0.9071 H         1 <0>         0.0886
     29 H5          0.0271   -2.6213   -2.1380 H         1 <0>         0.1636
     30 H6          0.0537   -3.8124    0.0402 H         1 <0>         0.1460
     31 H7         -0.3987   -5.5479    5.5495 H         1 <0>         0.4432
     32 H8         -0.9512   -6.1313    4.0740 H         1 <0>         0.4424
     33 H9          2.3302   -0.9027    2.1419 H         1 <0>         0.1337
     34 H10         3.2963    1.3019    2.4670 H         1 <0>         0.1500
     35 H11        -0.0383   -0.4683    5.6933 H         1 <0>         0.1428
     36 H12         1.1181    3.7383    7.2695 H         1 <0>         0.1843
     37 H13         2.7685    4.6151    5.6641 H         1 <0>         0.1846
     38 H14        -0.7757   -4.5273    2.0714 H         1 <0>         0.4608
@<TRIPOS>BOND
     1    1    2 1
     2    1   26 1
     3    1   27 1
     4    1   28 1
     5    2    7 ar
     6    2    3 ar
     7    3    4 ar
     8    3   25 1
     9    4    5 ar
    10    4   29 1
    11    5    6 ar
    12    5   30 1
    13    6    7 ar
    14    6    8 1
    15    8   13 1
    16    8    9 2
    17    9   10 1
    18    9   15 1
    19   10   11 1
    20   10   12 1
    21   12   13 2
    22   12   14 1
    23   13   38 1
    24   14   31 1
    25   14   32 1
    26   15   20 ar
    27   15   16 ar
    28   16   17 ar
    29   16   33 1
    30   17   18 ar
    31   17   34 1
    32   18   24 ar
    33   18   19 ar
    34   19   20 ar
    35   19   21 ar
    36   20   35 1
    37   21   22 ar
    38   22   23 ar
    39   22   36 1
    40   23   24 ar
    41   23   37 1
@<TRIPOS>MOLECULE
ZINC40935136
   37    40     0     0     0
SMALL
USER_CHARGES

@<TRIPOS>ATOM
      1 C1         -0.0184    1.5028    0.0103 C.3       1 <0>        -0.1085
      2 C2          0.0021   -0.0041    0.0020 C.ar      1 <0>         0.1214
      3 C3          0.0056   -0.6805   -1.2065 C.ar      1 <0>         0.0422
      4 C4          0.0249   -2.0710   -1.2103 C.ar      1 <0>        -0.0945
      5 C5          0.0401   -2.7346    0.0022 C.ar      1 <0>        -0.1505
      6 C6          0.0355   -1.9892    1.1843 C.ar      1 <0>         0.2043
      7 N1          0.0218   -0.6599    1.1444 N.ar      1 <0>        -0.4391
      8 C7          0.0515   -2.6816    2.4854 C.2       1 <0>        -0.0032
      9 C8          0.5129   -2.1776    3.6874 C.2       1 <0>         0.1298
     10 N2          0.3455   -3.1331    4.6221 N.2       1 <0>        -0.5224
     11 C9         -0.1908   -4.1967    4.0731 C.2       1 <0>         0.5125
     12 N3         -0.3975   -3.9627    2.7488 N.pl3     1 <0>        -0.5849
     13 N4         -0.5016   -5.3683    4.7361 N.pl3     1 <0>        -0.8326
     14 C10         1.0878   -0.8314    3.9072 C.ar      1 <0>         0.0235
     15 C11         1.8634   -0.2310    2.8995 C.ar      1 <0>        -0.0428
     16 C12         2.4008    1.0023    3.0772 C.ar      1 <0>        -0.0925
     17 C13         2.1857    1.6982    4.2817 C.ar      1 <0>         0.0863
     18 C14         1.4048    1.1027    5.3057 C.ar      1 <0>         0.0773
     19 C15         0.8530   -0.1712    5.1004 C.ar      1 <0>        -0.0533
     20 N5          1.1999    1.7652    6.4503 N.ar      1 <0>        -0.4223
     21 C16         1.7232    2.9591    6.6143 C.ar      1 <0>         0.0707
     22 C17         2.4910    3.5448    5.6065 C.ar      1 <0>         0.0737
     23 N6          2.7071    2.9139    4.4742 N.ar      1 <0>        -0.4274
     24 F1         -0.0101    0.0042   -2.3710 F         1 <0>        -0.1251
     25 H1          1.0042    1.8801    0.0026 H         1 <0>         0.0871
     26 H2         -0.5455    1.8639   -0.8728 H         1 <0>         0.0810
     27 H3         -0.5286    1.8543    0.9071 H         1 <0>         0.0855
     28 H4          0.0277   -2.6204   -2.1402 H         1 <0>         0.1514
     29 H5          0.0549   -3.8140    0.0356 H         1 <0>         0.1393
     30 H6         -0.3240   -5.4496    5.6862 H         1 <0>         0.4260
     31 H7         -0.8974   -6.1095    4.2514 H         1 <0>         0.4099
     32 H8          2.0340   -0.7584    1.9726 H         1 <0>         0.1268
     33 H9          2.9943    1.4502    2.2939 H         1 <0>         0.1382
     34 H10         0.2533   -0.6347    5.8697 H         1 <0>         0.1440
     35 H11         1.5573    3.4930    7.5383 H         1 <0>         0.1740
     36 H12         2.9125    4.5273    5.7591 H         1 <0>         0.1737
     37 H13        -0.7853   -4.5798    2.1087 H         1 <0>         0.4207
@<TRIPOS>BOND
     1    1    2 1
     2    1   25 1
     3    1   26 1
     4    1   27 1
     5    2    7 ar
     6    2    3 ar
     7    3    4 ar
     8    3   24 1
     9    4    5 ar
    10    4   28 1
    11    5    6 ar
    12    5   29 1
    13    6    7 ar
    14    6    8 1
    15    8   12 1
    16    8    9 2
    17    9   10 1
    18    9   14 1
    19   10   11 2
    20   11   12 1
    21   11   13 1
    22   12   37 1
    23   13   30 1
    24   13   31 1
    25   14   19 ar
    26   14   15 ar
    27   15   16 ar
    28   15   32 1
    29   16   17 ar
    30   16   33 1
    31   17   23 ar
    32   17   18 ar
    33   18   19 ar
    34   18   20 ar
    35   19   34 1
    36   20   21 ar
    37   21   22 ar
    38   21   35 1
    39   22   23 ar
    40   22   36 1
@<TRIPOS>MOLECULE
ZINC40935136
   37    40     0     0     0
SMALL
USER_CHARGES

@<TRIPOS>ATOM
      1 C1         -0.0184    1.5028    0.0103 C.3       1 <0>        -0.1053
      2 C2          0.0021   -0.0041    0.0020 C.ar      1 <0>         0.1110
      3 C3          0.0055   -0.6808   -1.2064 C.ar      1 <0>         0.0465
      4 C4          0.0244   -2.0708   -1.2089 C.ar      1 <0>        -0.1050
      5 C5          0.0392   -2.7330    0.0054 C.ar      1 <0>        -0.1166
      6 C6          0.0346   -1.9876    1.1845 C.ar      1 <0>         0.1997
      7 N1          0.0218   -0.6601    1.1442 N.ar      1 <0>        -0.4433
      8 C7          0.0503   -2.6818    2.4914 C.2       1 <0>         0.0983
      9 C8          0.5156   -2.1631    3.6856 C.2       1 <0>         0.0284
     10 N2          0.3372   -3.1521    4.6340 N.pl3     1 <0>        -0.5857
     11 C9         -0.2198   -4.2207    4.0013 C.2       1 <0>         0.5043
     12 N3         -0.3918   -3.9317    2.7337 N.2       1 <0>        -0.5188
     13 N4         -0.5567   -5.4190    4.6012 N.pl3     1 <0>        -0.8346
     14 C10         1.0884   -0.8223    3.9036 C.ar      1 <0>         0.0339
     15 C11         2.0326   -0.3088    2.9935 C.ar      1 <0>        -0.0499
     16 C12         2.5731    0.9220    3.1734 C.ar      1 <0>        -0.0808
     17 C13         2.1929    1.7050    4.2803 C.ar      1 <0>         0.0841
     18 C14         1.2424    1.1993    5.2049 C.ar      1 <0>         0.0833
     19 C15         0.6896   -0.0732    5.0001 C.ar      1 <0>        -0.0812
     20 N5          0.8814    1.9453    6.2562 N.ar      1 <0>        -0.4268
     21 C16         1.4102    3.1369    6.4213 C.ar      1 <0>         0.0752
     22 C17         2.3447    3.6335    5.5118 C.ar      1 <0>         0.0739
     23 N6          2.7155    2.9200    4.4722 N.ar      1 <0>        -0.4243
     24 F1         -0.0097    0.0032   -2.3714 F         1 <0>        -0.1273
     25 H1          1.0042    1.8801    0.0026 H         1 <0>         0.0835
     26 H2         -0.5455    1.8639   -0.8728 H         1 <0>         0.0793
     27 H3         -0.5286    1.8543    0.9071 H         1 <0>         0.0818
     28 H4          0.0271   -2.6213   -2.1380 H         1 <0>         0.1508
     29 H5          0.0537   -3.8124    0.0402 H         1 <0>         0.1516
     30 H6         -0.3987   -5.5479    5.5495 H         1 <0>         0.4098
     31 H7         -0.9512   -6.1313    4.0740 H         1 <0>         0.4247
     32 H8          2.3302   -0.9027    2.1419 H         1 <0>         0.1298
     33 H9          3.2963    1.3019    2.4670 H         1 <0>         0.1414
     34 H10        -0.0383   -0.4683    5.6933 H         1 <0>         0.1355
     35 H11         1.1181    3.7383    7.2695 H         1 <0>         0.1752
     36 H12         2.7685    4.6151    5.6641 H         1 <0>         0.1752
     37 H13         0.5661   -3.0953    5.5749 H         1 <0>         0.4223
@<TRIPOS>BOND
     1    1    2 1
     2    1   25 1
     3    1   26 1
     4    1   27 1
     5    2    7 ar
     6    2    3 ar
     7    3    4 ar
     8    3   24 1
     9    4    5 ar
    10    4   28 1
    11    5    6 ar
    12    5   29 1
    13    6    7 ar
    14    6    8 1
    15    8   12 1
    16    8    9 2
    17    9   10 1
    18    9   14 1
    19   10   11 1
    20   10   37 1
    21   11   12 2
    22   11   13 1
    23   13   30 1
    24   13   31 1
    25   14   19 ar
    26   14   15 ar
    27   15   16 ar
    28   15   32 1
    29   16   17 ar
    30   16   33 1
    31   17   23 ar
    32   17   18 ar
    33   18   19 ar
    34   18   20 ar
    35   19   34 1
    36   20   21 ar
    37   21   22 ar
    38   21   35 1
    39   22   23 ar
    40   22   36 1
@<TRIPOS>MOLECULE
ZINC39716195
   43    46     0     0     0
SMALL
NO_CHARGES

@<TRIPOS>ATOM
      1 C1          1.7808    2.2922    0.9793 C.3       1 <0>        -0.1095
      2 C2          1.5652    0.8156    0.7691 C.ar      1 <0>         0.1230
      3 C3          1.5525    0.3033   -0.5180 C.ar      1 <0>         0.0472
      4 C4          1.3533   -1.0596   -0.7077 C.ar      1 <0>        -0.0929
      5 C5          1.1736   -1.8618    0.4041 C.ar      1 <0>        -0.1410
      6 C6          1.1981   -1.2785    1.6730 C.ar      1 <0>         0.1917
      7 N1          1.3969    0.0287    1.8117 N.ar      1 <0>        -0.4423
      8 C7          1.0075   -2.1207    2.8693 C.2       1 <0>         0.0696
      9 C8          0.8871   -1.6796    4.1513 C.2       1 <0>         0.1205
     10 N2          0.7234   -2.7893    4.9647 N.pl3     1 <0>        -0.6162
     11 H1          0.6124   -2.7774    5.9282 H         1 <0>         0.4386
     12 C9          0.7446   -3.8965    4.1785 C.2       1 <0>         0.5728
     13 N3          0.9125   -3.5039    2.8896 N.pl3     1 <0>        -0.5913
     14 N4          0.6175   -5.1541    4.5999 N.2       1 <0>        -0.6122
     15 C10         0.5503   -5.4151    5.9005 C.2       1 <0>         0.1211
     16 O1         -0.3913   -5.0088    6.5543 O.3       1 <0>        -0.4470
     17 C11         1.6407   -6.2146    6.5659 C.3       1 <0>        -0.0985
     18 C12         0.9243   -0.2727    4.5950 C.ar      1 <0>         0.0049
     19 C13         0.1031    0.6809    3.9642 C.ar      1 <0>        -0.0302
     20 C14         0.1204    1.9799    4.3545 C.ar      1 <0>        -0.0899
     21 C15         0.9659    2.3907    5.4026 C.ar      1 <0>         0.0921
     22 C16         1.7983    1.4391    6.0470 C.ar      1 <0>         0.0767
     23 C17         1.7633    0.0991    5.6334 C.ar      1 <0>        -0.0610
     24 N5          2.6010    1.8308    7.0439 N.ar      1 <0>        -0.4224
     25 C18         2.6103    3.0910    7.4155 C.ar      1 <0>         0.0740
     26 C19         1.7914    4.0266    6.7814 C.ar      1 <0>         0.0799
     27 N6          0.9950    3.6666    5.8000 N.ar      1 <0>        -0.4266
     28 F1          1.7314    1.1204   -1.5789 F         1 <0>        -0.1237
     29 H2          2.8380    2.4824    1.1644 H         1 <0>         0.0849
     30 H3          1.4643    2.8359    0.0891 H         1 <0>         0.0822
     31 H4          1.1960    2.6264    1.8362 H         1 <0>         0.0866
     32 H5          1.3389   -1.4823   -1.7015 H         1 <0>         0.1539
     33 H6          1.0161   -2.9244    0.2930 H         1 <0>         0.1431
     34 H7          0.9598   -4.0893    2.1176 H         1 <0>         0.4394
     35 H8          2.4171   -5.5401    6.9269 H         1 <0>         0.0618
     36 H9          1.2230   -6.7703    7.4054 H         1 <0>         0.0621
     37 H10         2.0706   -6.9117    5.8467 H         1 <0>         0.0699
     38 H11        -0.5486    0.3746    3.1593 H         1 <0>         0.1322
     39 H12        -0.5150    2.7000    3.8604 H         1 <0>         0.1424
     40 H13         2.3886   -0.6364    6.1177 H         1 <0>         0.1397
     41 H14         3.2580    3.4061    8.2202 H         1 <0>         0.1762
     42 H15         1.8124    5.0580    7.1009 H         1 <0>         0.1762
     43 H16        -1.2407   -5.3975    6.3043 H         1 <0>         0.3420
@<TRIPOS>BOND
     1    1    2 1
     2    1   29 1
     3    1   30 1
     4    1   31 1
     5    2    7 ar
     6    2    3 ar
     7    3    4 ar
     8    3   28 1
     9    4    5 ar
    10    4   32 1
    11    5    6 ar
    12    5   33 1
    13    6    7 ar
    14    6    8 1
    15    8   13 1
    16    8    9 2
    17    9   18 1
    18    9   10 1
    19   10   12 1
    20   10   11 1
    21   12   14 2
    22   12   13 1
    23   13   34 1
    24   14   15 1
    25   15   17 1
    26   15   16 2
    27   16   43 1
    28   17   35 1
    29   17   36 1
    30   17   37 1
    31   18   23 ar
    32   18   19 ar
    33   19   20 ar
    34   19   38 1
    35   20   21 ar
    36   20   39 1
    37   21   27 ar
    38   21   22 ar
    39   22   23 ar
    40   22   24 ar
    41   23   40 1
    42   24   25 ar
    43   25   26 ar
    44   25   41 1
    45   26   27 ar
    46   26   42 1
@<TRIPOS>MOLECULE
ZINC39716195
   42    45     0     0     0
SMALL
USER_CHARGES

@<TRIPOS>ATOM
      1 C1          0.3880    1.2285   -0.4669 C.3       1 <0>        -0.1104
      2 C2          0.3877   -0.2744   -0.3561 C.ar      1 <0>         0.1236
      3 C3          0.3997   -1.0446   -1.5076 C.ar      1 <0>         0.0534
      4 C4          0.3994   -2.4308   -1.4010 C.ar      1 <0>        -0.0925
      5 C5          0.3870   -2.9961   -0.1392 C.ar      1 <0>        -0.1378
      6 C6          0.3753   -2.1596    0.9792 C.ar      1 <0>         0.1886
      7 N1          0.3815   -0.8380    0.8343 N.ar      1 <0>        -0.4389
      8 C7          0.3615   -2.7473    2.3325 C.2       1 <0>         0.0706
      9 C8          0.2303   -2.0653    3.5030 C.2       1 <0>         0.1184
     10 N2          0.2670   -2.9892    4.5349 N.pl3     1 <0>        -0.5853
     11 H1          0.1954   -2.7888    5.4813 H         1 <0>         0.4537
     12 C9          0.4197   -4.2243    3.9912 C.2       1 <0>         0.6267
     13 N3          0.4739   -4.0945    2.6408 N.pl3     1 <0>        -0.5674
     14 N4          0.4982   -5.3694    4.6679 N.2       1 <0>        -0.6700
     15 C10         0.5417   -5.3548    5.9953 C.2       1 <0>         0.4994
     16 O1          0.4205   -4.3043    6.5961 O.2       1 <0>        -0.6022
     17 C11         0.7412   -6.6398    6.7569 C.3       1 <0>        -0.1462
     18 C12         0.0766   -0.6047    3.6472 C.ar      1 <0>        -0.0013
     19 C13        -0.8997    0.0731    2.8927 C.ar      1 <0>        -0.0294
     20 C14        -1.0591    1.4152    3.0079 C.ar      1 <0>        -0.0891
     21 C15        -0.2441    2.1496    3.8904 C.ar      1 <0>         0.0942
     22 C16         0.7434    1.4781    4.6570 C.ar      1 <0>         0.0757
     23 C17         0.8905    0.0889    4.5285 C.ar      1 <0>        -0.0551
     24 N5          1.5170    2.1773    5.4961 N.ar      1 <0>        -0.4210
     25 C18         1.3546    3.4769    5.6017 C.ar      1 <0>         0.0746
     26 C19         0.3832    4.1368    4.8474 C.ar      1 <0>         0.0823
     27 N6         -0.3882    3.4724    4.0165 N.ar      1 <0>        -0.4267
     28 F1          0.4111   -0.4541   -2.7227 F         1 <0>        -0.1217
     29 H2          1.4114    1.5976   -0.3996 H         1 <0>         0.0859
     30 H3         -0.0419    1.5223   -1.4245 H         1 <0>         0.0833
     31 H4         -0.2053    1.6527    0.3431 H         1 <0>         0.0876
     32 H5          0.4082   -3.0524   -2.2842 H         1 <0>         0.1561
     33 H6          0.3860   -4.0695   -0.0201 H         1 <0>         0.1447
     34 H7          0.5754   -4.8181    2.0028 H         1 <0>         0.4468
     35 H8          0.8290   -7.4686    6.0544 H         1 <0>         0.0831
     36 H9          1.6509   -6.5711    7.3533 H         1 <0>         0.0872
     37 H10        -0.1120   -6.8091    7.4137 H         1 <0>         0.0869
     38 H11        -1.5292   -0.4824    2.2133 H         1 <0>         0.1335
     39 H12        -1.8120    1.9212    2.4218 H         1 <0>         0.1439
     40 H13         1.6354   -0.4353    5.1088 H         1 <0>         0.1406
     41 H14         1.9790    4.0402    6.2793 H         1 <0>         0.1771
     42 H15         0.2642    5.2055    4.9479 H         1 <0>         0.1771
@<TRIPOS>BOND
     1    1    2 1
     2    1   29 1
     3    1   30 1
     4    1   31 1
     5    2    7 ar
     6    2    3 ar
     7    3    4 ar
     8    3   28 1
     9    4    5 ar
    10    4   32 1
    11    5    6 ar
    12    5   33 1
    13    6    7 ar
    14    6    8 1
    15    8   13 1
    16    8    9 2
    17    9   18 1
    18    9   10 1
    19   10   12 1
    20   10   11 1
    21   12   14 2
    22   12   13 1
    23   13   34 1
    24   14   15 1
    25   15   17 1
    26   15   16 2
    27   17   35 1
    28   17   36 1
    29   17   37 1
    30   18   23 ar
    31   18   19 ar
    32   19   20 ar
    33   19   38 1
    34   20   21 ar
    35   20   39 1
    36   21   27 ar
    37   21   22 ar
    38   22   23 ar
    39   22   24 ar
    40   23   40 1
    41   24   25 ar
    42   25   26 ar
    43   25   41 1
    44   26   27 ar
    45   26   42 1
@<TRIPOS>MOLECULE
ZINC39716195
   43    46     0     0     0
SMALL
NO_CHARGES

@<TRIPOS>ATOM
      1 C1         -0.4203    1.7125    0.4538 C.3       1 <0>        -0.1085
      2 C2         -0.4028    0.2110    0.3265 C.ar      1 <0>         0.1238
      3 C3         -0.5277   -0.3703   -0.9248 C.ar      1 <0>         0.0420
      4 C4         -0.5110   -1.7560   -1.0379 C.ar      1 <0>        -0.0922
      5 C5         -0.3693   -2.5107    0.1120 C.ar      1 <0>        -0.1440
      6 C6         -0.2483   -1.8587    1.3412 C.ar      1 <0>         0.1855
      7 N1         -0.2635   -0.5309    1.4058 N.ar      1 <0>        -0.4432
      8 C7         -0.0968   -2.6498    2.5774 C.2       1 <0>         0.0741
      9 C8         -0.0500   -2.1575    3.8454 C.2       1 <0>         0.1332
     10 N2          0.0987   -3.2311    4.7086 N.pl3     1 <0>        -0.5593
     11 H1          0.1608   -3.1799    5.6753 H         1 <0>         0.4402
     12 C9          0.1416   -4.3675    3.9663 C.2       1 <0>         0.3986
     13 N3          0.0175   -4.0294    2.6572 N.pl3     1 <0>        -0.6098
     14 N4          0.2777   -5.6046    4.4422 N.2       1 <0>        -0.5241
     15 C10         0.4440   -6.6232    3.6062 C.2       1 <0>         0.1438
     16 O1          0.5694   -6.4173    2.4141 O.3       1 <0>        -0.4582
     17 C11         0.4772   -8.0341    4.1347 C.3       1 <0>        -0.0791
     18 C12        -0.1411   -0.7361    4.2314 C.ar      1 <0>         0.0051
     19 C13        -1.2417    0.0335    3.8091 C.ar      1 <0>        -0.0320
     20 C14        -1.3470    1.3419    4.1511 C.ar      1 <0>        -0.0882
     21 C15        -0.3494    1.9481    4.9382 C.ar      1 <0>         0.0925
     22 C16         0.7649    1.1832    5.3706 C.ar      1 <0>         0.0766
     23 C17         0.8544   -0.1700    5.0116 C.ar      1 <0>        -0.0598
     24 N5          1.7122    1.7605    6.1195 N.ar      1 <0>        -0.4228
     25 C18         1.6012    3.0283    6.4464 C.ar      1 <0>         0.0742
     26 C19         0.5051    3.7802    6.0208 C.ar      1 <0>         0.0801
     27 N6         -0.4377    3.2361    5.2845 N.ar      1 <0>        -0.4265
     28 F1         -0.6648    0.4020   -2.0247 F         1 <0>        -0.1247
     29 H2          0.6026    2.0891    0.4540 H         1 <0>         0.0839
     30 H3         -0.9654    2.1420   -0.3868 H         1 <0>         0.0818
     31 H4         -0.9107    1.9925    1.3861 H         1 <0>         0.0860
     32 H5         -0.6071   -2.2322   -2.0024 H         1 <0>         0.1526
     33 H6         -0.3527   -3.5893    0.0604 H         1 <0>         0.1401
     34 H7          0.0117   -4.6455    1.9080 H         1 <0>         0.4333
     35 H8         -0.5333   -8.4428    4.1432 H         1 <0>         0.0696
     36 H9          1.1117   -8.6470    3.4946 H         1 <0>         0.0691
     37 H10         0.8771   -8.0329    5.1487 H         1 <0>         0.0754
     38 H11        -2.0117   -0.4235    3.2051 H         1 <0>         0.1330
     39 H12        -2.1970    1.9195    3.8189 H         1 <0>         0.1428
     40 H13         1.6949   -0.7649    5.3372 H         1 <0>         0.1402
     41 H14         2.3658    3.4932    7.0510 H         1 <0>         0.1762
     42 H15         0.4308    4.8209    6.2998 H         1 <0>         0.1763
     43 H16         1.3102   -5.8372    2.1910 H         1 <0>         0.3424
@<TRIPOS>BOND
     1    1    2 1
     2    1   29 1
     3    1   30 1
     4    1   31 1
     5    2    7 ar
     6    2    3 ar
     7    3    4 ar
     8    3   28 1
     9    4    5 ar
    10    4   32 1
    11    5    6 ar
    12    5   33 1
    13    6    7 ar
    14    6    8 1
    15    8   13 1
    16    8    9 2
    17    9   18 1
    18    9   10 1
    19   10   12 1
    20   10   11 1
    21   12   14 2
    22   12   13 1
    23   13   34 1
    24   14   15 1
    25   15   17 1
    26   15   16 2
    27   16   43 1
    28   17   35 1
    29   17   36 1
    30   17   37 1
    31   18   23 ar
    32   18   19 ar
    33   19   20 ar
    34   19   38 1
    35   20   21 ar
    36   20   39 1
    37   21   27 ar
    38   21   22 ar
    39   22   23 ar
    40   22   24 ar
    41   23   40 1
    42   24   25 ar
    43   25   26 ar
    44   25   41 1
    45   26   27 ar
    46   26   42 1
@<TRIPOS>MOLECULE
ZINC39716195
   42    45     0     0     0
SMALL
USER_CHARGES

@<TRIPOS>ATOM
      1 C1          0.4726    1.4577    0.0628 C.3       1 <0>        -0.1091
      2 C2          0.4500   -0.0492    0.0683 C.ar      1 <0>         0.1207
      3 C3          0.4436   -0.7369   -1.1343 C.ar      1 <0>         0.0553
      4 C4          0.4228   -2.1271   -1.1250 C.ar      1 <0>        -0.0933
      5 C5          0.4091   -2.7791    0.0943 C.ar      1 <0>        -0.1338
      6 C6          0.4166   -2.0228    1.2685 C.ar      1 <0>         0.1829
      7 N1          0.4421   -0.6946    1.2163 N.ar      1 <0>        -0.4378
      8 C7          0.4017   -2.7036    2.5775 C.2       1 <0>         0.0763
      9 C8          0.2874   -2.1034    3.7937 C.2       1 <0>         0.1126
     10 N2          0.3161   -3.0978    4.7581 N.pl3     1 <0>        -0.5676
     11 H1          0.2529   -2.9631    5.7167 H         1 <0>         0.4492
     12 C9          0.4472   -4.2939    4.1284 C.2       1 <0>         0.6261
     13 N3          0.4957   -4.0706    2.7899 N.pl3     1 <0>        -0.5843
     14 N4          0.5125   -5.4846    4.7227 N.2       1 <0>        -0.6692
     15 C10         0.5278   -6.5924    3.9903 C.2       1 <0>         0.5003
     16 O1          0.5718   -6.5188    2.7771 O.2       1 <0>        -0.6057
     17 C11         0.4908   -7.9407    4.6625 C.3       1 <0>        -0.1464
     18 C12         0.1563   -0.6545    4.0406 C.ar      1 <0>         0.0037
     19 C13        -0.8138    0.0886    3.3417 C.ar      1 <0>        -0.0298
     20 C14        -0.9525    1.4216    3.5516 C.ar      1 <0>        -0.0880
     21 C15        -0.1218    2.0804    4.4780 C.ar      1 <0>         0.0939
     22 C16         0.8597    1.3426    5.1894 C.ar      1 <0>         0.0755
     23 C17         0.9853   -0.0362    4.9630 C.ar      1 <0>        -0.0579
     24 N5          1.6481    1.9699    6.0704 N.ar      1 <0>        -0.4217
     25 C18         1.5058    3.2611    6.2676 C.ar      1 <0>         0.0751
     26 C19         0.5403    3.9863    5.5677 C.ar      1 <0>         0.0823
     27 N6         -0.2454    3.3931    4.6973 N.ar      1 <0>        -0.4266
     28 F1          0.4570   -0.0630   -2.3052 F         1 <0>        -0.1215
     29 H2          1.5018    1.8060    0.1489 H         1 <0>         0.0856
     30 H3          0.0417    1.8241   -0.8689 H         1 <0>         0.0831
     31 H4         -0.1095    1.8328    0.9046 H         1 <0>         0.0872
     32 H5          0.4171   -2.6852   -2.0495 H         1 <0>         0.1563
     33 H6          0.3925   -3.8581    0.1380 H         1 <0>         0.1449
     34 H7          0.5828   -4.7491    2.1022 H         1 <0>         0.4514
     35 H8          0.4536   -7.8068    5.7436 H         1 <0>         0.0833
     36 H9         -0.3934   -8.4866    4.3334 H         1 <0>         0.0871
     37 H10         1.3854   -8.5039    4.3967 H         1 <0>         0.0868
     38 H11        -1.4552   -0.4086    2.6292 H         1 <0>         0.1335
     39 H12        -1.7009    1.9783    3.0072 H         1 <0>         0.1437
     40 H13         1.7253   -0.6106    5.5004 H         1 <0>         0.1416
     41 H14         2.1422    3.7664    6.9790 H         1 <0>         0.1771
     42 H15         0.4378    5.0470    5.7434 H         1 <0>         0.1770
@<TRIPOS>BOND
     1    1    2 1
     2    1   29 1
     3    1   30 1
     4    1   31 1
     5    2    7 ar
     6    2    3 ar
     7    3    4 ar
     8    3   28 1
     9    4    5 ar
    10    4   32 1
    11    5    6 ar
    12    5   33 1
    13    6    7 ar
    14    6    8 1
    15    8   13 1
    16    8    9 2
    17    9   18 1
    18    9   10 1
    19   10   12 1
    20   10   11 1
    21   12   14 2
    22   12   13 1
    23   13   34 1
    24   14   15 1
    25   15   17 1
    26   15   16 2
    27   17   35 1
    28   17   36 1
    29   17   37 1
    30   18   23 ar
    31   18   19 ar
    32   19   20 ar
    33   19   38 1
    34   20   21 ar
    35   20   39 1
    36   21   27 ar
    37   21   22 ar
    38   22   23 ar
    39   22   24 ar
    40   23   40 1
    41   24   25 ar
    42   25   26 ar
    43   25   41 1
    44   26   27 ar
    45   26   42 1
@<TRIPOS>MOLECULE
ZINC39716195
   43    46     0     0     0
SMALL
NO_CHARGES

@<TRIPOS>ATOM
      1 C1         -1.2586    1.5087   -0.2802 C.3       1 <0>        -0.1067
      2 C2         -1.0452    0.0179   -0.3354 C.ar      1 <0>         0.1261
      3 C3         -1.0084   -0.6222   -1.5635 C.ar      1 <0>         0.0204
      4 C4         -0.8113   -1.9977   -1.6102 C.ar      1 <0>        -0.0904
      5 C5         -0.6578   -2.6836   -0.4193 C.ar      1 <0>        -0.1534
      6 C6         -0.7058   -1.9748    0.7832 C.ar      1 <0>         0.1788
      7 N1         -0.8909   -0.6582    0.7843 N.ar      1 <0>        -0.4511
      8 C7         -0.5442   -2.6921    2.0624 C.2       1 <0>         0.0655
      9 C8         -0.6924   -2.1596    3.3061 C.2       1 <0>         0.1258
     10 N2         -0.4550   -3.1677    4.2266 N.pl3     1 <0>        -0.5692
     11 C9         -0.1645   -4.3046    3.5429 C.2       1 <0>         0.3688
     12 N3         -0.2200   -4.0317    2.2140 N.pl3     1 <0>        -0.5790
     13 H1         -0.0591   -4.6635    1.4958 H         1 <0>         0.4341
     14 N4          0.1218   -5.4879    4.0843 N.2       1 <0>        -0.4898
     15 C10         0.3102   -5.5905    5.3950 C.2       1 <0>         0.1691
     16 O1          0.1558   -4.6184    6.1095 O.3       1 <0>        -0.4634
     17 C11         0.7154   -6.9113    5.9970 C.3       1 <0>        -0.1188
     18 C12        -1.0425   -0.7605    3.6181 C.ar      1 <0>         0.0103
     19 C13        -2.1942   -0.1847    3.0490 C.ar      1 <0>        -0.0314
     20 C14        -2.5359    1.0996    3.3207 C.ar      1 <0>        -0.0889
     21 C15        -1.7365    1.8756    4.1815 C.ar      1 <0>         0.0915
     22 C16        -0.5732    1.3069    4.7621 C.ar      1 <0>         0.0775
     23 C17        -0.2383   -0.0245    4.4737 C.ar      1 <0>        -0.0641
     24 N5          0.1854    2.0454    5.5809 N.ar      1 <0>        -0.4235
     25 C18        -0.1540    3.2882    5.8388 C.ar      1 <0>         0.0730
     26 C19        -1.2982    3.8472    5.2676 C.ar      1 <0>         0.0783
     27 N6         -2.0589    3.1425    4.4603 N.ar      1 <0>        -0.4261
     28 F1         -1.1630    0.0836   -2.7051 F         1 <0>        -0.1301
     29 H2         -0.2932    2.0123   -0.2299 H         1 <0>         0.0812
     30 H3         -1.7913    1.8328   -1.1742 H         1 <0>         0.0796
     31 H4         -1.8455    1.7592    0.6034 H         1 <0>         0.0831
     32 H5         -0.7792   -2.5190   -2.5555 H         1 <0>         0.1474
     33 H6         -0.5034   -3.7525   -0.4191 H         1 <0>         0.1371
     34 H7         -0.4896   -3.0769    5.1918 H         1 <0>         0.4349
     35 H8          1.8029   -6.9821    6.0192 H         1 <0>         0.0752
     36 H9          0.3259   -6.9825    7.0125 H         1 <0>         0.0698
     37 H10         0.3106   -7.7245    5.3946 H         1 <0>         0.0840
     38 H11        -2.8132   -0.7727    2.3876 H         1 <0>         0.1331
     39 H12        -3.4221    1.5276    2.8759 H         1 <0>         0.1423
     40 H13         0.6421   -0.4713    4.9117 H         1 <0>         0.1380
     41 H14         0.4585    3.8833    6.4999 H         1 <0>         0.1755
     42 H15        -1.5615    4.8704    5.4916 H         1 <0>         0.1756
     43 H16         0.2283   -4.8095    7.0546 H         1 <0>         0.4098
@<TRIPOS>BOND
     1    1    2 1
     2    1   29 1
     3    1   30 1
     4    1   31 1
     5    2    7 ar
     6    2    3 ar
     7    3    4 ar
     8    3   28 1
     9    4    5 ar
    10    4   32 1
    11    5    6 ar
    12    5   33 1
    13    6    7 ar
    14    6    8 1
    15    8    9 2
    16    8   12 1
    17    9   18 1
    18    9   10 1
    19   10   11 1
    20   10   34 1
    21   11   14 2
    22   11   12 1
    23   12   13 1
    24   14   15 1
    25   15   17 1
    26   15   16 2
    27   16   43 1
    28   17   35 1
    29   17   36 1
    30   17   37 1
    31   18   23 ar
    32   18   19 ar
    33   19   20 ar
    34   19   38 1
    35   20   21 ar
    36   20   39 1
    37   21   27 ar
    38   21   22 ar
    39   22   23 ar
    40   22   24 ar
    41   23   40 1
    42   24   25 ar
    43   25   26 ar
    44   25   41 1
    45   26   27 ar
    46   26   42 1
@<TRIPOS>MOLECULE
ZINC13633702
   38    41     0     0     0
SMALL
USER_CHARGES
2-phenyl-N-(4-pyridyl)quinazolin-4-amine
@<TRIPOS>ATOM
      1 C1          1.0001    8.3628    4.9099 C.ar      1 <0>        -0.0901
      2 C2         -0.1701    7.6751    4.6426 C.ar      1 <0>        -0.1243
      3 C3         -0.1621    6.6085    3.7669 C.ar      1 <0>        -0.0632
      4 C4          1.0283    6.2243    3.1517 C.ar      1 <0>        -0.0578
      5 C5          2.2054    6.9173    3.4293 C.ar      1 <0>        -0.0761
      6 C6          2.1843    7.9859    4.3023 C.ar      1 <0>        -0.1321
      7 C7          1.0434    5.0788    2.2102 C.ar      1 <0>         0.4057
      8 N1         -0.0867    4.4382    1.9752 N.ar      1 <0>        -0.5073
      9 C8         -0.1139    3.3981    1.1314 C.ar      1 <0>         0.1901
     10 C9         -1.2963    2.6949    0.8598 C.ar      1 <0>        -0.0975
     11 C10        -1.2708    1.6466   -0.0112 C.ar      1 <0>        -0.0668
     12 C11        -0.0857    1.2548   -0.6276 C.ar      1 <0>        -0.1066
     13 C12         1.0823    1.9166   -0.3855 C.ar      1 <0>        -0.0865
     14 C13         1.0901    3.0007    0.4986 C.ar      1 <0>        -0.1779
     15 C14         2.2729    3.7251    0.7887 C.ar      1 <0>         0.4483
     16 N2          2.1963    4.7389    1.6375 N.ar      1 <0>        -0.5708
     17 N3          3.4746    3.3825    0.2019 N.pl3     1 <0>        -0.6415
     18 C15         4.6017    4.1757    0.4078 C.ar      1 <0>         0.2971
     19 C16         4.4838    5.5538    0.5855 C.ar      1 <0>        -0.1492
     20 C17         5.6235    6.3028    0.7917 C.ar      1 <0>         0.1533
     21 N4          6.8136    5.7325    0.8115 N.ar      1 <0>        -0.4881
     22 C18         6.9670    4.4325    0.6423 C.ar      1 <0>         0.1592
     23 C19         5.8772    3.6128    0.4358 C.ar      1 <0>        -0.1781
     24 H1          0.9890    9.1973    5.5954 H         1 <0>         0.1301
     25 H2         -1.0917    7.9737    5.1199 H         1 <0>         0.1335
     26 H3         -1.0764    6.0728    3.5584 H         1 <0>         0.1397
     27 H4          3.1313    6.6214    2.9586 H         1 <0>         0.1256
     28 H5          3.0949    8.5265    4.5148 H         1 <0>         0.1282
     29 H6         -2.2223    2.9851    1.3339 H         1 <0>         0.1496
     30 H7         -2.1832    1.1088   -0.2227 H         1 <0>         0.1442
     31 H8         -0.0920    0.4180   -1.3104 H         1 <0>         0.1403
     32 H9          1.9947    1.6056   -0.8726 H         1 <0>         0.1282
     33 H10         3.5424    2.4834   -0.4282 H         1 <0>         0.4687
     34 H11         3.5135    6.0275    0.5655 H         1 <0>         0.1874
     35 H12         5.5414    7.3702    0.9343 H         1 <0>         0.2069
     36 H13         7.9587    4.0053    0.6656 H         1 <0>         0.2083
     37 H14         6.0099    2.5500    0.2974 H         1 <0>         0.1815
     38 H15         7.7138    6.3438    0.9725 H         1 <0>         0.4882
@<TRIPOS>BOND
     1    1    6 ar
     2    1    2 ar
     3    1   24 1
     4    2    3 ar
     5    2   25 1
     6    3    4 ar
     7    3   26 1
     8    4    5 ar
     9    4    7 1
    10    5    6 ar
    11    5   27 1
    12    6   28 1
    13    7   16 ar
    14    7    8 ar
    15    8    9 ar
    16    9   14 ar
    17    9   10 ar
    18   10   11 ar
    19   10   29 1
    20   11   12 ar
    21   11   30 1
    22   12   13 ar
    23   12   31 1
    24   13   14 ar
    25   13   32 1
    26   14   15 ar
    27   15   16 ar
    28   15   17 1
    29   17   18 1
    30   17   33 1
    31   18   23 ar
    32   18   19 ar
    33   19   20 ar
    34   19   34 1
    35   20   21 ar
    36   20   35 1
    37   21   22 ar
    38   21   38 1
    39   22   23 ar
    40   22   36 1
    41   23   37 1
@<TRIPOS>MOLECULE
ZINC45259884
   39    42     0     0     0
SMALL
USER_CHARGES

@<TRIPOS>ATOM
      1 C1         -0.0167    1.3795    0.0096 C.ar      1 <0>        -0.0779
      2 C2          1.1938    2.0587    0.0017 C.ar      1 <0>        -0.1657
      3 C3          2.3745    1.3401   -0.0134 C.ar      1 <0>         0.1060
      4 N1          2.3646    0.0224   -0.0208 N.ar      1 <0>        -0.4505
      5 C4          1.2295   -0.6646   -0.0137 C.ar      1 <0>         0.1948
      6 C5          0.0021   -0.0041    0.0020 C.ar      1 <0>        -0.1423
      7 C6          1.2668   -2.1464   -0.0230 C.2       1 <0>         0.1373
      8 C7          2.3238   -2.9527   -0.5175 C.2       1 <0>        -0.1712
      9 C8          1.9628   -4.2550   -0.3388 C.2       1 <0>         0.0788
     10 N2          0.7442   -4.2707    0.2372 N.pl3     1 <0>        -0.4626
     11 H1          0.2419   -5.0643    0.4798 H         1 <0>         0.4460
     12 N3          0.3284   -2.9481    0.4310 N.2       1 <0>        -0.2740
     13 C9          3.5892   -2.4678   -1.1191 C.ar      1 <0>         0.0554
     14 C10         3.5788   -1.5048   -2.1339 C.ar      1 <0>        -0.1523
     15 C11         4.7768   -1.0776   -2.6700 C.ar      1 <0>         0.1057
     16 N4          5.9246   -1.5629   -2.2407 N.ar      1 <0>        -0.4834
     17 C12         5.9844   -2.4775   -1.2804 C.ar      1 <0>         0.1899
     18 C13         4.8227   -2.9562   -0.6835 C.ar      1 <0>        -0.1592
     19 C14         7.3031   -2.9895   -0.8352 C.ar      1 <0>        -0.0712
     20 C15         7.3727   -3.9549    0.1694 C.ar      1 <0>        -0.1157
     21 C16         8.5960   -4.4312    0.5838 C.ar      1 <0>        -0.0924
     22 C17         9.7691   -3.9472   -0.0032 C.ar      1 <0>        -0.1174
     23 C18         9.6975   -2.9800   -1.0103 C.ar      1 <0>        -0.0945
     24 C19         8.4723   -2.5094   -1.4257 C.ar      1 <0>        -0.0930
     25 C20        11.0804   -4.4559    0.4398 C.2       1 <0>         0.5178
     26 O1         11.1423   -5.3017    1.3211 O.co2     1 <0>        -0.6870
     27 O2         12.1061   -4.0321   -0.0741 O.co2     1 <0>        -0.6855
     28 H2         -0.9522    1.9188    0.0259 H         1 <0>         0.1372
     29 H3          1.2130    3.1385    0.0070 H         1 <0>         0.1373
     30 H4          3.3180    1.8657   -0.0196 H         1 <0>         0.1605
     31 H5         -0.9212   -0.5643    0.0078 H         1 <0>         0.1383
     32 H6          2.5490   -5.1204   -0.6105 H         1 <0>         0.1875
     33 H7          2.6442   -1.1007   -2.4940 H         1 <0>         0.1187
     34 H8          4.7737   -0.3344   -3.4536 H         1 <0>         0.1501
     35 H9          4.8738   -3.6967    0.1010 H         1 <0>         0.1331
     36 H10         6.4664   -4.3286    0.6226 H         1 <0>         0.1165
     37 H11         8.6496   -5.1781    1.3621 H         1 <0>         0.1288
     38 H12        10.6027   -2.6051   -1.4647 H         1 <0>         0.1289
     39 H13         8.4165   -1.7650   -2.2062 H         1 <0>         0.1273
@<TRIPOS>BOND
     1    1    6 ar
     2    1    2 ar
     3    1   28 1
     4    2    3 ar
     5    2   29 1
     6    3    4 ar
     7    3   30 1
     8    4    5 ar
     9    5    6 ar
    10    5    7 1
    11    6   31 1
    12    7   12 2
    13    7    8 1
    14    8    9 2
    15    8   13 1
    16    9   10 1
    17    9   32 1
    18   10   11 1
    19   10   12 1
    20   13   18 ar
    21   13   14 ar
    22   14   15 ar
    23   14   33 1
    24   15   16 ar
    25   15   34 1
    26   16   17 ar
    27   17   18 ar
    28   17   19 1
    29   18   35 1
    30   19   24 ar
    31   19   20 ar
    32   20   21 ar
    33   20   36 1
    34   21   22 ar
    35   21   37 1
    36   22   23 ar
    37   22   25 1
    38   23   24 ar
    39   23   38 1
    40   24   39 1
    41   25   26 2
    42   25   27 1
@<TRIPOS>MOLECULE
ZINC13472532
   43    47     0     0     0
SMALL
USER_CHARGES

@<TRIPOS>ATOM
      1 C1         -0.0167    1.3784    0.0096 C.ar      1 <0>        -0.0669
      2 C2          1.1942    2.0587    0.0017 C.ar      1 <0>        -0.1772
      3 C3          2.3763    1.3417   -0.0134 C.ar      1 <0>         0.1100
      4 N1          2.3692    0.0244   -0.0209 N.ar      1 <0>        -0.4587
      5 C4          1.2328   -0.6657   -0.0137 C.ar      1 <0>         0.2059
      6 C5          0.0021   -0.0041    0.0020 C.ar      1 <0>        -0.1697
      7 C6          1.2714   -2.1399   -0.0225 C.2       1 <0>         0.0112
      8 C7          2.2971   -2.9417   -0.5014 C.2       1 <0>         0.1035
      9 N2          1.9345   -4.2192   -0.3212 N.2       1 <0>        -0.4676
     10 C8          0.7467   -4.2649    0.2401 C.2       1 <0>         0.3025
     11 N3          0.3003   -2.9924    0.4478 N.pl3     1 <0>        -0.5523
     12 H1         -0.5447   -2.7370    0.8499 H         1 <0>         0.4233
     13 C9          0.0140   -5.4977    0.5942 C.ar      1 <0>        -0.0496
     14 C10        -1.2504   -5.4138    1.1838 C.ar      1 <0>        -0.1197
     15 C11        -1.9311   -6.5575    1.5122 C.ar      1 <0>        -0.0861
     16 C12        -1.3599   -7.8088    1.2571 C.ar      1 <0>        -0.1108
     17 C13        -0.0943   -7.8920    0.6670 C.ar      1 <0>        -0.0874
     18 C14         0.5830   -6.7475    0.3342 C.ar      1 <0>        -0.0832
     19 C15        -2.0910   -9.0388    1.6104 C.2       1 <0>         0.5169
     20 O1         -3.1974   -8.9657    2.1268 O.co2     1 <0>        -0.6846
     21 O2         -1.5912  -10.1327    1.3873 O.co2     1 <0>        -0.6819
     22 C16         3.5659   -2.4703   -1.1043 C.ar      1 <0>         0.0170
     23 C17         3.5824   -1.3121   -1.8810 C.ar      1 <0>        -0.0553
     24 C18         4.7644   -0.8742   -2.4418 C.ar      1 <0>        -0.1048
     25 C19         5.9388   -1.5826   -2.2359 C.ar      1 <0>         0.0320
     26 C20         5.9284   -2.7408   -1.4601 C.ar      1 <0>         0.0246
     27 C21         4.7468   -3.1806   -0.8916 C.ar      1 <0>        -0.0686
     28 O3          7.1964   -3.2446   -1.4119 O.3       1 <0>        -0.3090
     29 C22         7.9017   -2.6150   -2.4977 C.3       1 <0>         0.2135
     30 O4          7.2137   -1.3624   -2.6723 O.3       1 <0>        -0.3122
     31 H2         -0.9524    1.9175    0.0259 H         1 <0>         0.1369
     32 H3          1.2122    3.1385    0.0070 H         1 <0>         0.1364
     33 H4          3.3188    1.8691   -0.0196 H         1 <0>         0.1607
     34 H5         -0.9211   -0.5645    0.0082 H         1 <0>         0.1305
     35 H6         -1.6911   -4.4477    1.3810 H         1 <0>         0.1093
     36 H7         -2.9080   -6.4925    1.9681 H         1 <0>         0.1326
     37 H8          0.3474   -8.8576    0.4701 H         1 <0>         0.1348
     38 H9          1.5584   -6.8116   -0.1252 H         1 <0>         0.1318
     39 H10         2.6697   -0.7581   -2.0438 H         1 <0>         0.1295
     40 H11         4.7751    0.0228   -3.0432 H         1 <0>         0.1324
     41 H12         4.7380   -4.0756   -0.2872 H         1 <0>         0.1396
     42 H13         8.9445   -2.4449   -2.2296 H         1 <0>         0.1286
     43 H14         7.8315   -3.2197   -3.4018 H         1 <0>         0.0821
@<TRIPOS>BOND
     1    1    6 ar
     2    1    2 ar
     3    1   31 1
     4    2    3 ar
     5    2   32 1
     6    3    4 ar
     7    3   33 1
     8    4    5 ar
     9    5    6 ar
    10    5    7 1
    11    6   34 1
    12    7   11 1
    13    7    8 2
    14    8    9 1
    15    8   22 1
    16    9   10 2
    17   10   11 1
    18   10   13 1
    19   11   12 1
    20   13   18 ar
    21   13   14 ar
    22   14   15 ar
    23   14   35 1
    24   15   16 ar
    25   15   36 1
    26   16   17 ar
    27   16   19 1
    28   17   18 ar
    29   17   37 1
    30   18   38 1
    31   19   20 2
    32   19   21 1
    33   22   27 ar
    34   22   23 ar
    35   23   24 ar
    36   23   39 1
    37   24   25 ar
    38   24   40 1
    39   25   30 1
    40   25   26 ar
    41   26   27 ar
    42   26   28 1
    43   27   41 1
    44   28   29 1
    45   29   30 1
    46   29   42 1
    47   29   43 1
@<TRIPOS>MOLECULE
ZINC13472532
   44    48     0     0     0
SMALL
USER_CHARGES
4-[4-(1,3-benzodioxol-5-yl)-5-(2-pyridyl)-1H-imidazol-2-yl]benzoic acid
@<TRIPOS>ATOM
      1 C1         -0.0126    1.0758    0.0080 C.ar      1 <0>        -0.0637
      2 C2          1.1716    1.8016    0.0005 C.ar      1 <0>        -0.1439
      3 C3          1.1217    3.1833    0.0085 C.ar      1 <0>         0.1133
      4 N1         -0.0319    3.8192    0.0234 N.ar      1 <0>        -0.4505
      5 C4         -1.1884    3.1632    0.0309 C.ar      1 <0>         0.1602
      6 C5         -1.2106    1.7660    0.0173 C.ar      1 <0>        -0.1458
      7 C6         -2.4566    3.9154    0.0481 C.2       1 <0>         0.1054
      8 C7         -2.6545    5.1999    0.5323 C.2       1 <0>         0.1290
      9 C8         -4.5704    4.4917   -0.1978 C.cat     1 <0>         0.4207
     10 N2         -3.6793    3.4800   -0.4073 N.pl3     1 <0>        -0.5153
     11 H1         -3.8779    2.5889   -0.8154 H         1 <0>         0.4695
     12 C9         -6.0068    4.4523   -0.5410 C.ar      1 <0>        -0.1194
     13 C10        -6.5517    3.3117   -1.1366 C.ar      1 <0>        -0.0799
     14 C11        -7.8858    3.2730   -1.4508 C.ar      1 <0>        -0.0748
     15 C12        -8.6986    4.3790   -1.1855 C.ar      1 <0>        -0.0415
     16 C13        -8.1521    5.5219   -0.5946 C.ar      1 <0>        -0.0829
     17 C14        -6.8191    5.5579   -0.2753 C.ar      1 <0>        -0.0807
     18 C15       -10.1333    4.3402   -1.5298 C.2       1 <0>         0.4751
     19 O1        -10.8395    5.3016   -1.2995 O.co2     1 <0>        -0.6091
     20 C16        -1.6214    6.0766    1.1318 C.ar      1 <0>        -0.0451
     21 C17        -0.6003    5.5252    1.9053 C.ar      1 <0>        -0.0290
     22 C18         0.3608    6.3425    2.4634 C.ar      1 <0>        -0.1018
     23 C19         0.3160    7.7134    2.2576 C.ar      1 <0>         0.0686
     24 C20        -0.7021    8.2701    1.4850 C.ar      1 <0>         0.0351
     25 C21        -1.6647    7.4540    0.9191 C.ar      1 <0>        -0.0788
     26 O2         -0.5224    9.6226    1.4362 O.3       1 <0>        -0.3030
     27 C22         0.8408    9.8442    1.8431 C.3       1 <0>         0.2123
     28 O3          1.1320    8.7182    2.6917 O.3       1 <0>        -0.3016
     29 H2          0.0021   -0.0041    0.0020 H         1 <0>         0.1491
     30 H3          2.1232    1.2911   -0.0110 H         1 <0>         0.1487
     31 H4          2.0416    3.7493    0.0027 H         1 <0>         0.1714
     32 H5         -2.1499    1.2330    0.0188 H         1 <0>         0.1377
     33 H6         -5.9227    2.4589   -1.3457 H         1 <0>         0.1260
     34 H7         -8.3078    2.3897   -1.9071 H         1 <0>         0.1542
     35 H8         -8.7797    6.3767   -0.3898 H         1 <0>         0.1510
     36 H9         -6.3969    6.4409    0.1813 H         1 <0>         0.1265
     37 H10        -0.5622    4.4581    2.0677 H         1 <0>         0.1386
     38 H11         1.1508    5.9135    3.0620 H         1 <0>         0.1464
     39 H12        -2.4517    7.8835    0.3170 H         1 <0>         0.1376
     40 H13         1.5025    9.8521    0.9769 H         1 <0>         0.0925
     41 H14         0.9272   10.7766    2.4009 H         1 <0>         0.1397
     42 O4        -10.6599    3.2384   -2.0994 O.co2     1 <0>        -0.7301
     43 N3         -3.9478    5.5078    0.3578 N.pl3     1 <0>        -0.4891
     44 H15        -4.3847    6.3998    0.6179 H         1 <0>         0.4775
@<TRIPOS>BOND
     1    1    6 ar
     2    1    2 ar
     3    1   29 1
     4    2    3 ar
     5    2   30 1
     6    3    4 ar
     7    3   31 1
     8    4    5 ar
     9    5    6 ar
    10    5    7 1
    11    6   32 1
    12    7   10 1
    13    7    8 2
    14    8   20 1
    15    8   43 1
    16    9   10 1
    17    9   12 1
    18    9   43 2
    19   10   11 1
    20   12   17 ar
    21   12   13 ar
    22   13   14 ar
    23   13   33 1
    24   14   15 ar
    25   14   34 1
    26   15   16 ar
    27   15   18 1
    28   16   17 ar
    29   16   35 1
    30   17   36 1
    31   18   19 2
    32   18   42 1
    33   20   25 ar
    34   20   21 ar
    35   21   22 ar
    36   21   37 1
    37   22   23 ar
    38   22   38 1
    39   23   28 1
    40   23   24 ar
    41   24   25 ar
    42   24   26 1
    43   25   39 1
    44   26   27 1
    45   27   28 1
    46   27   40 1
    47   27   41 1
    48   43   44 1
