@<TRIPOS>MOLECULE
ZINC31343462
   23    24     0     0     0
SMALL
USER_CHARGES

@<TRIPOS>ATOM
      1 C1         -0.0360    1.5087   -0.1189 C.3       1 <0>        -0.1974
      2 C2         -0.0826    0.0267   -0.3882 C.2       1 <0>         0.3693
      3 O1          0.8521   -0.5201   -0.9356 O.2       1 <0>        -0.4357
      4 C3         -1.2539   -0.7522    0.0100 C.2       1 <0>        -0.1308
      5 C4         -1.2387   -2.1092   -0.1002 C.2       1 <0>        -0.0621
      6 C5         -0.0588   -2.9968   -0.1274 C.ar      1 <0>        -0.1343
      7 C6          1.3127   -2.7611   -0.0555 C.ar      1 <0>        -0.0276
      8 C7          2.1928   -3.8227   -0.1084 C.ar      1 <0>        -0.1520
      9 C8          1.7135   -5.1163   -0.2329 C.ar      1 <0>        -0.0654
     10 C9          0.3559   -5.3607   -0.3054 C.ar      1 <0>        -0.1472
     11 C10        -0.5474   -4.3061   -0.2531 C.ar      1 <0>         0.1556
     12 N1         -1.9377   -4.2790   -0.3042 N.am      1 <0>        -0.6546
     13 C11        -2.4079   -3.0231   -0.2131 C.2       1 <0>         0.5568
     14 O2         -3.5770   -2.6931   -0.2240 O.2       1 <0>        -0.4825
     15 H1          0.9077    1.9147   -0.4832 H         1 <0>         0.0873
     16 H2         -0.8641    1.9974   -0.6321 H         1 <0>         0.0966
     17 H3         -0.1179    1.6858    0.9535 H         1 <0>         0.0967
     18 H4         -2.1313   -0.2512    0.3916 H         1 <0>         0.1569
     19 H5          1.6853   -1.7520    0.0408 H         1 <0>         0.1497
     20 H6          3.2566   -3.6447   -0.0530 H         1 <0>         0.1328
     21 H7          2.4083   -5.9421   -0.2740 H         1 <0>         0.1345
     22 H8         -0.0044   -6.3742   -0.4031 H         1 <0>         0.1309
     23 H9         -2.4968   -5.0670   -0.3900 H         1 <0>         0.4226
@<TRIPOS>BOND
     1    1    2 1
     2    1   15 1
     3    1   16 1
     4    1   17 1
     5    2    3 2
     6    2    4 1
     7    4    5 2
     8    4   18 1
     9    5   13 1
    10    5    6 1
    11    6   11 ar
    12    6    7 ar
    13    7    8 ar
    14    7   19 1
    15    8    9 ar
    16    8   20 1
    17    9   10 ar
    18    9   21 1
    19   10   11 ar
    20   10   22 1
    21   11   12 1
    22   12   13 am
    23   12   23 1
    24   13   14 2
@<TRIPOS>MOLECULE
ZINC03149586
   31    34     0     0     0
SMALL
USER_CHARGES
5-(2,3-dioxoindolin-5-yl)oxyindoline-2,3-dione
@<TRIPOS>ATOM
      1 C1         -0.8064    2.3892    1.2048 C.ar      1 <0>        -0.0623
      2 C2          0.3793    3.0986    1.2382 C.ar      1 <0>        -0.1307
      3 C3          1.1792    3.1793    0.1061 C.ar      1 <0>         0.1978
      4 C4          0.7663    2.5317   -1.0692 C.ar      1 <0>        -0.2228
      5 C5         -0.4315    1.8177   -1.0978 C.ar      1 <0>        -0.0036
      6 C6         -1.2183    1.7536    0.0404 C.ar      1 <0>         0.0438
      7 O1         -2.3900    1.0640    0.0196 O.3       1 <0>        -0.2396
      8 C7         -3.5474    1.7684    0.1335 C.ar      1 <0>         0.0852
      9 C8         -4.7604    1.0999    0.2391 C.ar      1 <0>        -0.0631
     10 C9         -5.9439    1.8034    0.3599 C.ar      1 <0>        -0.1088
     11 C10        -5.9357    3.1918    0.3673 C.ar      1 <0>         0.1637
     12 C11        -4.7103    3.8679    0.2552 C.ar      1 <0>        -0.2005
     13 C12        -3.5184    3.1532    0.1385 C.ar      1 <0>        -0.0847
     14 C13        -5.0190    5.3097    0.2929 C.2       1 <0>         0.3886
     15 O2         -4.2378    6.2358    0.2237 O.2       1 <0>        -0.3621
     16 C14        -6.5105    5.3799    0.4347 C.2       1 <0>         0.4954
     17 O3         -7.1774    6.3909    0.5044 O.2       1 <0>        -0.4439
     18 N1         -6.9735    4.1185    0.4711 N.am      1 <0>        -0.6489
     19 C15         1.8057    2.7932   -2.0825 C.2       1 <0>         0.3913
     20 O4          1.8294    2.4110   -3.2340 O.2       1 <0>        -0.3586
     21 C16         2.8266    3.6359   -1.3772 C.2       1 <0>         0.4964
     22 O5          3.8517    4.0722   -1.8573 O.2       1 <0>        -0.4383
     23 N2          2.3989    3.8192   -0.1161 N.am      1 <0>        -0.6498
     24 H1         -1.4207    2.3323    2.0912 H         1 <0>         0.1500
     25 H2          0.6851    3.5921    2.1489 H         1 <0>         0.1486
     26 H3         -0.7460    1.3212   -2.0038 H         1 <0>         0.1525
     27 H4         -4.7785    0.0201    0.2303 H         1 <0>         0.1535
     28 H5         -6.8796    1.2708    0.4458 H         1 <0>         0.1494
     29 H6         -2.5777    3.6768    0.0520 H         1 <0>         0.1445
     30 H7         -7.9103    3.8825    0.5590 H         1 <0>         0.4277
     31 H8          2.8777    4.3312    0.5544 H         1 <0>         0.4291
@<TRIPOS>BOND
     1    1    6 ar
     2    1    2 ar
     3    1   24 1
     4    2    3 ar
     5    2   25 1
     6    3   23 1
     7    3    4 ar
     8    4    5 ar
     9    4   19 1
    10    5    6 ar
    11    5   26 1
    12    6    7 1
    13    7    8 1
    14    8   13 ar
    15    8    9 ar
    16    9   10 ar
    17    9   27 1
    18   10   11 ar
    19   10   28 1
    20   11   18 1
    21   11   12 ar
    22   12   13 ar
    23   12   14 1
    24   13   29 1
    25   14   15 2
    26   14   16 1
    27   16   17 2
    28   16   18 am
    29   18   30 1
    30   19   20 2
    31   19   21 1
    32   21   22 2
    33   21   23 am
    34   23   31 1
@<TRIPOS>MOLECULE
ZINC02173005
   33    36     0     0     0
SMALL
USER_CHARGES
1-[(2,3-dioxoindolin-1-yl)methyl]indoline-2,3-dione
@<TRIPOS>ATOM
      1 C1          1.1816    1.7774    0.0003 C.ar      1 <0>        -0.1484
      2 C2         -0.0126    1.0758    0.0080 C.ar      1 <0>        -0.0417
      3 C3         -1.2229    1.7433    0.0174 C.ar      1 <0>        -0.1384
      4 C4         -1.2551    3.1317    0.0309 C.ar      1 <0>         0.1796
      5 C5         -0.0428    3.8407    0.0226 C.ar      1 <0>        -0.2337
      6 C6          1.1729    3.1573    0.0074 C.ar      1 <0>        -0.0080
      7 C7         -0.3925    5.2733    0.0337 C.2       1 <0>         0.3914
      8 O1          0.3661    6.2205    0.0316 O.2       1 <0>        -0.3647
      9 C8         -1.8921    5.3020    0.0487 C.2       1 <0>         0.4961
     10 O2         -2.5903    6.2939    0.0615 O.2       1 <0>        -0.4383
     11 N1         -2.3212    4.0281    0.0462 N.am      1 <0>        -0.5575
     12 C9         -3.7317    3.6325    0.0585 C.3       1 <0>         0.3327
     13 N2         -4.1879    3.4937    1.4438 N.am      1 <0>        -0.5577
     14 C10        -4.7429    4.5276    2.1943 C.ar      1 <0>         0.1796
     15 C11        -4.9990    5.8557    1.8793 C.ar      1 <0>        -0.1384
     16 C12        -5.5671    6.6960    2.8184 C.ar      1 <0>        -0.0418
     17 C13        -5.8893    6.2291    4.0819 C.ar      1 <0>        -0.1483
     18 C14        -5.6442    4.9127    4.4160 C.ar      1 <0>        -0.0080
     19 C15        -5.0700    4.0567    3.4763 C.ar      1 <0>        -0.2337
     20 C16        -4.6877    2.6329    3.5125 C.2       1 <0>         0.3913
     21 O3         -4.8042    1.8584    4.4395 O.2       1 <0>        -0.3648
     22 C17        -4.1290    2.3510    2.1493 C.2       1 <0>         0.4961
     23 O4         -3.6997    1.2867    1.7562 O.2       1 <0>        -0.4383
     24 H1          2.1206    1.2439   -0.0115 H         1 <0>         0.1409
     25 H2          0.0021   -0.0041    0.0020 H         1 <0>         0.1417
     26 H3         -2.1465    1.1834    0.0184 H         1 <0>         0.1429
     27 H4          2.1034    3.7057    0.0014 H         1 <0>         0.1408
     28 H5         -4.3270    4.3939   -0.4455 H         1 <0>         0.1310
     29 H6         -3.8465    2.6801   -0.4590 H         1 <0>         0.1311
     30 H7         -4.7533    6.2332    0.8978 H         1 <0>         0.1431
     31 H8         -5.7622    7.7273    2.5640 H         1 <0>         0.1417
     32 H9         -6.3331    6.8958    4.8064 H         1 <0>         0.1409
     33 H10        -5.8949    4.5473    5.4008 H         1 <0>         0.1408
@<TRIPOS>BOND
     1    1    6 ar
     2    1    2 ar
     3    1   24 1
     4    2    3 ar
     5    2   25 1
     6    3    4 ar
     7    3   26 1
     8    4   11 1
     9    4    5 ar
    10    5    6 ar
    11    5    7 1
    12    6   27 1
    13    7    8 2
    14    7    9 1
    15    9   10 2
    16    9   11 am
    17   11   12 1
    18   12   13 1
    19   12   28 1
    20   12   29 1
    21   13   22 am
    22   13   14 1
    23   14   19 ar
    24   14   15 ar
    25   15   16 ar
    26   15   30 1
    27   16   17 ar
    28   16   31 1
    29   17   18 ar
    30   17   32 1
    31   18   19 ar
    32   18   33 1
    33   19   20 1
    34   20   21 2
    35   20   22 1
    36   22   23 2
@<TRIPOS>MOLECULE
ZINC32012483
   29    31     0     0     0
SMALL
USER_CHARGES
(3E)-3-[2-oxo-2-(3-pyridyl)ethylidene]indolin-2-one
@<TRIPOS>ATOM
      1 C1          2.9754    3.1454   -1.9623 C.ar      1 <0>        -0.1546
      2 C2          3.7605    2.0054   -2.0101 C.ar      1 <0>        -0.0639
      3 C3          3.2957    0.8082   -1.5018 C.ar      1 <0>        -0.1492
      4 C4          2.0294    0.7354   -0.9336 C.ar      1 <0>         0.1562
      5 C5          1.2369    1.8918   -0.8868 C.ar      1 <0>        -0.1405
      6 C6          1.7149    3.0942   -1.4026 C.ar      1 <0>        -0.0266
      7 C7         -0.0325    1.5045   -0.2371 C.2       1 <0>        -0.0520
      8 C8         -1.1073    2.2967    0.0201 C.2       1 <0>        -0.1334
      9 C9         -0.9364    3.7512    0.1375 C.2       1 <0>         0.4227
     10 O1          0.1796    4.2346    0.1342 O.2       1 <0>        -0.4259
     11 C10        -2.1206    4.6268    0.2595 C.ar      1 <0>        -0.2158
     12 C11        -1.9713    6.0153    0.3779 C.ar      1 <0>        -0.0168
     13 C12        -3.1118    6.7903    0.4841 C.ar      1 <0>        -0.1822
     14 C13        -4.3517    6.1754    0.4811 C.ar      1 <0>         0.1308
     15 N1         -4.4624    4.8650    0.3736 N.ar      1 <0>        -0.4892
     16 C14        -3.4077    4.0844    0.2645 C.ar      1 <0>         0.1484
     17 C15         0.1201    0.0571    0.0682 C.2       1 <0>         0.5638
     18 O2         -0.7052   -0.6521    0.6087 O.2       1 <0>        -0.4830
     19 N2          1.3352   -0.3254   -0.3604 N.am      1 <0>        -0.6670
     20 H1          3.3502    4.0756   -2.3631 H         1 <0>         0.1318
     21 H2          4.7459    2.0530   -2.4495 H         1 <0>         0.1337
     22 H3          3.9182   -0.0733   -1.5450 H         1 <0>         0.1309
     23 H4          1.1016    3.9824   -1.3651 H         1 <0>         0.1480
     24 H5         -2.1047    1.8486    0.1403 H         1 <0>         0.1614
     25 H6         -0.9910    6.4686    0.3822 H         1 <0>         0.1474
     26 H7         -3.0355    7.8639    0.5731 H         1 <0>         0.1452
     27 H8         -5.2436    6.7782    0.5685 H         1 <0>         0.1642
     28 H9         -3.5388    3.0159    0.1785 H         1 <0>         0.1658
     29 H10         1.7994   -1.3212   -0.3061 H         1 <0>         0.4499
@<TRIPOS>BOND
     1    1    6 ar
     2    1    2 ar
     3    1   20 1
     4    2    3 ar
     5    2   21 1
     6    3    4 ar
     7    3   22 1
     8    4   19 1
     9    4    5 ar
    10    5    6 ar
    11    5    7 1
    12    6   23 1
    13    7    8 2
    14    7   17 1
    15    8    9 1
    16    8   24 1
    17    9   10 2
    18    9   11 1
    19   11   16 ar
    20   11   12 ar
    21   12   13 ar
    22   12   25 1
    23   13   14 ar
    24   13   26 1
    25   14   15 ar
    26   14   27 1
    27   15   16 ar
    28   16   28 1
    29   17   18 2
    30   17   19 am
    31   19   29 1
@<TRIPOS>MOLECULE
ZINC00897469
   44    47     0     0     0
SMALL
USER_CHARGES
2-[(5-oxo-4,7-diphenyl-9-thia-2,4-diazabicyclo[4.3.0]nona-2,7,10-trien-3-yl)sulfanyl]acetohydrazide
@<TRIPOS>ATOM
      1 C1          1.7207    8.3101   -0.5185 C.ar      1 <0>        -0.1118
      2 C2          2.7101    8.5365    0.4215 C.ar      1 <0>        -0.1272
      3 C3          3.7795    7.6704    0.5239 C.ar      1 <0>        -0.1022
      4 C4          3.8616    6.5654   -0.3224 C.ar      1 <0>        -0.0465
      5 C5          2.8644    6.3456   -1.2717 C.ar      1 <0>        -0.0575
      6 C6          1.7966    7.2152   -1.3607 C.ar      1 <0>        -0.1229
      7 C7          5.0077    5.6314   -0.2174 C.2       1 <0>        -0.0080
      8 C8          6.2783    6.0978   -0.2057 C.2       1 <0>        -0.1838
      9 S1          7.2614    4.6176   -0.0676 S.3       1 <0>         0.1514
     10 C9          5.9560    3.4163   -0.0290 C.2       1 <0>         0.1203
     11 C10         4.7871    4.1913   -0.1241 C.2       1 <0>        -0.2488
     12 C11         3.5563    3.4660   -0.1214 C.2       1 <0>         0.5578
     13 O1          2.4924    4.0557   -0.2045 O.2       1 <0>        -0.4902
     14 N1          3.5853    2.1245   -0.0212 N.am      1 <0>        -0.4673
     15 C12         4.7690    1.4470    0.0677 C.2       1 <0>         0.3638
     16 N2          5.9178    2.0920    0.0626 N.2       1 <0>        -0.5038
     17 S2          4.7585   -0.3106    0.1912 S.3       1 <0>         0.1299
     18 C13         6.5380   -0.6305    0.2755 C.3       1 <0>        -0.1577
     19 C14         6.7769   -2.1141    0.3884 C.2       1 <0>         0.5330
     20 O2          5.8367   -2.8799    0.4097 O.2       1 <0>        -0.5108
     21 N3          8.0355   -2.5901    0.4656 N.am      1 <0>        -0.5687
     22 N4          8.2520   -3.9349    0.5679 N.3       1 <0>        -0.6007
     23 C15         2.3808    1.4090   -0.0135 C.ar      1 <0>         0.0835
     24 C16         1.8259    0.9683   -1.2075 C.ar      1 <0>        -0.0864
     25 C17         0.6383    0.2631   -1.1968 C.ar      1 <0>        -0.1086
     26 C18         0.0018   -0.0037    0.0015 C.ar      1 <0>        -0.0940
     27 C19         0.5518    0.4343    1.1923 C.ar      1 <0>        -0.1080
     28 C20         1.7393    1.1395    1.1881 C.ar      1 <0>        -0.0853
     29 H1          0.8856    8.9907   -0.5950 H         1 <0>         0.1210
     30 H2          2.6452    9.3926    1.0767 H         1 <0>         0.1230
     31 H3          4.5511    7.8480    1.2584 H         1 <0>         0.1216
     32 H4          2.9250    5.4938   -1.9329 H         1 <0>         0.1154
     33 H5          1.0210    7.0433   -2.0924 H         1 <0>         0.1209
     34 H6          6.6157    7.1220   -0.2661 H         1 <0>         0.1995
     35 H7          7.0182   -0.2528   -0.6271 H         1 <0>         0.1335
     36 H8          6.9566   -0.1277    1.1474 H         1 <0>         0.1359
     37 H9          8.7875   -1.9776    0.4486 H         1 <0>         0.4060
     38 H10         7.8173   -4.4303   -0.1960 H         1 <0>         0.3505
     39 H11         9.2389   -4.1396    0.6166 H         1 <0>         0.3627
     40 H12         2.3227    1.1760   -2.1437 H         1 <0>         0.1276
     41 H13         0.2086   -0.0841   -2.1248 H         1 <0>         0.1355
     42 H14        -0.9269   -0.5549    0.0074 H         1 <0>         0.1334
     43 H15         0.0524    0.2244    2.1266 H         1 <0>         0.1357
     44 H16         2.1683    1.4813    2.1184 H         1 <0>         0.1279
@<TRIPOS>BOND
     1    1    6 ar
     2    1    2 ar
     3    1   29 1
     4    2    3 ar
     5    2   30 1
     6    3    4 ar
     7    3   31 1
     8    4    5 ar
     9    4    7 1
    10    5    6 ar
    11    5   32 1
    12    6   33 1
    13    7   11 1
    14    7    8 2
    15    8    9 1
    16    8   34 1
    17    9   10 1
    18   10   16 1
    19   10   11 2
    20   11   12 1
    21   12   13 2
    22   12   14 am
    23   14   15 1
    24   14   23 1
    25   15   16 2
    26   15   17 1
    27   17   18 1
    28   18   19 1
    29   18   35 1
    30   18   36 1
    31   19   20 2
    32   19   21 am
    33   21   22 1
    34   21   37 1
    35   22   38 1
    36   22   39 1
    37   23   28 ar
    38   23   24 ar
    39   24   25 ar
    40   24   40 1
    41   25   26 ar
    42   25   41 1
    43   26   27 ar
    44   26   42 1
    45   27   28 ar
    46   27   43 1
    47   28   44 1
@<TRIPOS>MOLECULE
ZINC32915988
   30    33     0     0     0
SMALL
USER_CHARGES
(3E)-3-(2-oxoindolin-3-ylidene)indolin-2-one
@<TRIPOS>ATOM
      1 C1          5.2333    3.7490    0.2691 C.ar      1 <0>        -0.1509
      2 C2          5.5766    5.0905    0.2292 C.ar      1 <0>        -0.0653
      3 C3          4.6028    6.0643    0.1249 C.ar      1 <0>        -0.1472
      4 C4          3.2617    5.7064    0.0585 C.ar      1 <0>         0.1538
      5 C5          2.9163    4.3467    0.1051 C.ar      1 <0>        -0.1367
      6 C6          3.9076    3.3719    0.2041 C.ar      1 <0>        -0.0422
      7 C7          1.4452    4.2849    0.0109 C.2       1 <0>        -0.0426
      8 C8          0.6478    3.1544    0.0128 C.2       1 <0>        -0.0427
      9 C9         -0.8107    3.0842    0.2246 C.ar      1 <0>        -0.1366
     10 C10        -1.7862    4.0486    0.4716 C.ar      1 <0>        -0.0424
     11 C11        -3.1023    3.6652    0.6287 C.ar      1 <0>        -0.1509
     12 C12        -3.4513    2.3274    0.5412 C.ar      1 <0>        -0.0653
     13 C13        -2.4927    1.3637    0.2964 C.ar      1 <0>        -0.1472
     14 C14        -1.1623    1.7287    0.1295 C.ar      1 <0>         0.1538
     15 N1         -0.0209    0.9725   -0.1149 N.am      1 <0>        -0.6642
     16 C15         1.0728    1.7494   -0.1980 C.2       1 <0>         0.5683
     17 O1          2.2078    1.3683   -0.4083 O.2       1 <0>        -0.4810
     18 C16         1.0070    5.6987   -0.0799 C.2       1 <0>         0.5683
     19 O2         -0.1411    6.0885   -0.1681 O.2       1 <0>        -0.4811
     20 N2          2.1056    6.4723   -0.0472 N.am      1 <0>        -0.6641
     21 H1          6.0043    2.9973    0.3508 H         1 <0>         0.1328
     22 H2          6.6164    5.3778    0.2806 H         1 <0>         0.1341
     23 H3          4.8842    7.1066    0.0952 H         1 <0>         0.1315
     24 H4          3.6390    2.3263    0.2354 H         1 <0>         0.1590
     25 H5         -1.5132    5.0913    0.5392 H         1 <0>         0.1591
     26 H6         -3.8614    4.4091    0.8206 H         1 <0>         0.1328
     27 H7         -4.4835    2.0352    0.6654 H         1 <0>         0.1340
     28 H8         -2.7785    0.3243    0.2299 H         1 <0>         0.1315
     29 H9         -0.0960   -0.1205   -0.2138 H         1 <0>         0.4508
     30 H10         2.1748    7.5692   -0.0924 H         1 <0>         0.4508
@<TRIPOS>BOND
     1    1    6 ar
     2    1    2 ar
     3    1   21 1
     4    2    3 ar
     5    2   22 1
     6    3    4 ar
     7    3   23 1
     8    4   20 1
     9    4    5 ar
    10    5    6 ar
    11    5    7 1
    12    6   24 1
    13    7    8 2
    14    7   18 1
    15    8   16 1
    16    8    9 1
    17    9   14 ar
    18    9   10 ar
    19   10   11 ar
    20   10   25 1
    21   11   12 ar
    22   11   26 1
    23   12   13 ar
    24   12   27 1
    25   13   14 ar
    26   13   28 1
    27   14   15 1
    28   15   16 am
    29   15   29 1
    30   16   17 2
    31   18   19 2
    32   18   20 am
    33   20   30 1
