@<TRIPOS>MOLECULE
ZINC13514509
   19    20     0     0     0
SMALL
USER_CHARGES
2-amino-3H-quinazolin-4-one
@<TRIPOS>ATOM
      1 C1          2.3807    1.4209   -0.0130 C.ar      1 <0>        -0.1641
      2 C2          1.1612    2.0857    0.0022 C.ar      1 <0>        -0.0597
      3 C3         -0.0169    1.3935    0.0097 C.ar      1 <0>        -0.1360
      4 C4          0.0021   -0.0041    0.0020 C.ar      1 <0>         0.2111
      5 C5          1.2448   -0.6771   -0.0135 C.ar      1 <0>        -0.2387
      6 C6          2.4316    0.0543   -0.0209 C.ar      1 <0>        -0.0279
      7 C7          1.2375   -2.1462   -0.0208 C.2       1 <0>         0.5691
      8 O1          2.2752   -2.7824   -0.0337 O.2       1 <0>        -0.5151
      9 N1          0.0346   -2.7661   -0.0122 N.am      1 <0>        -0.6823
     10 H1         -0.0180   -3.8648   -0.0172 H         1 <0>         0.4368
     11 C8         -1.1200   -2.0393    0.0027 C.2       1 <0>         0.6455
     12 N2         -1.1407   -0.7300    0.0095 N.2       1 <0>        -0.6013
     13 N3         -2.3159   -2.7120    0.0109 N.pl3     1 <0>        -0.8520
     14 H2          3.2988    1.9896   -0.0188 H         1 <0>         0.1291
     15 H3          1.1440    3.1656    0.0081 H         1 <0>         0.1306
     16 H4         -0.9578    1.9236    0.0171 H         1 <0>         0.1354
     17 H5          3.3842   -0.4545   -0.0323 H         1 <0>         0.1330
     18 H6         -3.2622   -2.1514    0.0229 H         1 <0>         0.4533
     19 H7         -2.3283   -3.8119    0.0054 H         1 <0>         0.4334
@<TRIPOS>BOND
     1    1    6 ar
     2    1    2 ar
     3    1   14 1
     4    2    3 ar
     5    2   15 1
     6    3    4 ar
     7    3   16 1
     8    4   12 1
     9    4    5 ar
    10    5    6 ar
    11    5    7 1
    12    6   17 1
    13    7    8 2
    14    7    9 am
    15    9   10 1
    16    9   11 1
    17   11   12 2
    18   11   13 1
    19   13   18 1
    20   13   19 1
