@<TRIPOS>MOLECULE
ZINC00005569
   38    40     0     0     0
SMALL
USER_CHARGES
5,7-dimethyl-2-methylamino-4-(3-pyridylmethyl)benzothiazol-6-ol
@<TRIPOS>ATOM
      1 C1         -4.2897    2.0226   -1.0300 C.3       1 <0>        -0.1215
      2 C2         -3.8476    3.1827   -1.8843 C.ar      1 <0>        -0.0773
      3 C3         -3.1533    4.2141   -1.3071 C.ar      1 <0>        -0.0414
      4 C4         -2.7275    5.3202   -2.0769 C.ar      1 <0>         0.1370
      5 C5         -3.0491    5.2864   -3.4526 C.ar      1 <0>        -0.1569
      6 C6         -3.7442    4.2521   -4.0266 C.ar      1 <0>        -0.0419
      7 C7         -4.1525    3.1833   -3.2415 C.ar      1 <0>         0.1039
      8 O1         -4.8428    2.1491   -3.7921 O.3       1 <0>        -0.4830
      9 C8         -4.0617    4.2763   -5.4995 C.3       1 <0>        -0.1143
     10 S1         -2.3484    6.8086   -4.0432 S.3       1 <0>        -0.0075
     11 C9         -1.6878    7.3735   -2.4816 C.2       1 <0>         0.4124
     12 N1         -2.0339    6.4059   -1.6644 N.2       1 <0>        -0.5810
     13 N2         -0.9911    8.5330   -2.2048 N.pl3     1 <0>        -0.6757
     14 C10        -0.7076    9.4907   -3.2765 C.3       1 <0>         0.0868
     15 C11        -2.8458    4.1710    0.1676 C.3       1 <0>        -0.0339
     16 C12        -3.9638    4.8305    0.9333 C.ar      1 <0>        -0.1224
     17 C13        -3.9873    6.2076    1.0948 C.ar      1 <0>        -0.0622
     18 C14        -5.0328    6.7701    1.8106 C.ar      1 <0>        -0.1737
     19 C15        -6.0157    5.9466    2.3267 C.ar      1 <0>         0.0922
     20 N3         -5.9633    4.6411    2.1495 N.ar      1 <0>        -0.4839
     21 C16        -4.9812    4.0711    1.4789 C.ar      1 <0>         0.0980
     22 H1         -5.2350    2.2675   -0.5458 H         1 <0>         0.0746
     23 H2         -4.4198    1.1396   -1.6556 H         1 <0>         0.0790
     24 H3         -3.5339    1.8218   -0.2707 H         1 <0>         0.0750
     25 H4         -5.8026    2.2663   -3.7804 H         1 <0>         0.3893
     26 H5         -5.0228    4.7660   -5.6561 H         1 <0>         0.0745
     27 H6         -3.2836    4.8253   -6.0299 H         1 <0>         0.0667
     28 H7         -4.1082    3.2552   -5.8781 H         1 <0>         0.0815
     29 H8         -0.6893    8.7134   -1.3008 H         1 <0>         0.4199
     30 H9         -0.1533   10.3369   -2.8704 H         1 <0>         0.0951
     31 H10        -0.1133    9.0047   -4.0503 H         1 <0>         0.0661
     32 H11        -1.6452    9.8432   -3.7063 H         1 <0>         0.0658
     33 H12        -1.9124    4.7001    0.3597 H         1 <0>         0.0920
     34 H13        -2.7482    3.1339    0.4882 H         1 <0>         0.0889
     35 H14        -3.2077    6.8267    0.6762 H         1 <0>         0.1379
     36 H15        -5.0810    7.8388    1.9594 H         1 <0>         0.1323
     37 H16        -6.8359    6.3775    2.8817 H         1 <0>         0.1542
     38 H17        -4.9721    2.9983    1.3543 H         1 <0>         0.1537
@<TRIPOS>BOND
     1    1    2 1
     2    1   22 1
     3    1   23 1
     4    1   24 1
     5    2    7 ar
     6    2    3 ar
     7    3    4 ar
     8    3   15 1
     9    4   12 1
    10    4    5 ar
    11    5    6 ar
    12    5   10 1
    13    6    7 ar
    14    6    9 1
    15    7    8 1
    16    8   25 1
    17    9   26 1
    18    9   27 1
    19    9   28 1
    20   10   11 1
    21   11   12 2
    22   11   13 1
    23   13   14 1
    24   13   29 1
    25   14   30 1
    26   14   31 1
    27   14   32 1
    28   15   16 1
    29   15   33 1
    30   15   34 1
    31   16   21 ar
    32   16   17 ar
    33   17   18 ar
    34   17   35 1
    35   18   19 ar
    36   18   36 1
    37   19   20 ar
    38   19   37 1
    39   20   21 ar
    40   21   38 1
@<TRIPOS>MOLECULE
ZINC00007874
   41    43     0     0     0
SMALL
USER_CHARGES
2-ethylamino-4,5-dimethyl-7-(3-pyridylmethyl)benzothiazol-6-ol
@<TRIPOS>ATOM
      1 C1          4.8335    4.3399    0.0673 C.3       1 <0>        -0.1678
      2 C2          4.2042    2.9480   -0.0198 C.3       1 <0>         0.1264
      3 N1          2.7602    3.0500    0.2057 N.pl3     1 <0>        -0.6731
      4 C3          1.9747    1.9149    0.1747 C.2       1 <0>         0.4153
      5 N2          2.3343    0.6704   -0.0392 N.2       1 <0>        -0.5744
      6 C4          1.4478   -0.3514   -0.0410 C.ar      1 <0>         0.1282
      7 C5          1.7020   -1.7252   -0.2570 C.ar      1 <0>        -0.0400
      8 C6          0.6831   -2.6409   -0.2256 C.ar      1 <0>        -0.0881
      9 C7         -0.6317   -2.2555    0.0176 C.ar      1 <0>         0.1139
     10 C8         -0.9151   -0.9149    0.2331 C.ar      1 <0>        -0.0422
     11 C9          0.1027    0.0054    0.2029 C.ar      1 <0>        -0.1442
     12 S1          0.2100    1.7662    0.4149 S.3       1 <0>        -0.0255
     13 C10        -2.3308   -0.4719    0.4991 C.3       1 <0>        -0.0359
     14 C11        -3.0079   -0.1431   -0.8064 C.ar      1 <0>        -0.1278
     15 C12        -2.9565    1.1443   -1.3193 C.ar      1 <0>        -0.0683
     16 C13        -3.5899    1.3998   -2.5256 C.ar      1 <0>        -0.1674
     17 C14        -4.2562    0.3726   -3.1672 C.ar      1 <0>         0.0948
     18 N3         -4.2886   -0.8387   -2.6474 N.ar      1 <0>        -0.4804
     19 C15        -3.6928   -1.1192   -1.5047 C.ar      1 <0>         0.1004
     20 O1         -1.6268   -3.1821    0.0432 O.3       1 <0>        -0.4822
     21 C16         0.9931   -4.0969   -0.4600 C.3       1 <0>        -0.1163
     22 C17         3.1109   -2.1883   -0.5246 C.3       1 <0>        -0.1106
     23 H1          4.6489    4.7609    1.0556 H         1 <0>         0.0647
     24 H2          5.9079    4.2640   -0.1004 H         1 <0>         0.0811
     25 H3          4.3921    4.9863   -0.6913 H         1 <0>         0.0645
     26 H4          4.6455    2.3016    0.7388 H         1 <0>         0.0721
     27 H5          4.3887    2.5270   -1.0080 H         1 <0>         0.0719
     28 H6          2.3559    3.9151    0.3767 H         1 <0>         0.4208
     29 H7         -2.8746   -1.2737    0.9986 H         1 <0>         0.1004
     30 H8         -2.3212    0.4124    1.1363 H         1 <0>         0.0836
     31 H9         -2.4320    1.9284   -0.7933 H         1 <0>         0.1320
     32 H10        -3.5672    2.3899   -2.9563 H         1 <0>         0.1360
     33 H11        -4.7557    0.5643   -4.1054 H         1 <0>         0.1566
     34 H12        -3.7410   -2.1233   -1.1100 H         1 <0>         0.1548
     35 H13        -2.0417   -3.3375   -0.8163 H         1 <0>         0.3871
     36 H14         1.0188   -4.2950   -1.5315 H         1 <0>         0.0723
     37 H15         1.9622   -4.3370   -0.0227 H         1 <0>         0.0741
     38 H16         0.2224   -4.7119    0.0048 H         1 <0>         0.0769
     39 H17         3.2695   -2.2665   -1.6001 H         1 <0>         0.0713
     40 H18         3.8153   -1.4703   -0.1046 H         1 <0>         0.0743
     41 H19         3.2668   -3.1632   -0.0625 H         1 <0>         0.0710
@<TRIPOS>BOND
     1    1    2 1
     2    1   23 1
     3    1   24 1
     4    1   25 1
     5    2    3 1
     6    2   26 1
     7    2   27 1
     8    3    4 1
     9    3   28 1
    10    4   12 1
    11    4    5 2
    12    5    6 1
    13    6   11 ar
    14    6    7 ar
    15    7    8 ar
    16    7   22 1
    17    8    9 ar
    18    8   21 1
    19    9   10 ar
    20    9   20 1
    21   10   11 ar
    22   10   13 1
    23   11   12 1
    24   13   14 1
    25   13   29 1
    26   13   30 1
    27   14   19 ar
    28   14   15 ar
    29   15   16 ar
    30   15   31 1
    31   16   17 ar
    32   16   32 1
    33   17   18 ar
    34   17   33 1
    35   18   19 ar
    36   19   34 1
    37   20   35 1
    38   21   36 1
    39   21   37 1
    40   21   38 1
    41   22   39 1
    42   22   40 1
    43   22   41 1
@<TRIPOS>MOLECULE
ZINC00007873
   41    43     0     0     0
SMALL
USER_CHARGES
2-ethylamino-4,7-dimethyl-5-(3-pyridylmethyl)benzothiazol-6-ol
@<TRIPOS>ATOM
      1 C1         -4.3165    9.7698   -7.6167 C.3       1 <0>        -0.1651
      2 C2         -4.4462    8.3795   -6.9914 C.3       1 <0>         0.1154
      3 N1         -3.7152    8.3446   -5.7223 N.pl3     1 <0>        -0.6728
      4 C3         -3.6891    7.1856   -4.9722 C.2       1 <0>         0.4145
      5 N2         -3.0955    6.9621   -3.8227 N.2       1 <0>        -0.5804
      6 C4         -3.1554    5.7651   -3.1952 C.ar      1 <0>         0.1300
      7 C5         -2.5702    5.3973   -1.9620 C.ar      1 <0>        -0.0361
      8 C6         -2.7228    4.1302   -1.4630 C.ar      1 <0>        -0.0831
      9 C7         -3.4640    3.1675   -2.1411 C.ar      1 <0>         0.1118
     10 C8         -4.0560    3.4978   -3.3514 C.ar      1 <0>        -0.0472
     11 C9         -3.9009    4.7641   -3.8573 C.ar      1 <0>        -0.1521
     12 S1         -4.4555    5.6088   -5.3188 S.3       1 <0>        -0.0108
     13 C10        -4.8634    2.4730   -4.1056 C.3       1 <0>        -0.1129
     14 O1         -3.6067    1.9181   -1.6235 O.3       1 <0>        -0.4829
     15 C11        -2.0788    3.7735   -0.1480 C.3       1 <0>        -0.0335
     16 C12        -0.7247    3.1626   -0.4012 C.ar      1 <0>        -0.1268
     17 C13        -0.5936    1.7930   -0.5746 C.ar      1 <0>        -0.0597
     18 C14         0.6722    1.2748   -0.8005 C.ar      1 <0>        -0.1733
     19 C15         1.7524    2.1355   -0.8558 C.ar      1 <0>         0.0929
     20 N3          1.5896    3.4335   -0.6908 N.ar      1 <0>        -0.4850
     21 C16         0.4013    3.9607   -0.4687 C.ar      1 <0>         0.0996
     22 C17        -1.7635    6.4092   -1.1898 C.3       1 <0>        -0.1156
     23 H1         -4.7323   10.5139   -6.9373 H         1 <0>         0.0675
     24 H2         -3.2644    9.9903   -7.7973 H         1 <0>         0.0675
     25 H3         -4.8604    9.7958   -8.5609 H         1 <0>         0.0831
     26 H4         -4.0305    7.6353   -7.6708 H         1 <0>         0.0726
     27 H5         -5.4983    8.1590   -6.8108 H         1 <0>         0.0728
     28 H6         -3.2494    9.1357   -5.4090 H         1 <0>         0.4185
     29 H7         -5.9055    2.5279   -3.7906 H         1 <0>         0.0743
     30 H8         -4.7961    2.6728   -5.1751 H         1 <0>         0.0658
     31 H9         -4.4727    1.4771   -3.8968 H         1 <0>         0.0804
     32 H10        -4.3764    1.8169   -1.0468 H         1 <0>         0.3880
     33 H11        -2.7071    3.0575    0.3818 H         1 <0>         0.0875
     34 H12        -1.9643    4.6733    0.4564 H         1 <0>         0.0914
     35 H13        -1.4565    1.1451   -0.5308 H         1 <0>         0.1400
     36 H14         0.8120    0.2125   -0.9360 H         1 <0>         0.1343
     37 H15         2.7412    1.7402   -1.0358 H         1 <0>         0.1542
     38 H16         0.3072    5.0287   -0.3385 H         1 <0>         0.1528
     39 H17        -0.7061    6.2861   -1.4238 H         1 <0>         0.0735
     40 H18        -2.0820    7.4146   -1.4654 H         1 <0>         0.0770
     41 H19        -1.9190    6.2590   -0.1214 H         1 <0>         0.0717
@<TRIPOS>BOND
     1    1    2 1
     2    1   23 1
     3    1   24 1
     4    1   25 1
     5    2    3 1
     6    2   26 1
     7    2   27 1
     8    3    4 1
     9    3   28 1
    10    4   12 1
    11    4    5 2
    12    5    6 1
    13    6   11 ar
    14    6    7 ar
    15    7    8 ar
    16    7   22 1
    17    8    9 ar
    18    8   15 1
    19    9   10 ar
    20    9   14 1
    21   10   11 ar
    22   10   13 1
    23   11   12 1
    24   13   29 1
    25   13   30 1
    26   13   31 1
    27   14   32 1
    28   15   16 1
    29   15   33 1
    30   15   34 1
    31   16   21 ar
    32   16   17 ar
    33   17   18 ar
    34   17   35 1
    35   18   19 ar
    36   18   36 1
    37   19   20 ar
    38   19   37 1
    39   20   21 ar
    40   21   38 1
    41   22   39 1
    42   22   40 1
    43   22   41 1
@<TRIPOS>MOLECULE
ZINC00005389
   28    29     0     0     0
SMALL
USER_CHARGES

@<TRIPOS>ATOM
      1 C1         -0.0167    1.3799    0.0096 C.ar      1 <0>        -0.0952
      2 C2          1.1656    2.0891    0.0021 C.ar      1 <0>        -0.1189
      3 C3          2.3864    1.4061   -0.0131 C.ar      1 <0>        -0.0173
      4 C4          2.3968    0.0072   -0.0207 C.ar      1 <0>        -0.1227
      5 C5          1.2058   -0.6873   -0.0131 C.ar      1 <0>        -0.0937
      6 C6          0.0021   -0.0041    0.0020 C.ar      1 <0>        -0.1416
      7 C7         -1.2950   -0.7712    0.0102 C.3       1 <0>         0.1515
      8 N1         -1.7285   -1.0124   -1.3682 N.pl3     1 <0>        -0.4518
      9 C8         -2.5251   -0.1951   -2.1239 C.2       1 <0>        -0.0534
     10 C9         -2.6720   -0.7931   -3.3216 C.2       1 <0>        -0.0341
     11 N2         -1.9838   -1.9441   -3.2978 N.2       1 <0>        -0.4988
     12 C10        -1.4119   -2.0797   -2.1327 C.2       1 <0>         0.1832
     13 C11         3.6525    2.1550   -0.0217 C.2       1 <0>        -0.1275
     14 C12         4.8298    1.4916   -0.0364 C.2       1 <0>        -0.1529
     15 C13         6.0485    2.2124   -0.0447 C.2       1 <0>         0.4984
     16 O1          6.0357    3.4373   -0.0384 O.co2     1 <0>        -0.6926
     17 O2          7.1156    1.6111   -0.0580 O.co2     1 <0>        -0.6961
     18 H1         -0.9600    1.9057    0.0260 H         1 <0>         0.1185
     19 H2          1.1493    3.1690    0.0077 H         1 <0>         0.1271
     20 H3          3.3352   -0.5272   -0.0328 H         1 <0>         0.1300
     21 H4          1.2120   -1.7672   -0.0192 H         1 <0>         0.1202
     22 H5         -1.1499   -1.7250    0.5176 H         1 <0>         0.1001
     23 H6         -2.0559   -0.1929    0.5344 H         1 <0>         0.0976
     24 H7         -2.9538    0.7479   -1.8183 H         1 <0>         0.1707
     25 H8         -3.2437   -0.4126   -4.1551 H         1 <0>         0.1667
     26 H9         -0.7905   -2.9092   -1.8291 H         1 <0>         0.2011
     27 H10         3.6412    3.2349   -0.0162 H         1 <0>         0.1303
     28 H11         4.8411    0.4117   -0.0420 H         1 <0>         0.1012
@<TRIPOS>BOND
     1    1    6 ar
     2    1    2 ar
     3    1   18 1
     4    2    3 ar
     5    2   19 1
     6    3    4 ar
     7    3   13 1
     8    4    5 ar
     9    4   20 1
    10    5    6 ar
    11    5   21 1
    12    6    7 1
    13    7    8 1
    14    7   22 1
    15    7   23 1
    16    8   12 1
    17    8    9 1
    18    9   10 2
    19    9   24 1
    20   10   11 1
    21   10   25 1
    22   11   12 2
    23   12   26 1
    24   13   14 2
    25   13   27 1
    26   14   15 1
    27   14   28 1
    28   15   16 2
    29   15   17 1
@<TRIPOS>MOLECULE
ZINC00005389
   29    30     0     0     0
SMALL
USER_CHARGES

@<TRIPOS>ATOM
      1 C1         -0.0167    1.3799    0.0096 C.ar      1 <0>        -0.0853
      2 C2          1.1656    2.0891    0.0021 C.ar      1 <0>        -0.1209
      3 C3          2.3864    1.4061   -0.0131 C.ar      1 <0>         0.0113
      4 C4          2.3968    0.0072   -0.0207 C.ar      1 <0>        -0.1276
      5 C5          1.2058   -0.6873   -0.0131 C.ar      1 <0>        -0.0878
      6 C6          0.0021   -0.0041    0.0020 C.ar      1 <0>        -0.1794
      7 C7         -1.2950   -0.7712    0.0102 C.3       1 <0>         0.1454
      8 N1         -1.7285   -1.0124   -1.3682 N.pl3     1 <0>        -0.3990
      9 C8         -2.5247   -0.1949   -2.1241 C.2       1 <0>         0.0283
     10 C9         -2.6718   -0.7930   -3.3217 C.2       1 <0>        -0.0024
     11 N2         -1.9840   -1.9443   -3.2977 N.pl3     1 <0>        -0.4790
     12 C10        -1.4123   -2.0799   -2.1325 C.cat     1 <0>         0.2867
     13 C11         3.6525    2.1550   -0.0217 C.2       1 <0>        -0.1488
     14 C12         4.8298    1.4916   -0.0364 C.2       1 <0>        -0.1269
     15 C13         6.0485    2.2124   -0.0447 C.2       1 <0>         0.4924
     16 O1          6.0357    3.4373   -0.0384 O.co2     1 <0>        -0.6854
     17 O2          7.1156    1.6111   -0.0580 O.co2     1 <0>        -0.6881
     18 H1         -0.9600    1.9057    0.0260 H         1 <0>         0.1232
     19 H2          1.1493    3.1690    0.0077 H         1 <0>         0.1341
     20 H3          3.3352   -0.5272   -0.0328 H         1 <0>         0.1357
     21 H4          1.2120   -1.7672   -0.0192 H         1 <0>         0.1225
     22 H5         -1.1499   -1.7250    0.5176 H         1 <0>         0.1251
     23 H6         -2.0559   -0.1929    0.5344 H         1 <0>         0.1276
     24 H7         -2.9531    0.7483   -1.8186 H         1 <0>         0.2199
     25 H8         -3.2433   -0.4124   -4.1553 H         1 <0>         0.2210
     26 H9         -0.7913   -2.9097   -1.8288 H         1 <0>         0.2568
     27 H10         3.6412    3.2349   -0.0162 H         1 <0>         0.1355
     28 H11         4.8411    0.4117   -0.0420 H         1 <0>         0.1025
     29 H12        -1.9188   -2.5748   -4.0320 H         1 <0>         0.4626
@<TRIPOS>BOND
     1    1    6 ar
     2    1    2 ar
     3    1   18 1
     4    2    3 ar
     5    2   19 1
     6    3    4 ar
     7    3   13 1
     8    4    5 ar
     9    4   20 1
    10    5    6 ar
    11    5   21 1
    12    6    7 1
    13    7    8 1
    14    7   22 1
    15    7   23 1
    16    8   12 1
    17    8    9 1
    18    9   10 2
    19    9   24 1
    20   10   11 1
    21   10   25 1
    22   11   12 2
    23   11   29 1
    24   12   26 1
    25   13   14 2
    26   13   27 1
    27   14   15 1
    28   14   28 1
    29   15   16 2
    30   15   17 1
@<TRIPOS>MOLECULE
ZINC00293947
   27    29     0     0     0
SMALL
USER_CHARGES

@<TRIPOS>ATOM
      1 C1         -0.0165    1.3620    0.0095 C.ar      1 <0>        -0.1255
      2 C2          1.1697    2.0834    0.0021 C.ar      1 <0>        -0.0919
      3 C3          2.3856    1.4362   -0.0134 C.ar      1 <0>        -0.1185
      4 C4          2.4281    0.0456   -0.0212 C.ar      1 <0>         0.0918
      5 C5          1.2234   -0.6807   -0.0132 C.ar      1 <0>        -0.0924
      6 C6          0.0021   -0.0041    0.0020 C.ar      1 <0>        -0.0869
      7 C7          1.6036   -2.0953   -0.0245 C.2       1 <0>        -0.2458
      8 C8          2.9451   -2.1410   -0.0380 C.2       1 <0>         0.1092
      9 N1          3.4551   -0.8713   -0.0363 N.pl3     1 <0>        -0.5825
     10 H1          4.3995   -0.6501   -0.0442 H         1 <0>         0.4259
     11 C9          0.6664   -3.2754   -0.0210 C.3       1 <0>         0.1770
     12 N2          0.2544   -3.5758   -1.3944 N.pl3     1 <0>        -0.3994
     13 C10        -0.8292   -3.0557   -2.0495 C.2       1 <0>         0.0312
     14 C11        -0.8354   -3.5965   -3.2828 C.2       1 <0>        -0.0010
     15 N3          0.2158   -4.4241   -3.3783 N.pl3     1 <0>        -0.4779
     16 C12         0.8759   -4.4130   -2.2526 C.cat     1 <0>         0.2832
     17 H2         -0.9613    1.8849    0.0259 H         1 <0>         0.1302
     18 H3          1.1388    3.1630    0.0081 H         1 <0>         0.1339
     19 H4          3.3028    2.0064   -0.0198 H         1 <0>         0.1275
     20 H5         -0.9246   -0.5587    0.0082 H         1 <0>         0.1197
     21 H6          3.5346   -3.0459   -0.0490 H         1 <0>         0.1778
     22 H7          1.1742   -4.1414    0.4036 H         1 <0>         0.1265
     23 H8         -0.2127   -3.0396    0.5787 H         1 <0>         0.1286
     24 H9         -1.5423   -2.3480   -1.6532 H         1 <0>         0.2184
     25 H10        -1.5597   -3.3984   -4.0590 H         1 <0>         0.2215
     26 H11         1.7698   -4.9812   -2.0414 H         1 <0>         0.2564
     27 H12         0.4503   -4.9458   -4.1617 H         1 <0>         0.4632
@<TRIPOS>BOND
     1    1    6 ar
     2    1    2 ar
     3    1   17 1
     4    2    3 ar
     5    2   18 1
     6    3    4 ar
     7    3   19 1
     8    4    9 1
     9    4    5 ar
    10    5    6 ar
    11    5    7 1
    12    6   20 1
    13    7    8 2
    14    7   11 1
    15    8    9 1
    16    8   21 1
    17    9   10 1
    18   11   12 1
    19   11   22 1
    20   11   23 1
    21   12   16 1
    22   12   13 1
    23   13   14 2
    24   13   24 1
    25   14   15 1
    26   14   25 1
    27   15   16 2
    28   15   27 1
    29   16   26 1
@<TRIPOS>MOLECULE
ZINC00293947
   26    28     0     0     0
SMALL
USER_CHARGES

@<TRIPOS>ATOM
      1 C1         -0.0165    1.3620    0.0095 C.ar      1 <0>        -0.1392
      2 C2          1.1697    2.0834    0.0021 C.ar      1 <0>        -0.0977
      3 C3          2.3856    1.4362   -0.0134 C.ar      1 <0>        -0.1268
      4 C4          2.4281    0.0456   -0.0212 C.ar      1 <0>         0.0931
      5 C5          1.2234   -0.6807   -0.0132 C.ar      1 <0>        -0.0917
      6 C6          0.0021   -0.0041    0.0020 C.ar      1 <0>        -0.0740
      7 C7          1.6036   -2.0953   -0.0245 C.2       1 <0>        -0.2095
      8 C8          2.9451   -2.1410   -0.0380 C.2       1 <0>         0.0854
      9 N1          3.4551   -0.8713   -0.0363 N.pl3     1 <0>        -0.5910
     10 H1          4.3995   -0.6501   -0.0442 H         1 <0>         0.4193
     11 C9          0.6664   -3.2754   -0.0210 C.3       1 <0>         0.1825
     12 N2          0.2544   -3.5758   -1.3944 N.pl3     1 <0>        -0.4523
     13 C10        -0.8295   -3.0561   -2.0493 C.2       1 <0>        -0.0492
     14 C11        -0.8355   -3.5967   -3.2827 C.2       1 <0>        -0.0336
     15 N3          0.2159   -4.4239   -3.3784 N.2       1 <0>        -0.4971
     16 C12         0.8762   -4.4126   -2.2528 C.2       1 <0>         0.1791
     17 H2         -0.9613    1.8849    0.0259 H         1 <0>         0.1246
     18 H3          1.1388    3.1630    0.0081 H         1 <0>         0.1274
     19 H4          3.3028    2.0064   -0.0198 H         1 <0>         0.1215
     20 H5         -0.9246   -0.5587    0.0082 H         1 <0>         0.1191
     21 H6          3.5346   -3.0459   -0.0490 H         1 <0>         0.1735
     22 H7          1.1742   -4.1414    0.4036 H         1 <0>         0.1012
     23 H8         -0.2127   -3.0396    0.5787 H         1 <0>         0.0985
     24 H9         -1.5429   -2.3487   -1.6529 H         1 <0>         0.1696
     25 H10        -1.5600   -3.3988   -4.0588 H         1 <0>         0.1669
     26 H11         1.7703   -4.9805   -2.0417 H         1 <0>         0.2003
@<TRIPOS>BOND
     1    1    6 ar
     2    1    2 ar
     3    1   17 1
     4    2    3 ar
     5    2   18 1
     6    3    4 ar
     7    3   19 1
     8    4    9 1
     9    4    5 ar
    10    5    6 ar
    11    5    7 1
    12    6   20 1
    13    7    8 2
    14    7   11 1
    15    8    9 1
    16    8   21 1
    17    9   10 1
    18   11   12 1
    19   11   22 1
    20   11   23 1
    21   12   16 1
    22   12   13 1
    23   13   14 2
    24   13   24 1
    25   14   15 1
    26   14   25 1
    27   15   16 2
    28   16   26 1
@<TRIPOS>MOLECULE
ZINC00509842
   40    43     0     0     0
SMALL
USER_CHARGES
N-benzyl-2-(4-pyridyl)quinazolin-4-amine
@<TRIPOS>ATOM
      1 C1         -2.1273    8.3398    0.0767 C.ar      1 <0>        -0.1081
      2 C2         -2.2311    7.6605   -1.1227 C.ar      1 <0>        -0.1215
      3 C3         -2.4041    6.2890   -1.1275 C.ar      1 <0>        -0.0986
      4 C4         -2.4737    5.5969    0.0671 C.ar      1 <0>        -0.1174
      5 C5         -2.3756    6.2770    1.2666 C.ar      1 <0>        -0.0986
      6 C6         -2.1969    7.6477    1.2713 C.ar      1 <0>        -0.1215
      7 C7         -2.6628    4.1018    0.0619 C.3       1 <0>         0.1690
      8 N1         -1.3539    3.4442    0.0397 N.pl3     1 <0>        -0.6908
      9 C8         -1.2741    2.0677    0.0312 C.ar      1 <0>         0.4801
     10 C9         -0.0171    1.4126    0.0098 C.ar      1 <0>        -0.1965
     11 C10         1.1886    2.1215    0.0021 C.ar      1 <0>        -0.0699
     12 C11         2.3698    1.4391   -0.0133 C.ar      1 <0>        -0.1313
     13 C12         2.3914    0.0472   -0.0206 C.ar      1 <0>        -0.0726
     14 C13         1.2343   -0.6734   -0.0134 C.ar      1 <0>        -0.1084
     15 C14         0.0021   -0.0041    0.0020 C.ar      1 <0>         0.1914
     16 N2         -1.1630   -0.6654    0.0101 N.ar      1 <0>        -0.5382
     17 C15        -2.3055   -0.0060    0.0250 C.ar      1 <0>         0.4079
     18 N3         -2.3698    1.3238    0.0332 N.ar      1 <0>        -0.5851
     19 C16        -3.5722   -0.7789    0.0334 C.ar      1 <0>         0.0006
     20 C17        -4.8093   -0.1293    0.0551 C.ar      1 <0>        -0.1249
     21 C18        -5.9635   -0.8868    0.0566 C.ar      1 <0>         0.0902
     22 N4         -5.9084   -2.2044    0.0490 N.ar      1 <0>        -0.4746
     23 C19        -4.7620   -2.8561    0.0341 C.ar      1 <0>         0.0913
     24 C20        -3.5605   -2.1763    0.0258 C.ar      1 <0>        -0.1242
     25 H1         -1.9914    9.4112    0.0805 H         1 <0>         0.1250
     26 H2         -2.1767    8.2012   -2.0560 H         1 <0>         0.1257
     27 H3         -2.4852    5.7582   -2.0646 H         1 <0>         0.1243
     28 H4         -2.4344    5.7368    2.2000 H         1 <0>         0.1243
     29 H5         -2.1154    8.1784    2.2084 H         1 <0>         0.1257
     30 H6         -3.2308    3.8105   -0.8217 H         1 <0>         0.0815
     31 H7         -3.2054    3.8011    0.9581 H         1 <0>         0.0813
     32 H8         -0.5435    3.9771    0.0309 H         1 <0>         0.4135
     33 H9          1.1846    3.2014    0.0076 H         1 <0>         0.1254
     34 H10         3.3009    1.9862   -0.0200 H         1 <0>         0.1315
     35 H11         3.3396   -0.4698   -0.0324 H         1 <0>         0.1349
     36 H12         1.2663   -1.7529   -0.0198 H         1 <0>         0.1413
     37 H13        -4.8618    0.9494    0.0664 H         1 <0>         0.1467
     38 H14        -6.9243   -0.3938    0.0691 H         1 <0>         0.1605
     39 H15        -4.7632   -3.9361    0.0287 H         1 <0>         0.1613
     40 H16        -2.6254   -2.7165    0.0133 H         1 <0>         0.1487
@<TRIPOS>BOND
     1    1    6 ar
     2    1    2 ar
     3    1   25 1
     4    2    3 ar
     5    2   26 1
     6    3    4 ar
     7    3   27 1
     8    4    5 ar
     9    4    7 1
    10    5    6 ar
    11    5   28 1
    12    6   29 1
    13    7    8 1
    14    7   30 1
    15    7   31 1
    16    8    9 1
    17    8   32 1
    18    9   18 ar
    19    9   10 ar
    20   10   15 ar
    21   10   11 ar
    22   11   12 ar
    23   11   33 1
    24   12   13 ar
    25   12   34 1
    26   13   14 ar
    27   13   35 1
    28   14   15 ar
    29   14   36 1
    30   15   16 ar
    31   16   17 ar
    32   17   18 ar
    33   17   19 1
    34   19   24 ar
    35   19   20 ar
    36   20   21 ar
    37   20   37 1
    38   21   22 ar
    39   21   38 1
    40   22   23 ar
    41   23   24 ar
    42   23   39 1
    43   24   40 1
@<TRIPOS>MOLECULE
ZINC00005903
   40    43     0     0     0
SMALL
USER_CHARGES

@<TRIPOS>ATOM
      1 C1         -0.0167    1.3781    0.0096 C.ar      1 <0>        -0.1084
      2 C2          1.1709    2.0855    0.0021 C.ar      1 <0>        -0.1216
      3 C3          2.3773    1.4107   -0.0130 C.ar      1 <0>        -0.0986
      4 C4          2.3960    0.0285   -0.0201 C.ar      1 <0>        -0.1168
      5 C5          1.2084   -0.6789   -0.0117 C.ar      1 <0>        -0.0986
      6 C6          0.0021   -0.0041    0.0020 C.ar      1 <0>        -0.1216
      7 C7          3.7112   -0.7071   -0.0376 C.3       1 <0>         0.1683
      8 N1          4.1518   -0.9524    1.3379 N.pl3     1 <0>        -0.6909
      9 C8          5.3374   -1.6154    1.5741 C.ar      1 <0>         0.4818
     10 C9          5.7780   -1.8674    2.8978 C.ar      1 <0>        -0.1995
     11 C10         5.0405   -1.4615    4.0149 C.ar      1 <0>        -0.0684
     12 C11         5.5122   -1.7310    5.2662 C.ar      1 <0>        -0.1340
     13 C12         6.7174   -2.4039    5.4465 C.ar      1 <0>        -0.0721
     14 C13         7.4602   -2.8125    4.3791 C.ar      1 <0>        -0.1106
     15 C14         7.0046   -2.5529    3.0786 C.ar      1 <0>         0.1939
     16 N2          7.6967   -2.9343    1.9965 N.ar      1 <0>        -0.5455
     17 C15         7.2407   -2.6742    0.7856 C.ar      1 <0>         0.4179
     18 N3          6.0909   -2.0377    0.5703 N.ar      1 <0>        -0.5890
     19 C16         8.0392   -3.1140   -0.3839 C.ar      1 <0>        -0.0989
     20 C17         9.2470   -3.7952   -0.2040 C.ar      1 <0>        -0.0261
     21 C18         9.9548   -4.1843   -1.3279 C.ar      1 <0>        -0.1829
     22 C19         9.4494   -3.8896   -2.5814 C.ar      1 <0>         0.1150
     23 N4          8.3070   -3.2451   -2.7198 N.ar      1 <0>        -0.4910
     24 C20         7.5953   -2.8603   -1.6802 C.ar      1 <0>         0.1495
     25 H1         -0.9591    1.9053    0.0259 H         1 <0>         0.1248
     26 H2          1.1563    3.1654    0.0076 H         1 <0>         0.1255
     27 H3          3.3051    1.9634   -0.0196 H         1 <0>         0.1244
     28 H4          1.2231   -1.7588   -0.0176 H         1 <0>         0.1244
     29 H5         -0.9258   -0.5567    0.0082 H         1 <0>         0.1255
     30 H6          3.5884   -1.6586   -0.5549 H         1 <0>         0.0820
     31 H7          4.4573   -0.1052   -0.5563 H         1 <0>         0.0820
     32 H8          3.6095   -0.6484    2.0824 H         1 <0>         0.4133
     33 H9          4.1044   -0.9381    3.8876 H         1 <0>         0.1249
     34 H10         4.9430   -1.4177    6.1289 H         1 <0>         0.1308
     35 H11         7.0695   -2.6050    6.4475 H         1 <0>         0.1341
     36 H12         8.3937   -3.3330    4.5340 H         1 <0>         0.1402
     37 H13         9.6183   -4.0119    0.7867 H         1 <0>         0.1481
     38 H14        10.8917   -4.7119   -1.2274 H         1 <0>         0.1412
     39 H15         9.9991   -4.1917   -3.4606 H         1 <0>         0.1595
     40 H16         6.6620   -2.3390   -1.8339 H         1 <0>         0.1677
@<TRIPOS>BOND
     1    1    6 ar
     2    1    2 ar
     3    1   25 1
     4    2    3 ar
     5    2   26 1
     6    3    4 ar
     7    3   27 1
     8    4    5 ar
     9    4    7 1
    10    5    6 ar
    11    5   28 1
    12    6   29 1
    13    7    8 1
    14    7   30 1
    15    7   31 1
    16    8    9 1
    17    8   32 1
    18    9   18 ar
    19    9   10 ar
    20   10   15 ar
    21   10   11 ar
    22   11   12 ar
    23   11   33 1
    24   12   13 ar
    25   12   34 1
    26   13   14 ar
    27   13   35 1
    28   14   15 ar
    29   14   36 1
    30   15   16 ar
    31   16   17 ar
    32   17   18 ar
    33   17   19 1
    34   19   24 ar
    35   19   20 ar
    36   20   21 ar
    37   20   37 1
    38   21   22 ar
    39   21   38 1
    40   22   23 ar
    41   22   39 1
    42   23   24 ar
    43   24   40 1
@<TRIPOS>MOLECULE
ZINC27720845
   52    54     0     0     0
SMALL
USER_CHARGES

@<TRIPOS>ATOM
      1 C1         -0.3316    1.8383   -0.6399 C.3       1 <0>        -0.1493
      2 C2         -0.4659    0.3144   -0.6207 C.3       1 <0>         0.0620
      3 O1          0.4050   -0.2529   -1.6015 O.3       1 <0>        -0.3318
      4 C3          0.4073   -1.5958   -1.7141 C.2       1 <0>         0.4729
      5 C4          1.2235   -2.2080   -2.6398 C.2       1 <0>        -0.4009
      6 C5          1.3279   -3.7204   -2.7270 C.3       1 <0>         0.1405
      7 H1          1.6624   -4.0950   -1.7596 H         1 <0>         0.0473
      8 C6          2.2643   -4.2586   -3.7934 C.2       1 <0>        -0.3325
      9 C7          2.9233   -3.3509   -4.5721 C.2       1 <0>         0.2098
     10 N1          2.7698   -2.0439   -4.4240 N.2       1 <0>        -0.6354
     11 C8          1.9864   -1.4652   -3.5427 C.2       1 <0>         0.2968
     12 C9          1.9134    0.0395   -3.5015 C.3       1 <0>        -0.1012
     13 C10         3.8603   -3.8552   -5.6392 C.3       1 <0>         0.1489
     14 N2          3.1745   -3.8493   -6.9338 N.pl3     1 <0>        -0.4438
     15 C11         2.4408   -4.8735   -7.4690 C.2       1 <0>        -0.0464
     16 C12         1.9910   -4.4472   -8.6646 C.2       1 <0>        -0.0394
     17 N3          2.4378   -3.1968   -8.8543 N.2       1 <0>        -0.5042
     18 C13         3.1432   -2.8302   -7.8194 C.2       1 <0>         0.1957
     19 C14         2.4467   -5.6410   -3.9726 C.2       1 <0>         0.5451
     20 O2          1.6186   -6.2901   -4.5862 O.2       1 <0>        -0.5081
     21 O3          3.5403   -6.2493   -3.4644 O.3       1 <0>        -0.3587
     22 C15         3.6612   -7.6561   -3.6843 C.3       1 <0>         0.0312
     23 C16        -0.0488   -4.2729   -2.9923 C.ar      1 <0>        -0.0328
     24 C17        -0.7328   -3.9048   -4.1361 C.ar      1 <0>        -0.0377
     25 C18        -1.9955   -4.4115   -4.3794 C.ar      1 <0>        -0.1241
     26 C19        -2.5744   -5.2868   -3.4793 C.ar      1 <0>        -0.0737
     27 C20        -1.8902   -5.6555   -2.3364 C.ar      1 <0>        -0.0521
     28 C21        -0.6254   -5.1520   -2.0951 C.ar      1 <0>        -0.0318
     29 N4         -2.5102   -6.5923   -1.3725 N.pl3     1 <0>         0.0440
     30 O4         -3.6150   -7.0349   -1.5849 O.2       1 <0>        -0.1795
     31 O5         -1.9117   -6.9148   -0.3727 O.3       1 <0>        -0.1720
     32 O6         -0.3887   -2.3398   -0.9211 O.3       1 <0>        -0.6445
     33 H2          0.6983    2.1152   -0.4148 H         1 <0>         0.0623
     34 H3         -0.6017    2.2145   -1.6266 H         1 <0>         0.0620
     35 H4         -0.9959    2.2710    0.1082 H         1 <0>         0.0699
     36 H5         -0.1959   -0.0618    0.3660 H         1 <0>         0.0588
     37 H6         -1.4959    0.0375   -0.8458 H         1 <0>         0.0574
     38 H7          2.2733    0.3944   -2.5357 H         1 <0>         0.0792
     39 H8          2.5337    0.4552   -4.2955 H         1 <0>         0.0627
     40 H9          0.8804    0.3572   -3.6433 H         1 <0>         0.0758
     41 H10         4.7361   -3.2082   -5.6890 H         1 <0>         0.1082
     42 H11         4.1724   -4.8713   -5.3981 H         1 <0>         0.0911
     43 H12         2.2581   -5.8381   -7.0191 H         1 <0>         0.1674
     44 H13         1.3779   -5.0129   -9.3505 H         1 <0>         0.1630
     45 H14         3.6245   -1.8717   -7.6932 H         1 <0>         0.2014
     46 H15         2.8079   -8.1681   -3.2394 H         1 <0>         0.0559
     47 H16         3.6864   -7.8556   -4.7556 H         1 <0>         0.0540
     48 H17         4.5815   -8.0178   -3.2257 H         1 <0>         0.0952
     49 H18        -0.2806   -3.2210   -4.8392 H         1 <0>         0.1266
     50 H19        -2.5301   -4.1234   -5.2725 H         1 <0>         0.1359
     51 H20        -3.5613   -5.6822   -3.6691 H         1 <0>         0.1414
     52 H21        -0.0893   -5.4430   -1.2039 H         1 <0>         0.1379
@<TRIPOS>BOND
     1    1    2 1
     2    1   33 1
     3    1   34 1
     4    1   35 1
     5    2    3 1
     6    2   36 1
     7    2   37 1
     8    3    4 1
     9    4    5 2
    10    4   32 1
    11    5   11 1
    12    5    6 1
    13    6    7 1
    14    6    8 1
    15    6   23 1
    16    8    9 2
    17    8   19 1
    18    9   10 1
    19    9   13 1
    20   10   11 2
    21   11   12 1
    22   12   38 1
    23   12   39 1
    24   12   40 1
    25   13   14 1
    26   13   41 1
    27   13   42 1
    28   14   18 1
    29   14   15 1
    30   15   16 2
    31   15   43 1
    32   16   17 1
    33   16   44 1
    34   17   18 2
    35   18   45 1
    36   19   20 2
    37   19   21 1
    38   21   22 1
    39   22   46 1
    40   22   47 1
    41   22   48 1
    42   23   28 ar
    43   23   24 ar
    44   24   25 ar
    45   24   49 1
    46   25   26 ar
    47   25   50 1
    48   26   27 ar
    49   26   51 1
    50   27   28 ar
    51   27   29 1
    52   28   52 1
    53   29   30 2
    54   29   31 1
@<TRIPOS>MOLECULE
ZINC27720845
   53    55     0     0     0
SMALL
USER_CHARGES

@<TRIPOS>ATOM
      1 C1         -0.3316    1.8387   -0.6404 C.3       1 <0>        -0.1502
      2 C2         -0.4659    0.3147   -0.6211 C.3       1 <0>         0.0608
      3 O1          0.4050   -0.2527   -1.6017 O.3       1 <0>        -0.3305
      4 C3          0.4073   -1.5956   -1.7142 C.2       1 <0>         0.4755
      5 C4          1.2235   -2.2079   -2.6399 C.2       1 <0>        -0.3832
      6 C5          1.3279   -3.7203   -2.7269 C.3       1 <0>         0.1345
      7 H1          1.6623   -4.0948   -1.7595 H         1 <0>         0.0534
      8 C6          2.2642   -4.2586   -3.7933 C.2       1 <0>        -0.3167
      9 C7          2.9233   -3.3510   -4.5720 C.2       1 <0>         0.1863
     10 N1          2.7699   -2.0440   -4.4241 N.2       1 <0>        -0.6492
     11 C8          1.9864   -1.4652   -3.5428 C.2       1 <0>         0.2950
     12 C9          1.9135    0.0395   -3.5017 C.3       1 <0>        -0.1039
     13 C10         3.8602   -3.8554   -5.6391 C.3       1 <0>         0.1404
     14 N2          3.1745   -3.8495   -6.9337 N.pl3     1 <0>        -0.3927
     15 C11         2.4404   -4.8735   -7.4686 C.2       1 <0>         0.0330
     16 C12         1.9908   -4.4474   -8.6644 C.2       1 <0>        -0.0076
     17 N3          2.4381   -3.1973   -8.8544 N.pl3     1 <0>        -0.4826
     18 C13         3.1437   -2.8307   -7.8195 C.cat     1 <0>         0.3007
     19 C14         2.4467   -5.6410   -3.9724 C.2       1 <0>         0.5380
     20 O2          1.6186   -6.2901   -4.5858 O.2       1 <0>        -0.5099
     21 O3          3.5403   -6.2493   -3.4641 O.3       1 <0>        -0.3552
     22 C15         3.6611   -7.6562   -3.6839 C.3       1 <0>         0.0290
     23 C16        -0.0488   -4.2728   -2.9922 C.ar      1 <0>        -0.0395
     24 C17        -0.7328   -3.9048   -4.1360 C.ar      1 <0>        -0.0460
     25 C18        -1.9955   -4.4115   -4.3793 C.ar      1 <0>        -0.1253
     26 C19        -2.5744   -5.2867   -3.4791 C.ar      1 <0>        -0.0699
     27 C20        -1.8902   -5.6553   -2.3361 C.ar      1 <0>        -0.0463
     28 C21        -0.6254   -5.1518   -2.0949 C.ar      1 <0>        -0.0299
     29 N4         -2.5102   -6.5920   -1.3722 N.pl3     1 <0>         0.0387
     30 O4         -3.6151   -7.0346   -1.5846 O.2       1 <0>        -0.1711
     31 O5         -1.9118   -6.9144   -0.3724 O.3       1 <0>        -0.1643
     32 O6         -0.3887   -2.3395   -0.9212 O.3       1 <0>        -0.6279
     33 H2          0.6984    2.1155   -0.4153 H         1 <0>         0.0637
     34 H3         -0.6016    2.2147   -1.6272 H         1 <0>         0.0620
     35 H4         -0.9959    2.2714    0.1077 H         1 <0>         0.0740
     36 H5         -0.1959   -0.0614    0.3657 H         1 <0>         0.0627
     37 H6         -1.4958    0.0378   -0.8461 H         1 <0>         0.0604
     38 H7          2.2733    0.3945   -2.5360 H         1 <0>         0.0841
     39 H8          2.5338    0.4551   -4.2958 H         1 <0>         0.0626
     40 H9          0.8805    0.3572   -3.6437 H         1 <0>         0.0785
     41 H10         4.7361   -3.2085   -5.6889 H         1 <0>         0.1353
     42 H11         4.1723   -4.8716   -5.3979 H         1 <0>         0.1199
     43 H12         2.2573   -5.8380   -7.0185 H         1 <0>         0.2159
     44 H13         1.3775   -5.0131   -9.3501 H         1 <0>         0.2195
     45 H14         3.6254   -1.8723   -7.6936 H         1 <0>         0.2591
     46 H15         3.6863   -7.8557   -4.7552 H         1 <0>         0.0546
     47 H16         4.5814   -8.0178   -3.2252 H         1 <0>         0.1009
     48 H17         2.8079   -8.1680   -3.2389 H         1 <0>         0.0610
     49 H18        -0.2806   -3.2211   -4.8392 H         1 <0>         0.1217
     50 H19        -2.5301   -4.1234   -5.2724 H         1 <0>         0.1355
     51 H20        -3.5613   -5.6821   -3.6689 H         1 <0>         0.1445
     52 H21        -0.0893   -5.4427   -1.2036 H         1 <0>         0.1406
     53 H22         2.2619   -2.6505   -9.6360 H         1 <0>         0.4604
@<TRIPOS>BOND
     1    1    2 1
     2    1   33 1
     3    1   34 1
     4    1   35 1
     5    2    3 1
     6    2   36 1
     7    2   37 1
     8    3    4 1
     9    4    5 2
    10    4   32 1
    11    5   11 1
    12    5    6 1
    13    6    7 1
    14    6    8 1
    15    6   23 1
    16    8    9 2
    17    8   19 1
    18    9   10 1
    19    9   13 1
    20   10   11 2
    21   11   12 1
    22   12   38 1
    23   12   39 1
    24   12   40 1
    25   13   14 1
    26   13   41 1
    27   13   42 1
    28   14   18 1
    29   14   15 1
    30   15   16 2
    31   15   43 1
    32   16   17 1
    33   16   44 1
    34   17   18 2
    35   17   53 1
    36   18   45 1
    37   19   20 2
    38   19   21 1
    39   21   22 1
    40   22   46 1
    41   22   47 1
    42   22   48 1
    43   23   28 ar
    44   23   24 ar
    45   24   25 ar
    46   24   49 1
    47   25   26 ar
    48   25   50 1
    49   26   27 ar
    50   26   51 1
    51   27   28 ar
    52   27   29 1
    53   28   52 1
    54   29   30 2
    55   29   31 1
@<TRIPOS>MOLECULE
ZINC27720852
   52    54     0     0     0
SMALL
USER_CHARGES

@<TRIPOS>ATOM
      1 C1         -0.4959    1.5891   -0.3913 C.3       1 <0>        -0.1492
      2 C2         -0.5634    0.0613   -0.4394 C.3       1 <0>         0.0618
      3 O1          0.3162   -0.4226   -1.4563 O.3       1 <0>        -0.3317
      4 C3          0.3753   -1.7577   -1.6296 C.2       1 <0>         0.4734
      5 C4          1.2032   -2.2913   -2.5929 C.2       1 <0>        -0.4005
      6 C5          1.3875   -3.7917   -2.7368 C.3       1 <0>         0.1405
      7 H1          0.4104   -4.2389   -2.9197 H         1 <0>         0.0507
      8 C6          2.3282   -4.2399   -3.8403 C.2       1 <0>        -0.3310
      9 C7          2.9199   -3.2707   -4.5985 C.2       1 <0>         0.2095
     10 N1          2.6991   -1.9801   -4.4003 N.2       1 <0>        -0.6353
     11 C8          1.9047   -1.4765   -3.4833 C.2       1 <0>         0.2971
     12 C9          1.7512    0.0195   -3.3862 C.3       1 <0>        -0.1015
     13 C10         3.8594   -3.6850   -5.7016 C.3       1 <0>         0.1489
     14 N2          3.1529   -3.6481   -6.9844 N.pl3     1 <0>        -0.4445
     15 C11         2.4537   -4.6765   -7.5564 C.2       1 <0>        -0.0479
     16 C12         1.9670   -4.2148   -8.7241 C.2       1 <0>        -0.0385
     17 N3          2.3583   -2.9392   -8.8613 N.2       1 <0>        -0.5047
     18 C13         3.0648   -2.5915   -7.8207 C.2       1 <0>         0.1967
     19 C14         2.5814   -5.6031   -4.0730 C.2       1 <0>         0.5463
     20 O2          1.7619   -6.2823   -4.6648 O.2       1 <0>        -0.5112
     21 O3          3.7336   -6.1594   -3.6401 O.3       1 <0>        -0.3579
     22 C15         3.9247   -7.5494   -3.9111 C.3       1 <0>         0.0308
     23 C16         1.9110   -4.3292   -1.4299 C.ar      1 <0>        -0.0451
     24 C17         3.1126   -3.8683   -0.9245 C.ar      1 <0>        -0.0447
     25 C18         3.5927   -4.3613    0.2741 C.ar      1 <0>        -0.1253
     26 C19         2.8712   -5.3150    0.9680 C.ar      1 <0>        -0.0739
     27 C20         1.6696   -5.7751    0.4632 C.ar      1 <0>        -0.0535
     28 C21         1.1872   -5.2788   -0.7336 C.ar      1 <0>        -0.0334
     29 N4          0.8975   -6.7965    1.2058 N.pl3     1 <0>         0.0417
     30 O4          1.3179   -7.2283    2.2539 O.2       1 <0>        -0.1775
     31 O5         -0.1536   -7.1989    0.7643 O.3       1 <0>        -0.1673
     32 O6         -0.3754   -2.5708   -0.8607 O.3       1 <0>        -0.6454
     33 H2          0.5244    1.9008   -0.1676 H         1 <0>         0.0617
     34 H3         -0.7970    1.9966   -1.3563 H         1 <0>         0.0627
     35 H4         -1.1669    1.9581    0.3844 H         1 <0>         0.0700
     36 H5         -0.2623   -0.3463    0.5256 H         1 <0>         0.0571
     37 H6         -1.5837   -0.2504   -0.6631 H         1 <0>         0.0588
     38 H7          2.0708    0.3543   -2.3994 H         1 <0>         0.0799
     39 H8          2.3656    0.4980   -4.1489 H         1 <0>         0.0629
     40 H9          0.7062    0.2882   -3.5402 H         1 <0>         0.0753
     41 H10         4.7067   -3.0000   -5.7336 H         1 <0>         0.1080
     42 H11         4.2174   -4.6971   -5.5129 H         1 <0>         0.0913
     43 H12         2.3186   -5.6679   -7.1497 H         1 <0>         0.1674
     44 H13         1.3668   -4.7736   -9.4269 H         1 <0>         0.1639
     45 H14         3.5079   -1.6203   -7.6566 H         1 <0>         0.2018
     46 H15         3.1270   -8.1243   -3.4407 H         1 <0>         0.0549
     47 H16         3.9058   -7.7156   -4.9882 H         1 <0>         0.0552
     48 H17         4.8871   -7.8686   -3.5111 H         1 <0>         0.0945
     49 H18         3.6761   -3.1234   -1.4665 H         1 <0>         0.1333
     50 H19         4.5316   -4.0018    0.6685 H         1 <0>         0.1385
     51 H20         3.2468   -5.7008    1.9042 H         1 <0>         0.1430
     52 H21         0.2465   -5.6356   -1.1262 H         1 <0>         0.1422
@<TRIPOS>BOND
     1    1    2 1
     2    1   33 1
     3    1   34 1
     4    1   35 1
     5    2    3 1
     6    2   36 1
     7    2   37 1
     8    3    4 1
     9    4    5 2
    10    4   32 1
    11    5   11 1
    12    5    6 1
    13    6    7 1
    14    6    8 1
    15    6   23 1
    16    8    9 2
    17    8   19 1
    18    9   10 1
    19    9   13 1
    20   10   11 2
    21   11   12 1
    22   12   38 1
    23   12   39 1
    24   12   40 1
    25   13   14 1
    26   13   41 1
    27   13   42 1
    28   14   18 1
    29   14   15 1
    30   15   16 2
    31   15   43 1
    32   16   17 1
    33   16   44 1
    34   17   18 2
    35   18   45 1
    36   19   20 2
    37   19   21 1
    38   21   22 1
    39   22   46 1
    40   22   47 1
    41   22   48 1
    42   23   28 ar
    43   23   24 ar
    44   24   25 ar
    45   24   49 1
    46   25   26 ar
    47   25   50 1
    48   26   27 ar
    49   26   51 1
    50   27   28 ar
    51   27   29 1
    52   28   52 1
    53   29   30 2
    54   29   31 1
@<TRIPOS>MOLECULE
ZINC27720852
   53    55     0     0     0
SMALL
USER_CHARGES

@<TRIPOS>ATOM
      1 C1         -0.4960    1.5890   -0.3914 C.3       1 <0>        -0.1501
      2 C2         -0.5635    0.0613   -0.4395 C.3       1 <0>         0.0606
      3 O1          0.3162   -0.4226   -1.4564 O.3       1 <0>        -0.3306
      4 C3          0.3753   -1.7577   -1.6297 C.2       1 <0>         0.4758
      5 C4          1.2031   -2.2913   -2.5929 C.2       1 <0>        -0.3832
      6 C5          1.3875   -3.7917   -2.7368 C.3       1 <0>         0.1371
      7 H1          0.4105   -4.2389   -2.9196 H         1 <0>         0.0554
      8 C6          2.3283   -4.2399   -3.8403 C.2       1 <0>        -0.3154
      9 C7          2.9199   -3.2707   -4.5985 C.2       1 <0>         0.1854
     10 N1          2.6991   -1.9801   -4.4003 N.2       1 <0>        -0.6497
     11 C8          1.9047   -1.4765   -3.4833 C.2       1 <0>         0.2947
     12 C9          1.7511    0.0195   -3.3863 C.3       1 <0>        -0.1042
     13 C10         3.8594   -3.6850   -5.7016 C.3       1 <0>         0.1405
     14 N2          3.1529   -3.6481   -6.9844 N.pl3     1 <0>        -0.3933
     15 C11         2.4533   -4.6764   -7.5562 C.2       1 <0>         0.0324
     16 C12         1.9668   -4.2146   -8.7240 C.2       1 <0>        -0.0068
     17 N3          2.3586   -2.9392   -8.8615 N.pl3     1 <0>        -0.4826
     18 C13         3.0652   -2.5916   -7.8209 C.cat     1 <0>         0.3015
     19 C14         2.5815   -5.6031   -4.0729 C.2       1 <0>         0.5390
     20 O2          1.7620   -6.2824   -4.6647 O.2       1 <0>        -0.5124
     21 O3          3.7337   -6.1594   -3.6401 O.3       1 <0>        -0.3546
     22 C15         3.9249   -7.5493   -3.9110 C.3       1 <0>         0.0285
     23 C16         1.9111   -4.3291   -1.4298 C.ar      1 <0>        -0.0580
     24 C17         3.1126   -3.8682   -0.9245 C.ar      1 <0>        -0.0469
     25 C18         3.5928   -4.3611    0.2741 C.ar      1 <0>        -0.1236
     26 C19         2.8714   -5.3148    0.9680 C.ar      1 <0>        -0.0682
     27 C20         1.6698   -5.7750    0.4633 C.ar      1 <0>        -0.0510
     28 C21         1.1874   -5.2787   -0.7336 C.ar      1 <0>        -0.0330
     29 N4          0.8977   -6.7964    1.2060 N.pl3     1 <0>         0.0382
     30 O4          1.3181   -7.2282    2.2540 O.2       1 <0>        -0.1693
     31 O5         -0.1534   -7.1989    0.7645 O.3       1 <0>        -0.1643
     32 O6         -0.3754   -2.5708   -0.8607 O.3       1 <0>        -0.6282
     33 H2          0.5242    1.9008   -0.1677 H         1 <0>         0.0630
     34 H3         -0.7972    1.9966   -1.3564 H         1 <0>         0.0627
     35 H4         -1.1670    1.9581    0.3843 H         1 <0>         0.0740
     36 H5         -0.2624   -0.3463    0.5256 H         1 <0>         0.0610
     37 H6         -1.5838   -0.2505   -0.6631 H         1 <0>         0.0620
     38 H7          2.0707    0.3543   -2.3995 H         1 <0>         0.0847
     39 H8          2.3655    0.4980   -4.1490 H         1 <0>         0.0628
     40 H9          0.7060    0.2882   -3.5403 H         1 <0>         0.0779
     41 H10         4.7067   -3.0000   -5.7336 H         1 <0>         0.1349
     42 H11         4.2174   -4.6971   -5.5129 H         1 <0>         0.1199
     43 H12         2.3179   -5.6675   -7.1493 H         1 <0>         0.2158
     44 H13         1.3664   -4.7733   -9.4267 H         1 <0>         0.2199
     45 H14         3.5087   -1.6205   -7.6570 H         1 <0>         0.2591
     46 H15         3.9059   -7.7155   -4.9881 H         1 <0>         0.0556
     47 H16         4.8873   -7.8685   -3.5110 H         1 <0>         0.1001
     48 H17         3.1273   -8.1243   -3.4406 H         1 <0>         0.0600
     49 H18         3.6762   -3.1232   -1.4666 H         1 <0>         0.1321
     50 H19         4.5317   -4.0016    0.6685 H         1 <0>         0.1408
     51 H20         3.2469   -5.7005    1.9043 H         1 <0>         0.1464
     52 H21         0.2466   -5.6356   -1.1261 H         1 <0>         0.1429
     53 H22         2.1470   -2.3648   -9.6139 H         1 <0>         0.4605
@<TRIPOS>BOND
     1    1    2 1
     2    1   33 1
     3    1   34 1
     4    1   35 1
     5    2    3 1
     6    2   36 1
     7    2   37 1
     8    3    4 1
     9    4    5 2
    10    4   32 1
    11    5   11 1
    12    5    6 1
    13    6    7 1
    14    6    8 1
    15    6   23 1
    16    8    9 2
    17    8   19 1
    18    9   10 1
    19    9   13 1
    20   10   11 2
    21   11   12 1
    22   12   38 1
    23   12   39 1
    24   12   40 1
    25   13   14 1
    26   13   41 1
    27   13   42 1
    28   14   18 1
    29   14   15 1
    30   15   16 2
    31   15   43 1
    32   16   17 1
    33   16   44 1
    34   17   18 2
    35   17   53 1
    36   18   45 1
    37   19   20 2
    38   19   21 1
    39   21   22 1
    40   22   46 1
    41   22   47 1
    42   22   48 1
    43   23   28 ar
    44   23   24 ar
    45   24   25 ar
    46   24   49 1
    47   25   26 ar
    48   25   50 1
    49   26   27 ar
    50   26   51 1
    51   27   28 ar
    52   27   29 1
    53   28   52 1
    54   29   30 2
    55   29   31 1
@<TRIPOS>MOLECULE
ZINC00017088
   26    28     0     0     0
SMALL
USER_CHARGES
2-methyl-4-thiazol-5-yl-phthalazin-1-one
@<TRIPOS>ATOM
      1 C1         -0.2403    1.0927   -0.1099 C.3       1 <0>         0.1005
      2 N1         -0.8069    1.5616    1.1571 N.am      1 <0>        -0.4256
      3 C2         -0.8290    2.8851    1.4150 C.2       1 <0>         0.5262
      4 O1         -0.3839    3.6801    0.6064 O.2       1 <0>        -0.5113
      5 C3         -1.4024    3.3538    2.6836 C.ar      1 <0>        -0.1213
      6 C4         -1.4594    4.7081    3.0100 C.ar      1 <0>        -0.0514
      7 C5         -2.0028    5.0938    4.2156 C.ar      1 <0>        -0.1080
      8 C6         -2.4922    4.1479    5.1067 C.ar      1 <0>        -0.0821
      9 C7         -2.4446    2.8047    4.8040 C.ar      1 <0>        -0.1010
     10 C8         -1.8995    2.3919    3.5896 C.ar      1 <0>        -0.0571
     11 C9         -1.8241    0.9706    3.2173 C.2       1 <0>         0.2220
     12 N2         -1.3031    0.6258    2.0651 N.2       1 <0>        -0.2165
     13 C10        -2.3330   -0.0637    4.1386 C.2       1 <0>        -0.1567
     14 C11        -1.9119   -1.3570    4.3250 C.2       1 <0>         0.0854
     15 N3         -2.5356   -2.0854    5.2213 N.2       1 <0>        -0.5074
     16 C12        -3.5418   -1.6075    5.9190 C.2       1 <0>         0.0751
     17 S1         -3.6745    0.0158    5.3168 S.3       1 <0>         0.0985
     18 H1         -0.2970    0.0051   -0.1530 H         1 <0>         0.0963
     19 H2          0.8016    1.4052   -0.1797 H         1 <0>         0.0793
     20 H3         -0.8038    1.5191   -0.9398 H         1 <0>         0.0794
     21 H4         -1.0802    5.4496    2.3224 H         1 <0>         0.1465
     22 H5         -2.0484    6.1423    4.4705 H         1 <0>         0.1409
     23 H6         -2.9144    4.4686    6.0476 H         1 <0>         0.1401
     24 H7         -2.8276    2.0762    5.5032 H         1 <0>         0.1389
     25 H8         -1.0897   -1.7619    3.7537 H         1 <0>         0.1790
     26 H9         -4.1357   -2.0998    6.6749 H         1 <0>         0.2302
@<TRIPOS>BOND
     1    1    2 1
     2    1   18 1
     3    1   19 1
     4    1   20 1
     5    2   12 1
     6    2    3 am
     7    3    4 2
     8    3    5 1
     9    5   10 ar
    10    5    6 ar
    11    6    7 ar
    12    6   21 1
    13    7    8 ar
    14    7   22 1
    15    8    9 ar
    16    8   23 1
    17    9   10 ar
    18    9   24 1
    19   10   11 1
    20   11   12 2
    21   11   13 1
    22   13   17 1
    23   13   14 2
    24   14   15 1
    25   14   25 1
    26   15   16 2
    27   16   17 1
    28   16   26 1
@<TRIPOS>MOLECULE
ZINC36242168
   30    32     0     0     0
SMALL
USER_CHARGES

@<TRIPOS>ATOM
      1 C1         -0.0161    1.3371    0.0094 C.2       1 <0>        -0.0016
      2 C2          1.2587    1.7711   -0.0004 C.2       1 <0>         0.0287
      3 N1          2.0558    0.6583   -0.0140 N.pl3     1 <0>        -0.4019
      4 C3          1.2397   -0.4176   -0.0120 C.cat     1 <0>         0.2900
      5 N2          0.0021   -0.0041    0.0020 N.pl3     1 <0>        -0.4789
      6 C4          3.5206    0.6384   -0.0281 C.3       1 <0>         0.2016
      7 C5          4.0364    0.6240    1.3878 C.2       1 <0>        -0.3607
      8 C6          4.3124   -0.4575    2.1640 C.2       1 <0>        -0.0812
      9 C7          4.7823   -0.2736    3.4423 C.2       1 <0>        -0.1637
     10 C8          4.9311    1.0708    3.8058 C.2       1 <0>        -0.0722
     11 S1          4.4087    1.9434    2.3651 S.3       1 <0>         0.2126
     12 C9          5.4085    1.5031    5.0447 C.2       1 <0>        -0.1136
     13 C10         6.0190    0.5672    5.8352 C.2       1 <0>        -0.0220
     14 C11         6.2565   -0.8343    5.3530 C.3       1 <0>        -0.0953
     15 C12         5.1319   -1.3502    4.4569 C.3       1 <0>        -0.0470
     16 C13         6.4342    0.9276    7.1306 C.2       1 <0>         0.4376
     17 O1          6.2315    2.1678    7.5745 O.co2     1 <0>        -0.6861
     18 O2          7.0302    0.0286    7.9136 O.co2     1 <0>        -0.6855
     19 H1         -0.8984    1.9597    0.0252 H         1 <0>         0.2217
     20 H2          1.5887    2.7994    0.0016 H         1 <0>         0.2205
     21 H3          1.5585   -1.4495   -0.0206 H         1 <0>         0.2565
     22 H4          3.8668   -0.2536   -0.5501 H         1 <0>         0.1320
     23 H5          3.8911    1.5261   -0.5408 H         1 <0>         0.1302
     24 H6          4.1630   -1.4552    1.7784 H         1 <0>         0.1259
     25 H7          5.3013    2.5291    5.3645 H         1 <0>         0.1491
     26 H8          7.1918   -0.8599    4.7939 H         1 <0>         0.0814
     27 H9          6.3476   -1.4926    6.2170 H         1 <0>         0.1033
     28 H10         4.2559   -1.5783    5.0642 H         1 <0>         0.0759
     29 H11         5.4626   -2.2491    3.9367 H         1 <0>         0.0802
     30 H12        -0.7811   -0.5763    0.0069 H         1 <0>         0.4625
@<TRIPOS>BOND
     1    1    5 1
     2    1    2 2
     3    1   19 1
     4    2    3 1
     5    2   20 1
     6    3    4 1
     7    3    6 1
     8    4    5 2
     9    4   21 1
    10    5   30 1
    11    6    7 1
    12    6   22 1
    13    6   23 1
    14    7   11 1
    15    7    8 2
    16    8    9 1
    17    8   24 1
    18    9   15 1
    19    9   10 2
    20   10   11 1
    21   10   12 1
    22   12   13 2
    23   12   25 1
    24   13   14 1
    25   13   16 1
    26   14   15 1
    27   14   26 1
    28   14   27 1
    29   15   28 1
    30   15   29 1
    31   16   17 2
    32   16   18 1
@<TRIPOS>MOLECULE
ZINC34677951
   29    30     0     0     0
SMALL
USER_CHARGES

@<TRIPOS>ATOM
      1 C1         -0.0169    1.3948    0.0097 C.ar      1 <0>        -0.0463
      2 C2          1.1668    2.0970    0.0022 C.ar      1 <0>        -0.1552
      3 C3          2.3803    1.4181   -0.0135 C.ar      1 <0>         0.0971
      4 C4          2.4040    0.0278   -0.0217 C.ar      1 <0>        -0.2198
      5 C5          1.2254   -0.6827   -0.0142 C.ar      1 <0>        -0.0498
      6 C6          0.0021   -0.0041    0.0020 C.ar      1 <0>        -0.1512
      7 C7         -1.2616   -0.7598    0.0105 C.2       1 <0>         0.5174
      8 O1         -2.3302   -0.1645    0.0243 O.co2     1 <0>        -0.6812
      9 O2         -1.2429   -1.9830    0.0038 O.co2     1 <0>        -0.6851
     10 O3          3.5446    2.1144   -0.0213 O.3       1 <0>        -0.3112
     11 C8          4.7548    1.3547   -0.0374 C.3       1 <0>         0.0427
     12 C9          5.9536    2.3052   -0.0442 C.3       1 <0>         0.0945
     13 N1          7.1943    1.5263   -0.0607 N.pl3     1 <0>        -0.4047
     14 C10         7.8899    1.0834    1.0318 C.2       1 <0>         0.0286
     15 C11         8.9608    0.4126    0.5663 C.2       1 <0>         0.0024
     16 N2          8.9202    0.4450   -0.7740 N.pl3     1 <0>        -0.4764
     17 C12         7.8621    1.1061   -1.1567 C.cat     1 <0>         0.2925
     18 H1         -0.9589    1.9228    0.0260 H         1 <0>         0.1400
     19 H2          1.1531    3.1769    0.0081 H         1 <0>         0.1266
     20 H3          3.3488   -0.4952   -0.0342 H         1 <0>         0.1136
     21 H4          1.2447   -1.7625   -0.0213 H         1 <0>         0.1323
     22 H5          4.7981    0.7215    0.8488 H         1 <0>         0.0747
     23 H6          4.7804    0.7311   -0.9311 H         1 <0>         0.0726
     24 H7          5.9103    2.9383   -0.9305 H         1 <0>         0.1335
     25 H8          5.9280    2.9288    0.8494 H         1 <0>         0.1361
     26 H9          7.6300    1.2419    2.0681 H         1 <0>         0.2246
     27 H10         9.7194   -0.0673    1.1668 H         1 <0>         0.2245
     28 H11         7.5703    1.2890   -2.1803 H         1 <0>         0.2619
     29 H12         9.5724    0.0380   -1.3655 H         1 <0>         0.4652
@<TRIPOS>BOND
     1    1    6 ar
     2    1    2 ar
     3    1   18 1
     4    2    3 ar
     5    2   19 1
     6    3    4 ar
     7    3   10 1
     8    4    5 ar
     9    4   20 1
    10    5    6 ar
    11    5   21 1
    12    6    7 1
    13    7    8 2
    14    7    9 1
    15   10   11 1
    16   11   12 1
    17   11   22 1
    18   11   23 1
    19   12   13 1
    20   12   24 1
    21   12   25 1
    22   13   17 1
    23   13   14 1
    24   14   15 2
    25   14   26 1
    26   15   16 1
    27   15   27 1
    28   16   17 2
    29   16   29 1
    30   17   28 1
@<TRIPOS>MOLECULE
ZINC34677951
   28    29     0     0     0
SMALL
USER_CHARGES

@<TRIPOS>ATOM
      1 C1         -0.0169    1.3948    0.0097 C.ar      1 <0>        -0.0483
      2 C2          1.1668    2.0970    0.0022 C.ar      1 <0>        -0.1637
      3 C3          2.3803    1.4181   -0.0135 C.ar      1 <0>         0.1099
      4 C4          2.4040    0.0278   -0.0217 C.ar      1 <0>        -0.2213
      5 C5          1.2254   -0.6827   -0.0142 C.ar      1 <0>        -0.0479
      6 C6          0.0021   -0.0041    0.0020 C.ar      1 <0>        -0.1634
      7 C7         -1.2616   -0.7598    0.0105 C.2       1 <0>         0.5212
      8 O1         -2.3302   -0.1645    0.0243 O.co2     1 <0>        -0.6883
      9 O2         -1.2429   -1.9830    0.0038 O.co2     1 <0>        -0.6890
     10 O3          3.5446    2.1144   -0.0213 O.3       1 <0>        -0.3166
     11 C8          4.7548    1.3547   -0.0374 C.3       1 <0>         0.0472
     12 C9          5.9536    2.3052   -0.0442 C.3       1 <0>         0.1088
     13 N1          7.1943    1.5263   -0.0607 N.pl3     1 <0>        -0.4568
     14 C10         7.8902    1.0838    1.0318 C.2       1 <0>        -0.0549
     15 C11         8.9610    0.4129    0.5663 C.2       1 <0>        -0.0298
     16 N2          8.9201    0.4448   -0.7740 N.2       1 <0>        -0.4952
     17 C12         7.8619    1.1057   -1.1567 C.2       1 <0>         0.1843
     18 H1         -0.9589    1.9228    0.0260 H         1 <0>         0.1354
     19 H2          1.1531    3.1769    0.0081 H         1 <0>         0.1238
     20 H3          3.3488   -0.4952   -0.0342 H         1 <0>         0.1177
     21 H4          1.2447   -1.7625   -0.0213 H         1 <0>         0.1299
     22 H5          4.7981    0.7215    0.8488 H         1 <0>         0.0675
     23 H6          4.7804    0.7311   -0.9311 H         1 <0>         0.0682
     24 H7          5.9103    2.9383   -0.9305 H         1 <0>         0.1065
     25 H8          5.9280    2.9288    0.8494 H         1 <0>         0.1040
     26 H9          7.6305    1.2426    2.0681 H         1 <0>         0.1752
     27 H10         9.7197   -0.0668    1.1668 H         1 <0>         0.1701
     28 H11         7.5698    1.2883   -2.1803 H         1 <0>         0.2057
@<TRIPOS>BOND
     1    1    6 ar
     2    1    2 ar
     3    1   18 1
     4    2    3 ar
     5    2   19 1
     6    3    4 ar
     7    3   10 1
     8    4    5 ar
     9    4   20 1
    10    5    6 ar
    11    5   21 1
    12    6    7 1
    13    7    8 2
    14    7    9 1
    15   10   11 1
    16   11   12 1
    17   11   22 1
    18   11   23 1
    19   12   13 1
    20   12   24 1
    21   12   25 1
    22   13   17 1
    23   13   14 1
    24   14   15 2
    25   14   26 1
    26   15   16 1
    27   15   27 1
    28   16   17 2
    29   17   28 1
@<TRIPOS>MOLECULE
ZINC13741955
   65    67     0     0     0
SMALL
USER_CHARGES

@<TRIPOS>ATOM
      1 C1         -0.0063    1.5352   -0.0203 C.3       1 <0>        -0.1508
      2 C2          0.0098    0.0052   -0.0204 C.3       1 <0>        -0.1140
      3 C3          0.7280   -0.4972   -1.2745 C.3       1 <0>        -0.0644
      4 C4          0.7439   -2.0041   -1.2746 C.ar      1 <0>        -0.1560
      5 C5          1.7927   -2.6877   -0.6758 C.ar      1 <0>         0.1821
      6 C6          1.8134   -4.0799   -0.6718 C.ar      1 <0>        -0.2305
      7 C7          0.8037   -4.7874   -1.2566 C.ar      1 <0>        -0.0220
      8 C8         -0.2634   -4.1141   -1.8665 C.ar      1 <0>        -0.2412
      9 C9         -0.2903   -2.7076   -1.8667 C.ar      1 <0>         0.2093
     10 O1         -1.3206   -2.0451   -2.4485 O.3       1 <0>        -0.4711
     11 C10        -1.3482   -4.8713   -2.4958 C.2       1 <0>         0.3944
     12 O2         -2.3180   -4.2898   -2.9358 O.2       1 <0>        -0.4493
     13 C11        -1.2596   -6.3723   -2.5967 C.3       1 <0>        -0.2017
     14 O3          2.8032   -1.9960   -0.0918 O.3       1 <0>        -0.2873
     15 C12         3.8518   -2.7605    0.5065 C.3       1 <0>         0.0273
     16 C13         4.8925   -1.8147    1.1092 C.3       1 <0>         0.1148
     17 H1          5.2418   -1.1229    0.3428 H         1 <0>         0.1230
     18 C14         6.0749   -2.6284    1.6390 C.3       1 <0>         0.0288
     19 O4          7.0974   -1.7408    2.0959 O.3       1 <0>        -0.2875
     20 C15         8.2235   -2.3057    2.6004 C.ar      1 <0>         0.1810
     21 C16         8.3377   -3.6949    2.6463 C.ar      1 <0>        -0.2442
     22 C17         9.4629   -4.2772    3.1550 C.ar      1 <0>         0.0033
     23 C18        10.5016   -3.4754    3.6298 C.ar      1 <0>        -0.2603
     24 C19        11.7278   -4.0620    4.2007 C.2       1 <0>         0.4243
     25 O5         11.9934   -5.2450    4.0816 O.2       1 <0>        -0.4839
     26 C20        12.6146   -3.1306    4.9247 C.2       1 <0>        -0.3009
     27 C21        12.3913   -1.8007    4.7940 C.2       1 <0>         0.0963
     28 O6         11.4113   -1.3019    4.0267 O.3       1 <0>        -0.1917
     29 C22        10.4007   -2.0719    3.5813 C.ar      1 <0>         0.1887
     30 C23         9.2493   -1.4971    3.0588 C.ar      1 <0>        -0.1397
     31 C24         9.1147    0.0026    2.9964 C.3       1 <0>        -0.0644
     32 C25         8.4794    0.5120    4.2917 C.3       1 <0>        -0.1138
     33 C26         8.3428    2.0345    4.2283 C.3       1 <0>        -0.1483
     34 C27        13.2654   -0.8591    5.5293 C.2       1 <0>         0.5391
     35 O7         14.1662   -1.2865    6.2363 O.co2     1 <0>        -0.6427
     36 O8         13.0863    0.3459    5.4295 O.co2     1 <0>        -0.6456
     37 O9          4.3021   -1.0784    2.1822 O.3       1 <0>        -0.5360
     38 H2          1.0175    1.9093   -0.0272 H         1 <0>         0.0559
     39 H3         -0.5298    1.8931   -0.9068 H         1 <0>         0.0524
     40 H4         -0.5180    1.8931    0.8731 H         1 <0>         0.0540
     41 H5          0.5333   -0.3527    0.8661 H         1 <0>         0.0626
     42 H6         -1.0140   -0.3689   -0.0136 H         1 <0>         0.0615
     43 H7          0.2045   -0.1393   -2.1610 H         1 <0>         0.0714
     44 H8          1.7518   -0.1230   -1.2813 H         1 <0>         0.0780
     45 H9          2.6339   -4.6031   -0.2033 H         1 <0>         0.1365
     46 H10         0.8271   -5.8671   -1.2497 H         1 <0>         0.1409
     47 H11        -1.1829   -1.8484   -3.3852 H         1 <0>         0.3960
     48 H12        -0.3693   -6.7197   -2.0725 H         1 <0>         0.0810
     49 H13        -2.1450   -6.8197   -2.1449 H         1 <0>         0.0922
     50 H14        -1.2005   -6.6631   -3.6455 H         1 <0>         0.0943
     51 H15         3.4378   -3.3931    1.2916 H         1 <0>         0.0749
     52 H16         4.3243   -3.3849   -0.2518 H         1 <0>         0.0803
     53 H17         5.7426   -3.2562    2.4658 H         1 <0>         0.0729
     54 H18         6.4697   -3.2574    0.8412 H         1 <0>         0.0777
     55 H19         7.5321   -4.3128    2.2780 H         1 <0>         0.1327
     56 H20         9.5485   -5.3533    3.1900 H         1 <0>         0.1394
     57 H21        13.4200   -3.4993    5.5425 H         1 <0>         0.1665
     58 H22        10.1007    0.4511    2.8745 H         1 <0>         0.0816
     59 H23         8.4841    0.2759    2.1504 H         1 <0>         0.0754
     60 H24         7.4934    0.0635    4.4136 H         1 <0>         0.0581
     61 H25         9.1100    0.2387    5.1377 H         1 <0>         0.0637
     62 H26         9.3287    2.4830    4.1064 H         1 <0>         0.0584
     63 H27         7.7121    2.3079    3.3823 H         1 <0>         0.0505
     64 H28         7.8901    2.3974    5.1511 H         1 <0>         0.0511
     65 H29         3.9683   -1.6313    2.9018 H         1 <0>         0.3752
@<TRIPOS>BOND
     1    1    2 1
     2    1   38 1
     3    1   39 1
     4    1   40 1
     5    2    3 1
     6    2   41 1
     7    2   42 1
     8    3    4 1
     9    3   43 1
    10    3   44 1
    11    4    9 ar
    12    4    5 ar
    13    5    6 ar
    14    5   14 1
    15    6    7 ar
    16    6   45 1
    17    7    8 ar
    18    7   46 1
    19    8    9 ar
    20    8   11 1
    21    9   10 1
    22   10   47 1
    23   11   12 2
    24   11   13 1
    25   13   48 1
    26   13   49 1
    27   13   50 1
    28   14   15 1
    29   15   16 1
    30   15   51 1
    31   15   52 1
    32   16   17 1
    33   16   18 1
    34   16   37 1
    35   18   19 1
    36   18   53 1
    37   18   54 1
    38   19   20 1
    39   20   30 ar
    40   20   21 ar
    41   21   22 ar
    42   21   55 1
    43   22   23 ar
    44   22   56 1
    45   23   29 ar
    46   23   24 1
    47   24   25 2
    48   24   26 1
    49   26   27 2
    50   26   57 1
    51   27   28 1
    52   27   34 1
    53   28   29 1
    54   29   30 ar
    55   30   31 1
    56   31   32 1
    57   31   58 1
    58   31   59 1
    59   32   33 1
    60   32   60 1
    61   32   61 1
    62   33   62 1
    63   33   63 1
    64   33   64 1
    65   34   35 2
    66   34   36 1
    67   37   65 1
@<TRIPOS>MOLECULE
ZINC13741956
   65    67     0     0     0
SMALL
USER_CHARGES

@<TRIPOS>ATOM
      1 C1         -0.0063    1.5352   -0.0203 C.3       1 <0>        -0.1514
      2 C2          0.0098    0.0052   -0.0204 C.3       1 <0>        -0.1144
      3 C3          0.7280   -0.4972   -1.2745 C.3       1 <0>        -0.0652
      4 C4          0.7439   -2.0041   -1.2746 C.ar      1 <0>        -0.1559
      5 C5          1.7927   -2.6877   -0.6758 C.ar      1 <0>         0.1821
      6 C6          1.8134   -4.0799   -0.6718 C.ar      1 <0>        -0.2305
      7 C7          0.8037   -4.7874   -1.2566 C.ar      1 <0>        -0.0220
      8 C8         -0.2634   -4.1141   -1.8665 C.ar      1 <0>        -0.2412
      9 C9         -0.2903   -2.7076   -1.8667 C.ar      1 <0>         0.2093
     10 O1         -1.3206   -2.0451   -2.4485 O.3       1 <0>        -0.4711
     11 C10        -1.3482   -4.8713   -2.4958 C.2       1 <0>         0.3943
     12 O2         -2.3180   -4.2898   -2.9358 O.2       1 <0>        -0.4493
     13 C11        -1.2596   -6.3723   -2.5967 C.3       1 <0>        -0.2017
     14 O3          2.8032   -1.9960   -0.0918 O.3       1 <0>        -0.2873
     15 C12         3.8518   -2.7605    0.5065 C.3       1 <0>         0.0274
     16 C13         4.8925   -1.8147    1.1092 C.3       1 <0>         0.1145
     17 H1          4.4033   -1.1307    1.8027 H         1 <0>         0.1236
     18 C14         5.9497   -2.6296    1.8571 C.3       1 <0>         0.0288
     19 O4          6.8555   -1.7430    2.5171 O.3       1 <0>        -0.2874
     20 C15         7.8612   -2.3091    3.2311 C.ar      1 <0>         0.1810
     21 C16         7.9715   -3.6982    3.2862 C.ar      1 <0>        -0.2442
     22 C17         8.9756   -4.2817    4.0040 C.ar      1 <0>         0.0034
     23 C18         9.8942   -3.4811    4.6841 C.ar      1 <0>        -0.2603
     24 C19        10.9848   -4.0691    5.4830 C.2       1 <0>         0.4242
     25 O5         11.2752   -5.2500    5.4086 O.2       1 <0>        -0.4840
     26 C20        11.7041   -3.1419    6.3780 C.2       1 <0>        -0.3009
     27 C21        11.5042   -1.8116    6.2176 C.2       1 <0>         0.0962
     28 O6         10.6944   -1.3086    5.2746 O.3       1 <0>        -0.1917
     29 C22         9.7974   -2.0775    4.6292 C.ar      1 <0>         0.1887
     30 C23         8.7704   -1.5015    3.8926 C.ar      1 <0>        -0.1396
     31 C24         8.6429   -0.0018    3.8183 C.3       1 <0>        -0.0654
     32 C25         7.7589    0.4924    4.9652 C.3       1 <0>        -0.1141
     33 C26         7.6294    2.0150    4.8897 C.3       1 <0>        -0.1489
     34 C27        12.2087   -0.8744    7.1213 C.2       1 <0>         0.5392
     35 O7         12.9525   -1.3058    7.9900 O.co2     1 <0>        -0.6427
     36 O8         12.0466    0.3309    6.9987 O.co2     1 <0>        -0.6456
     37 O9          5.5184   -1.0671    0.0645 O.3       1 <0>        -0.5369
     38 H2          1.0175    1.9093   -0.0272 H         1 <0>         0.0559
     39 H3         -0.5298    1.8931   -0.9068 H         1 <0>         0.0532
     40 H4         -0.5180    1.8931    0.8731 H         1 <0>         0.0542
     41 H5          0.5333   -0.3527    0.8661 H         1 <0>         0.0609
     42 H6         -1.0140   -0.3689   -0.0136 H         1 <0>         0.0622
     43 H7          0.2045   -0.1393   -2.1610 H         1 <0>         0.0717
     44 H8          1.7518   -0.1230   -1.2813 H         1 <0>         0.0796
     45 H9          2.6339   -4.6031   -0.2033 H         1 <0>         0.1365
     46 H10         0.8271   -5.8671   -1.2497 H         1 <0>         0.1409
     47 H11        -1.1829   -1.8484   -3.3852 H         1 <0>         0.3959
     48 H12        -0.3693   -6.7197   -2.0725 H         1 <0>         0.0810
     49 H13        -2.1450   -6.8197   -2.1449 H         1 <0>         0.0923
     50 H14        -1.2005   -6.6631   -3.6455 H         1 <0>         0.0942
     51 H15         3.4378   -3.3931    1.2916 H         1 <0>         0.0805
     52 H16         4.3243   -3.3849   -0.2518 H         1 <0>         0.0747
     53 H17         5.4623   -3.2667    2.5951 H         1 <0>         0.0781
     54 H18         6.4993   -3.2491    1.1484 H         1 <0>         0.0727
     55 H19         7.2590   -4.3153    2.7588 H         1 <0>         0.1327
     56 H20         9.0583   -5.3577    4.0456 H         1 <0>         0.1394
     57 H21        12.3719   -3.5141    7.1409 H         1 <0>         0.1665
     58 H22         9.6309    0.4513    3.8999 H         1 <0>         0.0819
     59 H23         8.1924    0.2778    2.8659 H         1 <0>         0.0771
     60 H24         6.7709    0.0392    4.8836 H         1 <0>         0.0562
     61 H25         8.2094    0.2127    5.9175 H         1 <0>         0.0644
     62 H26         8.6174    2.4681    4.9713 H         1 <0>         0.0592
     63 H27         7.1790    2.2946    3.9373 H         1 <0>         0.0507
     64 H28         6.9997    2.3670    5.7068 H         1 <0>         0.0511
     65 H29         5.9743   -1.6127   -0.5908 H         1 <0>         0.3749
@<TRIPOS>BOND
     1    1    2 1
     2    1   38 1
     3    1   39 1
     4    1   40 1
     5    2    3 1
     6    2   41 1
     7    2   42 1
     8    3    4 1
     9    3   43 1
    10    3   44 1
    11    4    9 ar
    12    4    5 ar
    13    5    6 ar
    14    5   14 1
    15    6    7 ar
    16    6   45 1
    17    7    8 ar
    18    7   46 1
    19    8    9 ar
    20    8   11 1
    21    9   10 1
    22   10   47 1
    23   11   12 2
    24   11   13 1
    25   13   48 1
    26   13   49 1
    27   13   50 1
    28   14   15 1
    29   15   16 1
    30   15   51 1
    31   15   52 1
    32   16   17 1
    33   16   18 1
    34   16   37 1
    35   18   19 1
    36   18   53 1
    37   18   54 1
    38   19   20 1
    39   20   30 ar
    40   20   21 ar
    41   21   22 ar
    42   21   55 1
    43   22   23 ar
    44   22   56 1
    45   23   29 ar
    46   23   24 1
    47   24   25 2
    48   24   26 1
    49   26   27 2
    50   26   57 1
    51   27   28 1
    52   27   34 1
    53   28   29 1
    54   29   30 ar
    55   30   31 1
    56   31   32 1
    57   31   58 1
    58   31   59 1
    59   32   33 1
    60   32   60 1
    61   32   61 1
    62   33   62 1
    63   33   63 1
    64   33   64 1
    65   34   35 2
    66   34   36 1
    67   37   65 1
@<TRIPOS>MOLECULE
ZINC13437583
   39    40     0     0     0
SMALL
USER_CHARGES

@<TRIPOS>ATOM
      1 C1         -0.0167    1.3791    0.0096 C.ar      1 <0>        -0.1208
      2 C2          1.1686    2.0923    0.0021 C.ar      1 <0>        -0.1177
      3 C3          2.3774    1.4266   -0.0134 C.ar      1 <0>        -0.1048
      4 C4          2.4024    0.0329   -0.0211 C.ar      1 <0>        -0.0333
      5 C5          1.2049   -0.6804   -0.0130 C.ar      1 <0>        -0.1100
      6 C6          0.0021   -0.0041    0.0020 C.ar      1 <0>        -0.1174
      7 C7          3.6982   -0.6881   -0.0382 C.2       1 <0>        -0.0832
      8 C8          4.5318   -0.5910    1.0041 C.2       1 <0>        -0.0930
      9 C9          4.1538    0.2510    2.1954 C.3       1 <0>        -0.1021
     10 C10         4.2252   -0.6001    3.4648 C.3       1 <0>        -0.1137
     11 C11         3.8414    0.2548    4.6743 C.3       1 <0>        -0.0918
     12 C12         3.9129   -0.5963    5.9437 C.3       1 <0>        -0.1836
     13 C13         3.5349    0.2457    7.1350 C.2       1 <0>         0.4876
     14 O1          3.2360    1.4179    6.9828 O.co2     1 <0>        -0.6997
     15 O2          3.5279   -0.2452    8.2509 O.co2     1 <0>        -0.7095
     16 C14         4.0702   -1.5167   -1.2105 C.ar      1 <0>        -0.0806
     17 C15         5.1678   -1.1717   -2.0048 C.ar      1 <0>        -0.0669
     18 C16         5.4739   -1.9779   -3.0874 C.ar      1 <0>        -0.1709
     19 C17         4.6913   -3.0887   -3.3464 C.ar      1 <0>         0.0904
     20 N1          3.6615   -3.3891   -2.5790 N.ar      1 <0>        -0.4833
     21 C18         3.3349   -2.6551   -1.5350 C.ar      1 <0>         0.1096
     22 H1         -0.9603    1.9042    0.0260 H         1 <0>         0.1206
     23 H2          1.1480    3.1720    0.0081 H         1 <0>         0.1229
     24 H3          3.3022    1.9844   -0.0199 H         1 <0>         0.1223
     25 H4          1.2184   -1.7603   -0.0192 H         1 <0>         0.1203
     26 H5         -0.9264   -0.5557    0.0079 H         1 <0>         0.1221
     27 H6          5.4754   -1.1161    0.9916 H         1 <0>         0.1166
     28 H7          4.8443    1.0900    2.2811 H         1 <0>         0.0768
     29 H8          3.1389    0.6274    2.0669 H         1 <0>         0.0776
     30 H9          3.5347   -1.4391    3.3791 H         1 <0>         0.0561
     31 H10         5.2401   -0.9765    3.5933 H         1 <0>         0.0560
     32 H11         4.5320    1.0938    4.7600 H         1 <0>         0.0581
     33 H12         2.8266    0.6312    4.5458 H         1 <0>         0.0581
     34 H13         3.2223   -1.4353    5.8579 H         1 <0>         0.0542
     35 H14         4.9277   -0.9727    6.0721 H         1 <0>         0.0542
     36 H15         5.7616   -0.2982   -1.7796 H         1 <0>         0.1349
     37 H16         6.3144   -1.7421   -3.7232 H         1 <0>         0.1351
     38 H17         4.9271   -3.7198   -4.1905 H         1 <0>         0.1540
     39 H18         2.4872   -2.9359   -0.9275 H         1 <0>         0.1547
@<TRIPOS>BOND
     1    1    6 ar
     2    1    2 ar
     3    1   22 1
     4    2    3 ar
     5    2   23 1
     6    3    4 ar
     7    3   24 1
     8    4    5 ar
     9    4    7 1
    10    5    6 ar
    11    5   25 1
    12    6   26 1
    13    7    8 2
    14    7   16 1
    15    8    9 1
    16    8   27 1
    17    9   10 1
    18    9   28 1
    19    9   29 1
    20   10   11 1
    21   10   30 1
    22   10   31 1
    23   11   12 1
    24   11   32 1
    25   11   33 1
    26   12   13 1
    27   12   34 1
    28   12   35 1
    29   13   14 2
    30   13   15 1
    31   16   21 ar
    32   16   17 ar
    33   17   18 ar
    34   17   36 1
    35   18   19 ar
    36   18   37 1
    37   19   20 ar
    38   19   38 1
    39   20   21 ar
    40   21   39 1
@<TRIPOS>MOLECULE
ZINC01538600
   57    59     0     0     0
SMALL
USER_CHARGES

@<TRIPOS>ATOM
      1 C1         -0.0167    1.3786    0.0096 C.ar      1 <0>        -0.1702
      2 C2          1.1814    2.0722    0.0019 C.ar      1 <0>        -0.0662
      3 C3          2.3715    1.3394   -0.0134 C.ar      1 <0>        -0.0796
      4 C4          2.3056   -0.0530   -0.0202 C.ar      1 <0>         0.1113
      5 N1          1.1415   -0.6689   -0.0129 N.ar      1 <0>        -0.4859
      6 C5          0.0021   -0.0041    0.0020 C.ar      1 <0>         0.0893
      7 C6          3.6829    2.0318   -0.0227 C.2       1 <0>        -0.0926
      8 C7          4.0561    2.7721    1.0278 C.2       1 <0>        -0.0835
      9 C8          5.3887    3.4757    1.0184 C.3       1 <0>        -0.1050
     10 C9          5.1789    4.9688    1.2785 C.3       1 <0>        -0.0855
     11 C10         6.5319    5.6832    1.2689 C.3       1 <0>        -0.1818
     12 C11         6.3252    7.1538    1.5251 C.2       1 <0>         0.4884
     13 O1          5.2001    7.5901    1.6992 O.co2     1 <0>        -0.6994
     14 O2          7.2831    7.9073    1.5582 O.co2     1 <0>        -0.7081
     15 C12         4.5806    1.9040   -1.1961 C.ar      1 <0>        -0.0262
     16 C13         4.1976    2.4266   -2.4302 C.ar      1 <0>        -0.1015
     17 C14         5.0370    2.3046   -3.5188 C.ar      1 <0>        -0.1101
     18 C15         6.2566    1.6652   -3.3868 C.ar      1 <0>        -0.0911
     19 C16         6.6419    1.1445   -2.1645 C.ar      1 <0>        -0.1123
     20 C17         5.8131    1.2657   -1.0677 C.ar      1 <0>        -0.1037
     21 C18         7.1686    1.5348   -4.5794 C.3       1 <0>        -0.0819
     22 C19         8.0995    2.7472   -4.6445 C.3       1 <0>         0.1156
     23 N2          8.9861    2.6204   -5.8039 N.pl3     1 <0>        -1.1159
     24 S1          9.8365    3.9349   -6.3436 S.o2      1 <0>         2.6966
     25 O3         10.6134    3.4908   -7.4474 O.2       1 <0>        -0.9582
     26 O4          8.9073    5.0050   -6.4474 O.2       1 <0>        -0.9487
     27 C20        10.9740    4.3772   -5.0727 C.ar      1 <0>        -0.6793
     28 C21        10.5980    5.2743   -4.0904 C.ar      1 <0>        -0.0049
     29 C22        11.4898    5.6216   -3.0932 C.ar      1 <0>        -0.1266
     30 C23        12.7591    5.0712   -3.0783 C.ar      1 <0>         0.0192
     31 C24        13.1348    4.1735   -4.0617 C.ar      1 <0>        -0.1344
     32 C25        12.2402    3.8227   -5.0551 C.ar      1 <0>        -0.0086
     33 Cl1        13.8800    5.5074   -1.8265 Cl        1 <0>        -0.0520
     34 H1         -0.9558    1.9116    0.0259 H         1 <0>         0.1351
     35 H2          1.1961    3.1521    0.0072 H         1 <0>         0.1373
     36 H3          3.2173   -0.6319   -0.0321 H         1 <0>         0.1534
     37 H4         -0.9308   -0.5483    0.0080 H         1 <0>         0.1530
     38 H5          3.4024    2.8652    1.8824 H         1 <0>         0.1170
     39 H6          6.0261    3.0573    1.7973 H         1 <0>         0.0716
     40 H7          5.8647    3.3394    0.0473 H         1 <0>         0.0726
     41 H8          4.5416    5.3872    0.4995 H         1 <0>         0.0594
     42 H9          4.7030    5.1051    2.2495 H         1 <0>         0.0592
     43 H10         7.1692    5.2647    2.0478 H         1 <0>         0.0545
     44 H11         7.0078    5.5469    0.2978 H         1 <0>         0.0543
     45 H12         3.2455    2.9258   -2.5344 H         1 <0>         0.1211
     46 H13         4.7412    2.7089   -4.4755 H         1 <0>         0.1233
     47 H14         7.5950    0.6460   -2.0674 H         1 <0>         0.1222
     48 H15         6.1171    0.8631   -0.1128 H         1 <0>         0.1240
     49 H16         7.7623    0.6255   -4.4851 H         1 <0>         0.0800
     50 H17         6.5714    1.4859   -5.4899 H         1 <0>         0.0818
     51 H18         7.5059    3.6565   -4.7388 H         1 <0>         0.0867
     52 H19         8.6967    2.7960   -3.7340 H         1 <0>         0.0708
     53 H20         9.0751    1.7665   -6.2553 H         1 <0>         0.4193
     54 H21         9.6073    5.7041   -4.1024 H         1 <0>         0.1529
     55 H22        11.1961    6.3227   -2.3261 H         1 <0>         0.1508
     56 H23        14.1256    3.7438   -4.0507 H         1 <0>         0.1434
     57 H24        12.5318    3.1182   -5.8201 H         1 <0>         0.1487
@<TRIPOS>BOND
     1    1    6 ar
     2    1    2 ar
     3    1   34 1
     4    2    3 ar
     5    2   35 1
     6    3    4 ar
     7    3    7 1
     8    4    5 ar
     9    4   36 1
    10    5    6 ar
    11    6   37 1
    12    7    8 2
    13    7   15 1
    14    8    9 1
    15    8   38 1
    16    9   10 1
    17    9   39 1
    18    9   40 1
    19   10   11 1
    20   10   41 1
    21   10   42 1
    22   11   12 1
    23   11   43 1
    24   11   44 1
    25   12   13 2
    26   12   14 1
    27   15   20 ar
    28   15   16 ar
    29   16   17 ar
    30   16   45 1
    31   17   18 ar
    32   17   46 1
    33   18   19 ar
    34   18   21 1
    35   19   20 ar
    36   19   47 1
    37   20   48 1
    38   21   22 1
    39   21   49 1
    40   21   50 1
    41   22   23 1
    42   22   51 1
    43   22   52 1
    44   23   24 1
    45   23   53 1
    46   24   25 2
    47   24   26 2
    48   24   27 1
    49   27   32 ar
    50   27   28 ar
    51   28   29 ar
    52   28   54 1
    53   29   30 ar
    54   29   55 1
    55   30   31 ar
    56   30   33 1
    57   31   32 ar
    58   31   56 1
    59   32   57 1
@<TRIPOS>MOLECULE
ZINC01536934
   42    43     0     0     0
SMALL
USER_CHARGES
5-[3-pyridyl-[3-(trifluoromethyl)phenyl]-methylene]aminooxypentanoic acid
@<TRIPOS>ATOM
      1 C1          0.6493    1.8443   -1.1875 C.ar      1 <0>        -0.1217
      2 C2          0.6891    3.2181   -1.0616 C.ar      1 <0>        -0.0667
      3 C3         -0.1086    3.8514   -0.1093 C.ar      1 <0>        -0.0902
      4 C4         -0.9425    3.0913    0.7107 C.ar      1 <0>        -0.0234
      5 C5         -0.9771    1.7191    0.5721 C.ar      1 <0>        -0.1825
      6 C6         -0.1793    1.0959   -0.3712 C.ar      1 <0>        -0.0583
      7 C7         -1.8817    0.8968    1.4533 C.3       1 <0>         0.5084
      8 F1         -1.7400   -0.4575    1.1326 F         1 <0>        -0.1775
      9 F2         -1.5350    1.0973    2.7938 F         1 <0>        -0.1759
     10 F3         -3.2099    1.2873    1.2518 F         1 <0>        -0.1688
     11 C8         -0.0702    5.3258    0.0314 C.2       1 <0>         0.2048
     12 N1         -1.1644    5.9842    0.2847 N.2       1 <0>        -0.3140
     13 O1         -2.4090    5.3091    0.3024 O.3       1 <0>        -0.2193
     14 C9         -3.5243    6.1538    0.5936 C.3       1 <0>         0.0704
     15 C10        -4.8090    5.3228    0.5863 C.3       1 <0>        -0.1153
     16 C11        -6.0031    6.2271    0.8981 C.3       1 <0>        -0.0929
     17 C12        -7.2877    5.3961    0.8909 C.3       1 <0>        -0.1566
     18 C13        -8.4639    6.2868    1.1979 C.2       1 <0>         0.4583
     19 O2         -8.2923    7.4653    1.4017 O.co2     1 <0>        -0.6423
     20 C14         1.2134    6.0509   -0.1163 C.ar      1 <0>        -0.0950
     21 C15         1.2326    7.4439   -0.2425 C.ar      1 <0>        -0.0354
     22 C16         2.4574    8.0736   -0.3779 C.ar      1 <0>        -0.1727
     23 C17         3.6126    7.3126   -0.3841 C.ar      1 <0>         0.1106
     24 N2          3.5635    6.0001   -0.2632 N.ar      1 <0>        -0.4820
     25 C18         2.4223    5.3566   -0.1261 C.ar      1 <0>         0.1254
     26 H1          1.2667    1.3527   -1.9248 H         1 <0>         0.1415
     27 H2          1.3364    3.8014   -1.6996 H         1 <0>         0.1381
     28 H3         -1.5625    3.5763    1.4501 H         1 <0>         0.1418
     29 H4         -0.2070    0.0211   -0.4734 H         1 <0>         0.1423
     30 H5         -3.3902    6.6069    1.5758 H         1 <0>         0.0604
     31 H6         -3.5939    6.9369   -0.1614 H         1 <0>         0.0607
     32 H7         -4.9430    4.8696   -0.3959 H         1 <0>         0.0682
     33 H8         -4.7394    4.5397    1.3413 H         1 <0>         0.0680
     34 H9         -5.8690    6.6802    1.8803 H         1 <0>         0.0636
     35 H10        -6.0727    7.0102    0.1431 H         1 <0>         0.0636
     36 H11        -7.4218    4.9430   -0.0914 H         1 <0>         0.0641
     37 H12        -7.2181    4.6130    1.6458 H         1 <0>         0.0644
     38 H13         0.3150    8.0135   -0.2340 H         1 <0>         0.1463
     39 H14         2.5108    9.1477   -0.4772 H         1 <0>         0.1426
     40 H15         4.5701    7.8010   -0.4899 H         1 <0>         0.1608
     41 H16         2.4229    4.2814   -0.0248 H         1 <0>         0.1634
     42 O3         -9.7022    5.7709    1.2451 O.co2     1 <0>        -0.7770
@<TRIPOS>BOND
     1    1    6 ar
     2    1    2 ar
     3    1   26 1
     4    2    3 ar
     5    2   27 1
     6    3    4 ar
     7    3   11 1
     8    4    5 ar
     9    4   28 1
    10    5    6 ar
    11    5    7 1
    12    6   29 1
    13    7    8 1
    14    7    9 1
    15    7   10 1
    16   11   12 2
    17   11   20 1
    18   12   13 1
    19   13   14 1
    20   14   15 1
    21   14   30 1
    22   14   31 1
    23   15   16 1
    24   15   32 1
    25   15   33 1
    26   16   17 1
    27   16   34 1
    28   16   35 1
    29   17   18 1
    30   17   36 1
    31   17   37 1
    32   18   19 2
    33   18   42 1
    34   20   25 ar
    35   20   21 ar
    36   21   22 ar
    37   21   38 1
    38   22   23 ar
    39   22   39 1
    40   23   24 ar
    41   23   40 1
    42   24   25 ar
    43   25   41 1
@<TRIPOS>MOLECULE
ZINC20253728
   27    28     0     0     0
SMALL
USER_CHARGES

@<TRIPOS>ATOM
      1 C1         -0.0167    1.3783    0.0096 C.ar      1 <0>        -0.0770
      2 C2          1.1663    2.0888    0.0021 C.ar      1 <0>        -0.1044
      3 C3          2.3868    1.4109   -0.0131 C.ar      1 <0>         0.0146
      4 C4          2.4038    0.0152   -0.0207 C.ar      1 <0>        -0.1022
      5 C5          1.2109   -0.6872   -0.0131 C.ar      1 <0>         0.1296
      6 C6          0.0021   -0.0041    0.0020 C.ar      1 <0>        -0.1783
      7 O1          1.2230   -2.0462   -0.0205 O.3       1 <0>        -0.3082
      8 C7         -0.0444   -2.7063   -0.0119 C.3       1 <0>         0.0446
      9 C8          0.1694   -4.2212   -0.0220 C.3       1 <0>         0.1085
     10 N1         -1.1299   -4.8979   -0.0133 N.pl3     1 <0>        -0.4609
     11 C9         -1.8423   -5.2741    1.0934 C.2       1 <0>        -0.0569
     12 C10        -2.9713   -5.8590    0.6497 C.2       1 <0>        -0.0247
     13 N2         -2.9488   -5.8406   -0.6913 N.2       1 <0>        -0.4913
     14 C11        -1.8511   -5.2619   -1.0954 C.2       1 <0>         0.1847
     15 C12         3.6164    2.1447   -0.0214 C.1       1 <0>         0.2502
     16 N3          4.5919    2.7268   -0.0279 N.1       1 <0>        -0.4021
     17 H1         -0.9601    1.9037    0.0260 H         1 <0>         0.1396
     18 H2          1.1480    3.1687    0.0077 H         1 <0>         0.1376
     19 H3          3.3446   -0.5150   -0.0329 H         1 <0>         0.1433
     20 H4         -0.9270   -0.5547    0.0083 H         1 <0>         0.1351
     21 H5         -0.5955   -2.4232    0.8849 H         1 <0>         0.0736
     22 H6         -0.6125   -2.4137   -0.8950 H         1 <0>         0.0743
     23 H7          0.7205   -4.5044   -0.9188 H         1 <0>         0.1088
     24 H8          0.7375   -4.5139    0.8610 H         1 <0>         0.1063
     25 H9         -1.5542   -5.1298    2.1242 H         1 <0>         0.1764
     26 H10        -3.7570   -6.2708    1.2656 H         1 <0>         0.1720
     27 H11        -1.5656   -5.1027   -2.1247 H         1 <0>         0.2065
@<TRIPOS>BOND
     1    1    6 ar
     2    1    2 ar
     3    1   17 1
     4    2    3 ar
     5    2   18 1
     6    3    4 ar
     7    3   15 1
     8    4    5 ar
     9    4   19 1
    10    5    6 ar
    11    5    7 1
    12    6   20 1
    13    7    8 1
    14    8    9 1
    15    8   21 1
    16    8   22 1
    17    9   10 1
    18    9   23 1
    19    9   24 1
    20   10   14 1
    21   10   11 1
    22   11   12 2
    23   11   25 1
    24   12   13 1
    25   12   26 1
    26   13   14 2
    27   14   27 1
    28   15   16 3
@<TRIPOS>MOLECULE
ZINC20253728
   28    29     0     0     0
SMALL
USER_CHARGES

@<TRIPOS>ATOM
      1 C1         -0.0167    1.3783    0.0096 C.ar      1 <0>        -0.0763
      2 C2          1.1663    2.0888    0.0021 C.ar      1 <0>        -0.0964
      3 C3          2.3868    1.4109   -0.0131 C.ar      1 <0>         0.0240
      4 C4          2.4038    0.0152   -0.0207 C.ar      1 <0>        -0.0967
      5 C5          1.2109   -0.6872   -0.0131 C.ar      1 <0>         0.1200
      6 C6          0.0021   -0.0041    0.0020 C.ar      1 <0>        -0.1794
      7 O1          1.2230   -2.0462   -0.0205 O.3       1 <0>        -0.3038
      8 C7         -0.0444   -2.7063   -0.0119 C.3       1 <0>         0.0407
      9 C8          0.1694   -4.2212   -0.0220 C.3       1 <0>         0.0948
     10 N1         -1.1299   -4.8979   -0.0133 N.pl3     1 <0>        -0.4093
     11 C9         -1.8425   -5.2737    1.0934 C.2       1 <0>         0.0267
     12 C10        -2.9714   -5.8588    0.6497 C.2       1 <0>         0.0072
     13 N2         -2.9487   -5.8408   -0.6913 N.pl3     1 <0>        -0.4742
     14 C11        -1.8509   -5.2623   -1.0954 C.cat     1 <0>         0.2934
     15 C12         3.6164    2.1447   -0.0214 C.1       1 <0>         0.2401
     16 N3          4.5919    2.7268   -0.0279 N.1       1 <0>        -0.3869
     17 H1         -0.9601    1.9037    0.0260 H         1 <0>         0.1421
     18 H2          1.1480    3.1687    0.0077 H         1 <0>         0.1420
     19 H3          3.3446   -0.5150   -0.0329 H         1 <0>         0.1460
     20 H4         -0.9270   -0.5547    0.0083 H         1 <0>         0.1312
     21 H5         -0.5955   -2.4232    0.8849 H         1 <0>         0.0807
     22 H6         -0.6125   -2.4137   -0.8950 H         1 <0>         0.0785
     23 H7          0.7205   -4.5044   -0.9188 H         1 <0>         0.1356
     24 H8          0.7375   -4.5139    0.8610 H         1 <0>         0.1383
     25 H9         -1.5546   -5.1290    2.1242 H         1 <0>         0.2256
     26 H10        -3.7573   -6.2703    1.2656 H         1 <0>         0.2261
     27 H11        -1.5652   -5.1035   -2.1248 H         1 <0>         0.2626
     28 H12        -3.6407   -6.1981   -1.2694 H         1 <0>         0.4672
@<TRIPOS>BOND
     1    1    6 ar
     2    1    2 ar
     3    1   17 1
     4    2    3 ar
     5    2   18 1
     6    3    4 ar
     7    3   15 1
     8    4    5 ar
     9    4   19 1
    10    5    6 ar
    11    5    7 1
    12    6   20 1
    13    7    8 1
    14    8    9 1
    15    8   21 1
    16    8   22 1
    17    9   10 1
    18    9   23 1
    19    9   24 1
    20   10   14 1
    21   10   11 1
    22   11   12 2
    23   11   25 1
    24   12   13 1
    25   12   26 1
    26   13   14 2
    27   13   28 1
    28   14   27 1
    29   15   16 3
@<TRIPOS>MOLECULE
ZINC02019975
   39    40     0     0     0
SMALL
USER_CHARGES
7-phenyl-7-(3-pyridyl)hept-6-enoic acid
@<TRIPOS>ATOM
      1 C1          1.1767    1.7824    0.0004 C.ar      1 <0>        -0.1238
      2 C2         -0.0126    1.0758    0.0080 C.ar      1 <0>        -0.1191
      3 C3         -1.2177    1.7482    0.0173 C.ar      1 <0>        -0.1094
      4 C4         -1.2350    3.1420    0.0293 C.ar      1 <0>        -0.0343
      5 C5         -0.0335    3.8487    0.0212 C.ar      1 <0>        -0.1072
      6 C6          1.1656    3.1657    0.0070 C.ar      1 <0>        -0.1189
      7 C7         -2.5267    3.8702    0.0451 C.2       1 <0>        -0.0813
      8 C8         -2.8790    4.6303   -0.9984 C.2       1 <0>        -0.0942
      9 C9         -4.1917    5.3703   -0.9825 C.3       1 <0>        -0.1039
     10 C10        -3.9407    6.8594   -1.2284 C.3       1 <0>        -0.1123
     11 C11        -5.2735    7.6108   -1.2122 C.3       1 <0>        -0.0982
     12 C12        -5.0225    9.0999   -1.4581 C.3       1 <0>        -0.1576
     13 C13        -6.3352    9.8399   -1.4421 C.2       1 <0>         0.4569
     14 O1         -7.3657    9.2380   -1.2534 O.co2     1 <0>        -0.6420
     15 C14        -3.4281    3.7560    1.2171 C.ar      1 <0>        -0.0821
     16 C15        -3.6985    4.8707    2.0167 C.ar      1 <0>        -0.0602
     17 C16        -4.5507    4.7131    3.0958 C.ar      1 <0>        -0.1673
     18 C17        -5.0932    3.4670    3.3533 C.ar      1 <0>         0.0933
     19 N1         -4.8153    2.4322    2.5842 N.ar      1 <0>        -0.4846
     20 C18        -4.0148    2.5347    1.5430 C.ar      1 <0>         0.1047
     21 H1          2.1174    1.2521   -0.0111 H         1 <0>         0.1200
     22 H2          0.0021   -0.0041    0.0020 H         1 <0>         0.1220
     23 H3         -2.1456    1.1956    0.0190 H         1 <0>         0.1219
     24 H4         -0.0410    4.9286    0.0257 H         1 <0>         0.1239
     25 H5          2.0971    3.7122    0.0007 H         1 <0>         0.1224
     26 H6         -2.2226    4.7134   -1.8520 H         1 <0>         0.1203
     27 H7         -4.8401    4.9770   -1.7654 H         1 <0>         0.0775
     28 H8         -4.6716    5.2380   -0.0128 H         1 <0>         0.0731
     29 H9         -3.2924    7.2528   -0.4454 H         1 <0>         0.0572
     30 H10        -3.4609    6.9917   -2.1981 H         1 <0>         0.0598
     31 H11        -5.9218    7.2174   -1.9951 H         1 <0>         0.0600
     32 H12        -5.7534    7.4785   -0.2425 H         1 <0>         0.0589
     33 H13        -4.3741    9.4932   -0.6751 H         1 <0>         0.0613
     34 H14        -4.5426    9.2321   -2.4278 H         1 <0>         0.0618
     35 H15        -3.2568    5.8311    1.7955 H         1 <0>         0.1365
     36 H16        -4.7858    5.5530    3.7328 H         1 <0>         0.1377
     37 H17        -5.7544    3.3394    4.1976 H         1 <0>         0.1548
     38 H18        -3.8111    1.6645    0.9367 H         1 <0>         0.1514
     39 O2         -6.3595   11.1676   -1.6375 O.co2     1 <0>        -0.7791
@<TRIPOS>BOND
     1    1    6 ar
     2    1    2 ar
     3    1   21 1
     4    2    3 ar
     5    2   22 1
     6    3    4 ar
     7    3   23 1
     8    4    5 ar
     9    4    7 1
    10    5    6 ar
    11    5   24 1
    12    6   25 1
    13    7    8 2
    14    7   15 1
    15    8    9 1
    16    8   26 1
    17    9   10 1
    18    9   27 1
    19    9   28 1
    20   10   11 1
    21   10   29 1
    22   10   30 1
    23   11   12 1
    24   11   31 1
    25   11   32 1
    26   12   13 1
    27   12   33 1
    28   12   34 1
    29   13   14 2
    30   13   39 1
    31   15   20 ar
    32   15   16 ar
    33   16   17 ar
    34   16   35 1
    35   17   18 ar
    36   17   36 1
    37   18   19 ar
    38   18   37 1
    39   19   20 ar
    40   20   38 1
@<TRIPOS>MOLECULE
ZINC35877948
   38    40     0     0     0
SMALL
USER_CHARGES

@<TRIPOS>ATOM
      1 C1         -0.0184    1.5028    0.0103 C.3       1 <0>        -0.1156
      2 C2          0.0021   -0.0041    0.0020 C.2       1 <0>         0.1532
      3 C3          0.0079   -0.7686   -1.1013 C.2       1 <0>        -0.2703
      4 C4          0.0296   -2.1638   -0.6554 C.ar      1 <0>        -0.0890
      5 C5          0.0440   -3.3937   -1.3163 C.ar      1 <0>        -0.0978
      6 C6          0.0636   -4.5524   -0.5926 C.ar      1 <0>        -0.1306
      7 C7          0.0693   -4.5169    0.7953 C.ar      1 <0>        -0.1043
      8 C8          0.0554   -3.3146    1.4675 C.ar      1 <0>        -0.1068
      9 C9          0.0353   -2.1224    0.7506 C.ar      1 <0>         0.0978
     10 N1          0.0234   -0.7955    1.1180 N.pl3     1 <0>        -0.4557
     11 C10         0.0297   -0.3043    2.4982 C.3       1 <0>         0.1205
     12 C11        -1.4103   -0.1529    2.9923 C.3       1 <0>        -0.1985
     13 C12        -1.4038    0.3524    4.4120 C.2       1 <0>         0.4949
     14 O1         -0.3455    0.5712    4.9763 O.co2     1 <0>        -0.6945
     15 O2         -2.4569    0.5424    4.9963 O.co2     1 <0>        -0.6873
     16 C13        -0.0054   -0.2836   -2.5281 C.3       1 <0>         0.1814
     17 N2          1.3713   -0.1070   -2.9967 N.pl3     1 <0>        -0.3936
     18 C14         2.1236    1.0322   -2.8964 C.2       1 <0>         0.0265
     19 C15         3.3208    0.7584   -3.4490 C.2       1 <0>        -0.0052
     20 N3          3.3001   -0.5132   -3.8750 N.pl3     1 <0>        -0.4813
     21 C16         2.1373   -1.0394   -3.6029 C.cat     1 <0>         0.2870
     22 H1          1.0042    1.8801    0.0026 H         1 <0>         0.0835
     23 H2         -0.5455    1.8639   -0.8728 H         1 <0>         0.0856
     24 H3         -0.5286    1.8543    0.9071 H         1 <0>         0.0889
     25 H4          0.0392   -3.4290   -2.3957 H         1 <0>         0.1135
     26 H5          0.0743   -5.5034   -1.1042 H         1 <0>         0.1234
     27 H6          0.0845   -5.4413    1.3535 H         1 <0>         0.1288
     28 H7          0.0597   -3.2976    2.5473 H         1 <0>         0.1272
     29 H8          0.5593   -1.0138    3.1340 H         1 <0>         0.0952
     30 H9          0.5308    0.6630    2.5373 H         1 <0>         0.0953
     31 H10        -1.9399    0.5566    2.3565 H         1 <0>         0.0639
     32 H11        -1.9114   -1.1202    2.9532 H         1 <0>         0.0656
     33 H12        -0.5118   -1.0165   -3.1563 H         1 <0>         0.1227
     34 H13        -0.5330    0.6686   -2.5833 H         1 <0>         0.1245
     35 H14         1.8160    1.9704   -2.4587 H         1 <0>         0.2178
     36 H15         4.1519    1.4429   -3.5342 H         1 <0>         0.2193
     37 H16         1.8365   -2.0520   -3.8277 H         1 <0>         0.2534
     38 H17         4.0349   -0.9707   -4.3129 H         1 <0>         0.4607
@<TRIPOS>BOND
     1    1    2 1
     2    1   22 1
     3    1   23 1
     4    1   24 1
     5    2   10 1
     6    2    3 2
     7    3    4 1
     8    3   16 1
     9    4    9 ar
    10    4    5 ar
    11    5    6 ar
    12    5   25 1
    13    6    7 ar
    14    6   26 1
    15    7    8 ar
    16    7   27 1
    17    8    9 ar
    18    8   28 1
    19    9   10 1
    20   10   11 1
    21   11   12 1
    22   11   29 1
    23   11   30 1
    24   12   13 1
    25   12   31 1
    26   12   32 1
    27   13   14 2
    28   13   15 1
    29   16   17 1
    30   16   33 1
    31   16   34 1
    32   17   21 1
    33   17   18 1
    34   18   19 2
    35   18   35 1
    36   19   20 1
    37   19   36 1
    38   20   21 2
    39   20   38 1
    40   21   37 1
@<TRIPOS>MOLECULE
ZINC26473891
   26    27     0     0     0
SMALL
USER_CHARGES
1-(2-phenoxyethyl)imidazole
@<TRIPOS>ATOM
      1 C1          2.3962    0.0303   -0.0207 C.ar      1 <0>        -0.1547
      2 C2          1.2083   -0.6773   -0.0131 C.ar      1 <0>        -0.0800
      3 C3          0.0021   -0.0041    0.0020 C.ar      1 <0>        -0.1494
      4 C4         -0.0167    1.3831    0.0096 C.ar      1 <0>         0.1264
      5 C5          1.1765    2.0907    0.0021 C.ar      1 <0>        -0.2076
      6 C6          2.3801    1.4128   -0.0131 C.ar      1 <0>        -0.0798
      7 O1         -1.2021    2.0477    0.0189 O.3       1 <0>        -0.3123
      8 C7         -1.1453    3.4755    0.0264 C.3       1 <0>         0.0444
      9 C8         -2.5664    4.0424    0.0362 C.3       1 <0>         0.1065
     10 N1         -2.5081    5.5063    0.0438 N.pl3     1 <0>        -0.4599
     11 C9         -2.4761    6.3121    1.1499 C.2       1 <0>        -0.0569
     12 C10        -2.4220    7.5821    0.7052 C.2       1 <0>        -0.0254
     13 N2         -2.4304    7.5529   -0.6357 N.2       1 <0>        -0.4917
     14 C11        -2.4819    6.3129   -1.0389 C.2       1 <0>         0.1843
     15 H1          3.3382   -0.4978   -0.0328 H         1 <0>         0.1260
     16 H2          1.2235   -1.7571   -0.0187 H         1 <0>         0.1317
     17 H3         -0.9255   -0.5572    0.0075 H         1 <0>         0.1321
     18 H4          1.1645    3.1706    0.0076 H         1 <0>         0.1261
     19 H5          3.3093    1.9633   -0.0194 H         1 <0>         0.1264
     20 H6         -0.6083    3.8164    0.9239 H         1 <0>         0.0713
     21 H7         -0.6168    3.8262   -0.8723 H         1 <0>         0.0721
     22 H8         -3.1033    3.7014   -0.8613 H         1 <0>         0.1093
     23 H9         -3.0949    3.6918    0.9350 H         1 <0>         0.1068
     24 H10        -2.4892    5.9909    2.1809 H         1 <0>         0.1760
     25 H11        -2.3840    8.4689    1.3205 H         1 <0>         0.1720
     26 H12        -2.4999    5.9858   -2.0681 H         1 <0>         0.2062
@<TRIPOS>BOND
     1    1    6 ar
     2    1    2 ar
     3    1   15 1
     4    2    3 ar
     5    2   16 1
     6    3    4 ar
     7    3   17 1
     8    4    5 ar
     9    4    7 1
    10    5    6 ar
    11    5   18 1
    12    6   19 1
    13    7    8 1
    14    8    9 1
    15    8   20 1
    16    8   21 1
    17    9   10 1
    18    9   22 1
    19    9   23 1
    20   10   14 1
    21   10   11 1
    22   11   12 2
    23   11   24 1
    24   12   13 1
    25   12   25 1
    26   13   14 2
    27   14   26 1
@<TRIPOS>MOLECULE
ZINC26473891
   27    28     0     0     0
SMALL
USER_CHARGES
1-(2-phenoxyethyl)imidazole
@<TRIPOS>ATOM
      1 C1          2.3962    0.0303   -0.0207 C.ar      1 <0>        -0.1447
      2 C2          1.2083   -0.6773   -0.0131 C.ar      1 <0>        -0.0760
      3 C3          0.0021   -0.0041    0.0020 C.ar      1 <0>        -0.1421
      4 C4         -0.0167    1.3831    0.0096 C.ar      1 <0>         0.1161
      5 C5          1.1765    2.0907    0.0021 C.ar      1 <0>        -0.2072
      6 C6          2.3801    1.4128   -0.0131 C.ar      1 <0>        -0.0801
      7 O1         -1.2021    2.0477    0.0189 O.3       1 <0>        -0.3078
      8 C7         -1.1453    3.4755    0.0264 C.3       1 <0>         0.0405
      9 C8         -2.5664    4.0424    0.0362 C.3       1 <0>         0.0932
     10 N1         -2.5081    5.5063    0.0438 N.pl3     1 <0>        -0.4113
     11 C9         -2.4761    6.3121    1.1499 C.2       1 <0>         0.0214
     12 C10        -2.4220    7.5821    0.7052 C.2       1 <0>        -0.0014
     13 N2         -2.4304    7.5529   -0.6357 N.pl3     1 <0>        -0.4930
     14 C11        -2.4819    6.3129   -1.0389 C.cat     1 <0>         0.2994
     15 H1          3.3382   -0.4978   -0.0328 H         1 <0>         0.1308
     16 H2          1.2235   -1.7571   -0.0187 H         1 <0>         0.1368
     17 H3         -0.9255   -0.5572    0.0075 H         1 <0>         0.1350
     18 H4          1.1645    3.1706    0.0076 H         1 <0>         0.1222
     19 H5          3.3093    1.9633   -0.0194 H         1 <0>         0.1291
     20 H6         -0.6083    3.8164    0.9239 H         1 <0>         0.0781
     21 H7         -0.6168    3.8262   -0.8723 H         1 <0>         0.0759
     22 H8         -3.1033    3.7014   -0.8613 H         1 <0>         0.1354
     23 H9         -3.0949    3.6918    0.9350 H         1 <0>         0.1380
     24 H10        -2.4892    5.9909    2.1809 H         1 <0>         0.2214
     25 H11        -2.3840    8.4689    1.3205 H         1 <0>         0.2237
     26 H12        -2.4999    5.9858   -2.0681 H         1 <0>         0.2589
     27 H13        -2.3961    8.4926   -1.2065 H         1 <0>         0.5078
@<TRIPOS>BOND
     1    1    6 ar
     2    1    2 ar
     3    1   15 1
     4    2    3 ar
     5    2   16 1
     6    3    4 ar
     7    3   17 1
     8    4    5 ar
     9    4    7 1
    10    5    6 ar
    11    5   18 1
    12    6   19 1
    13    7    8 1
    14    8    9 1
    15    8   20 1
    16    8   21 1
    17    9   10 1
    18    9   22 1
    19    9   23 1
    20   10   14 1
    21   10   11 1
    22   11   12 2
    23   11   24 1
    24   12   13 1
    25   12   25 1
    26   13   14 2
    27   13   27 1
    28   14   26 1
@<TRIPOS>MOLECULE
ZINC29395601
   27    29     0     0     0
SMALL
USER_CHARGES
5-(imidazol-1-ylmethyl)benzofuran-2-carboxylic acid
@<TRIPOS>ATOM
      1 C1          0.5349    7.5645    0.0376 C.ar      1 <0>        -0.0879
      2 C2         -0.1517    6.3693    0.0377 C.ar      1 <0>        -0.1029
      3 C3          0.5488    5.1689    0.0246 C.ar      1 <0>         0.0528
      4 C4          1.9563    5.1963    0.0113 C.ar      1 <0>        -0.1286
      5 C5          2.6329    6.4183    0.0110 C.ar      1 <0>        -0.0475
      6 C6          1.9226    7.5856    0.0240 C.ar      1 <0>        -0.1470
      7 C7          2.6511    8.9049    0.0241 C.3       1 <0>         0.1526
      8 N1          2.9008    9.3247    1.4053 N.pl3     1 <0>        -0.4519
      9 C8          2.0772   10.0946    2.1817 C.2       1 <0>        -0.0539
     10 C9          2.6859   10.2352    3.3747 C.2       1 <0>        -0.0344
     11 N2          3.8536    9.5772    3.3249 N.2       1 <0>        -0.4988
     12 C10         3.9891    9.0294    2.1483 C.2       1 <0>         0.1841
     13 C11         2.3798    3.7968   -0.0003 C.2       1 <0>        -0.1968
     14 C12         1.2390    3.0583    0.0067 C.2       1 <0>         0.0374
     15 O1          0.1663    3.8773    0.0154 O.3       1 <0>        -0.1678
     16 C13         1.1821    1.5914   -0.0007 C.2       1 <0>         0.5221
     17 O2          2.2106    0.9431   -0.0140 O.co2     1 <0>        -0.5967
     18 O3         -0.0110    0.9628    0.0073 O.co2     1 <0>        -0.7252
     19 H1         -0.0132    8.4950    0.0478 H         1 <0>         0.1287
     20 H2         -1.2316    6.3655    0.0484 H         1 <0>         0.1326
     21 H3          3.7126    6.4404    0.0012 H         1 <0>         0.1250
     22 H4          3.6094    8.7946   -0.5046 H         1 <0>         0.1026
     23 H5          2.0370    9.6629   -0.4842 H         1 <0>         0.1009
     24 H6          1.1218   10.5076    1.8937 H         1 <0>         0.1710
     25 H7          2.3028   10.7850    4.2217 H         1 <0>         0.1663
     26 H8          4.8317    8.4373    1.8228 H         1 <0>         0.2014
     27 H9          3.3938    3.4253   -0.0120 H         1 <0>         0.1620
@<TRIPOS>BOND
     1    1    6 ar
     2    1    2 ar
     3    1   19 1
     4    2    3 ar
     5    2   20 1
     6    3   15 1
     7    3    4 ar
     8    4    5 ar
     9    4   13 1
    10    5    6 ar
    11    5   21 1
    12    6    7 1
    13    7    8 1
    14    7   22 1
    15    7   23 1
    16    8   12 1
    17    8    9 1
    18    9   10 2
    19    9   24 1
    20   10   11 1
    21   10   25 1
    22   11   12 2
    23   12   26 1
    24   13   14 2
    25   13   27 1
    26   14   15 1
    27   14   16 1
    28   16   17 2
    29   16   18 1
@<TRIPOS>MOLECULE
ZINC29395601
   28    30     0     0     0
SMALL
USER_CHARGES
5-(imidazol-1-ylmethyl)benzofuran-2-carboxylic acid
@<TRIPOS>ATOM
      1 C1          0.5349    7.5645    0.0376 C.ar      1 <0>        -0.0910
      2 C2         -0.1517    6.3693    0.0377 C.ar      1 <0>        -0.0943
      3 C3          0.5488    5.1689    0.0246 C.ar      1 <0>         0.0633
      4 C4          1.9563    5.1963    0.0113 C.ar      1 <0>        -0.1269
      5 C5          2.6329    6.4183    0.0110 C.ar      1 <0>        -0.0439
      6 C6          1.9226    7.5856    0.0240 C.ar      1 <0>        -0.1747
      7 C7          2.6511    8.9049    0.0241 C.3       1 <0>         0.1460
      8 N1          2.9008    9.3247    1.4053 N.pl3     1 <0>        -0.4025
      9 C8          2.0772   10.0946    2.1817 C.2       1 <0>         0.0235
     10 C9          2.6859   10.2352    3.3747 C.2       1 <0>        -0.0109
     11 N2          3.8536    9.5772    3.3249 N.pl3     1 <0>        -0.4970
     12 C10         3.9891    9.0294    2.1483 C.cat     1 <0>         0.2948
     13 C11         2.3798    3.7968   -0.0003 C.2       1 <0>        -0.2037
     14 C12         1.2390    3.0583    0.0067 C.2       1 <0>         0.0544
     15 O1          0.1663    3.8773    0.0154 O.3       1 <0>        -0.1619
     16 C13         1.1821    1.5914   -0.0007 C.2       1 <0>         0.5163
     17 O2          2.2106    0.9431   -0.0140 O.co2     1 <0>        -0.5899
     18 O3         -0.0110    0.9628    0.0073 O.co2     1 <0>        -0.7151
     19 H1         -0.0132    8.4950    0.0478 H         1 <0>         0.1324
     20 H2         -1.2316    6.3655    0.0484 H         1 <0>         0.1391
     21 H3          3.7126    6.4404    0.0012 H         1 <0>         0.1272
     22 H4          3.6094    8.7946   -0.5046 H         1 <0>         0.1271
     23 H5          2.0370    9.6629   -0.4842 H         1 <0>         0.1305
     24 H6          1.1218   10.5076    1.8937 H         1 <0>         0.2167
     25 H7          2.3028   10.7850    4.2217 H         1 <0>         0.2184
     26 H8          4.8317    8.4373    1.8228 H         1 <0>         0.2539
     27 H9          3.3938    3.4253   -0.0120 H         1 <0>         0.1660
     28 H10         4.5174    9.5677    4.2020 H         1 <0>         0.5021
@<TRIPOS>BOND
     1    1    6 ar
     2    1    2 ar
     3    1   19 1
     4    2    3 ar
     5    2   20 1
     6    3   15 1
     7    3    4 ar
     8    4    5 ar
     9    4   13 1
    10    5    6 ar
    11    5   21 1
    12    6    7 1
    13    7    8 1
    14    7   22 1
    15    7   23 1
    16    8   12 1
    17    8    9 1
    18    9   10 2
    19    9   24 1
    20   10   11 1
    21   10   25 1
    22   11   12 2
    23   11   28 1
    24   12   26 1
    25   13   14 2
    26   13   27 1
    27   14   15 1
    28   14   16 1
    29   16   17 2
    30   16   18 1
@<TRIPOS>MOLECULE
ZINC29391511
   27    29     0     0     0
SMALL
USER_CHARGES
5-(imidazol-1-ylmethyl)benzothiophene-2-carboxylic acid
@<TRIPOS>ATOM
      1 C1         -1.7221    0.7904    1.8065 C.ar      1 <0>        -0.0964
      2 C2         -2.3726    1.2290    2.9421 C.ar      1 <0>        -0.0691
      3 C3         -2.0169    2.4356    3.5055 C.ar      1 <0>        -0.1345
      4 C4         -0.9983    3.2523    2.9583 C.ar      1 <0>        -0.0731
      5 C5         -0.3529    2.7601    1.7947 C.ar      1 <0>        -0.0573
      6 C6         -0.7181    1.5718    1.2479 C.ar      1 <0>        -0.1286
      7 C7         -0.0127    1.0858    0.0080 C.3       1 <0>         0.1480
      8 N1         -0.7213    1.5711   -1.1789 N.pl3     1 <0>        -0.4518
      9 C8         -1.7343    0.9295   -1.8390 C.2       1 <0>        -0.0542
     10 C9         -2.0963    1.7245   -2.8640 C.2       1 <0>        -0.0342
     11 N2         -1.3191    2.8173   -2.8361 N.2       1 <0>        -0.4983
     12 C10        -0.4931    2.7323   -1.8294 C.2       1 <0>         0.1846
     13 C11        -0.7534    4.4531    3.6477 C.2       1 <0>        -0.1533
     14 C12        -1.4766    4.7573    4.7589 C.2       1 <0>        -0.1027
     15 S1         -2.5704    3.3565    4.9185 S.3       1 <0>         0.0762
     16 C13        -1.3810    5.9459    5.6158 C.2       1 <0>         0.5223
     17 O1         -0.5711    6.8158    5.3604 O.co2     1 <0>        -0.6060
     18 O2         -2.1915    6.0724    6.6860 O.co2     1 <0>        -0.7323
     19 H1         -1.9917   -0.1530    1.3552 H         1 <0>         0.1269
     20 H2         -3.1549    0.6311    3.3859 H         1 <0>         0.1296
     21 H3          0.4349    3.3391    1.3360 H         1 <0>         0.1221
     22 H4          1.0193    1.4666    0.0002 H         1 <0>         0.1025
     23 H5          0.0023   -0.0141    0.0019 H         1 <0>         0.1011
     24 H6         -2.1625   -0.0289   -1.5852 H         1 <0>         0.1709
     25 H7         -2.8734    1.5166   -3.5846 H         1 <0>         0.1663
     26 H8          0.2496    3.4690   -1.5607 H         1 <0>         0.2015
     27 H9          0.0079    5.1332    3.2952 H         1 <0>         0.1398
@<TRIPOS>BOND
     1    1    6 ar
     2    1    2 ar
     3    1   19 1
     4    2    3 ar
     5    2   20 1
     6    3   15 1
     7    3    4 ar
     8    4    5 ar
     9    4   13 1
    10    5    6 ar
    11    5   21 1
    12    6    7 1
    13    7    8 1
    14    7   22 1
    15    7   23 1
    16    8   12 1
    17    8    9 1
    18    9   10 2
    19    9   24 1
    20   10   11 1
    21   10   25 1
    22   11   12 2
    23   12   26 1
    24   13   14 2
    25   13   27 1
    26   14   15 1
    27   14   16 1
    28   16   17 2
    29   16   18 1
@<TRIPOS>MOLECULE
ZINC29391511
   28    30     0     0     0
SMALL
USER_CHARGES
5-(imidazol-1-ylmethyl)benzothiophene-2-carboxylic acid
@<TRIPOS>ATOM
      1 C1         -1.7221    0.7904    1.8065 C.ar      1 <0>        -0.1035
      2 C2         -2.3726    1.2290    2.9421 C.ar      1 <0>        -0.0576
      3 C3         -2.0169    2.4356    3.5055 C.ar      1 <0>        -0.1373
      4 C4         -0.9983    3.2523    2.9583 C.ar      1 <0>        -0.0683
      5 C5         -0.3529    2.7601    1.7947 C.ar      1 <0>        -0.0552
      6 C6         -0.7181    1.5718    1.2479 C.ar      1 <0>        -0.1548
      7 C7         -0.0127    1.0858    0.0080 C.3       1 <0>         0.1414
      8 N1         -0.7213    1.5711   -1.1789 N.pl3     1 <0>        -0.4022
      9 C8         -1.7343    0.9295   -1.8390 C.2       1 <0>         0.0235
     10 C9         -2.0963    1.7245   -2.8640 C.2       1 <0>        -0.0109
     11 N2         -1.3191    2.8173   -2.8361 N.pl3     1 <0>        -0.4968
     12 C10        -0.4931    2.7323   -1.8294 C.cat     1 <0>         0.2952
     13 C11        -0.7534    4.4531    3.6477 C.2       1 <0>        -0.1667
     14 C12        -1.4766    4.7573    4.7589 C.2       1 <0>        -0.0879
     15 S1         -2.5704    3.3565    4.9185 S.3       1 <0>         0.1075
     16 C13        -1.3810    5.9459    5.6158 C.2       1 <0>         0.5165
     17 O1         -0.5711    6.8158    5.3604 O.co2     1 <0>        -0.6003
     18 O2         -2.1915    6.0724    6.6860 O.co2     1 <0>        -0.7226
     19 H1         -1.9917   -0.1530    1.3552 H         1 <0>         0.1301
     20 H2         -3.1549    0.6311    3.3859 H         1 <0>         0.1351
     21 H3          0.4349    3.3391    1.3360 H         1 <0>         0.1235
     22 H4          1.0193    1.4666    0.0002 H         1 <0>         0.1267
     23 H5          0.0023   -0.0141    0.0019 H         1 <0>         0.1306
     24 H6         -2.1625   -0.0289   -1.5852 H         1 <0>         0.2166
     25 H7         -2.8734    1.5166   -3.5846 H         1 <0>         0.2184
     26 H8          0.2496    3.4690   -1.5607 H         1 <0>         0.2540
     27 H9          0.0079    5.1332    3.2952 H         1 <0>         0.1427
     28 H10        -1.4463    3.6022   -3.5962 H         1 <0>         0.5023
@<TRIPOS>BOND
     1    1    6 ar
     2    1    2 ar
     3    1   19 1
     4    2    3 ar
     5    2   20 1
     6    3   15 1
     7    3    4 ar
     8    4    5 ar
     9    4   13 1
    10    5    6 ar
    11    5   21 1
    12    6    7 1
    13    7    8 1
    14    7   22 1
    15    7   23 1
    16    8   12 1
    17    8    9 1
    18    9   10 2
    19    9   24 1
    20   10   11 1
    21   10   25 1
    22   11   12 2
    23   11   28 1
    24   12   26 1
    25   13   14 2
    26   13   27 1
    27   14   15 1
    28   14   16 1
    29   16   17 2
    30   16   18 1
@<TRIPOS>MOLECULE
ZINC29388908
   27    29     0     0     0
SMALL
USER_CHARGES
7-(imidazol-1-ylmethyl)benzothiophene-3-carboxylic acid
@<TRIPOS>ATOM
      1 C1          1.0142   -3.3903   -3.3747 C.ar      1 <0>        -0.1379
      2 C2          0.8689   -2.9691   -2.0605 C.ar      1 <0>        -0.0858
      3 C3          1.8962   -2.2780   -1.4492 C.ar      1 <0>        -0.0910
      4 C4          3.0578   -2.0243   -2.1477 C.ar      1 <0>        -0.1147
      5 C5          3.2346   -2.4448   -3.4791 C.ar      1 <0>        -0.0543
      6 C6          2.1656   -3.1431   -4.0776 C.ar      1 <0>        -0.0443
      7 C7          4.5355   -2.0795   -4.0460 C.2       1 <0>        -0.1429
      8 C8          5.4114   -1.3957   -3.2598 C.2       1 <0>        -0.1371
      9 S1          4.5785   -1.2017   -1.7553 S.3       1 <0>         0.0386
     10 C9          4.8846   -2.4413   -5.4236 C.2       1 <0>         0.5028
     11 O1          4.0899   -3.0526   -6.1117 O.co2     1 <0>        -0.6268
     12 O2          6.0870   -2.0960   -5.9273 O.co2     1 <0>        -0.7503
     13 C10         1.7511   -1.8090   -0.0244 C.3       1 <0>         0.1494
     14 N1          1.2869   -0.4196   -0.0125 N.pl3     1 <0>        -0.4502
     15 C11         2.0745    0.7000   -0.0140 C.2       1 <0>        -0.0446
     16 C12         1.2444    1.7603   -0.0004 C.2       1 <0>        -0.0363
     17 N2         -0.0156    1.3008    0.0092 N.2       1 <0>        -0.4983
     18 C13         0.0021   -0.0041    0.0020 C.2       1 <0>         0.1793
     19 H1          0.2072   -3.9268   -3.8514 H         1 <0>         0.1267
     20 H2         -0.0434   -3.1765   -1.5208 H         1 <0>         0.1283
     21 H3          2.2542   -3.4858   -5.0979 H         1 <0>         0.1522
     22 H4          6.4025   -1.0522   -3.5168 H         1 <0>         0.1926
     23 H5          1.0206   -2.4441    0.4981 H         1 <0>         0.1061
     24 H6          2.7242   -1.8748    0.4842 H         1 <0>         0.0993
     25 H7          3.1541    0.7276   -0.0238 H         1 <0>         0.1719
     26 H8          1.5413    2.7987    0.0018 H         1 <0>         0.1668
     27 H9         -0.8669   -0.6454    0.0072 H         1 <0>         0.2005
@<TRIPOS>BOND
     1    1    6 ar
     2    1    2 ar
     3    1   19 1
     4    2    3 ar
     5    2   20 1
     6    3    4 ar
     7    3   13 1
     8    4    9 1
     9    4    5 ar
    10    5    6 ar
    11    5    7 1
    12    6   21 1
    13    7    8 2
    14    7   10 1
    15    8    9 1
    16    8   22 1
    17   10   11 2
    18   10   12 1
    19   13   14 1
    20   13   23 1
    21   13   24 1
    22   14   18 1
    23   14   15 1
    24   15   16 2
    25   15   25 1
    26   16   17 1
    27   16   26 1
    28   17   18 2
    29   18   27 1
@<TRIPOS>MOLECULE
ZINC29388908
   28    30     0     0     0
SMALL
USER_CHARGES
7-(imidazol-1-ylmethyl)benzothiophene-3-carboxylic acid
@<TRIPOS>ATOM
      1 C1          1.0142   -3.3903   -3.3747 C.ar      1 <0>        -0.1385
      2 C2          0.8689   -2.9691   -2.0605 C.ar      1 <0>        -0.0775
      3 C3          1.8962   -2.2780   -1.4492 C.ar      1 <0>        -0.1204
      4 C4          3.0578   -2.0243   -2.1477 C.ar      1 <0>        -0.1196
      5 C5          3.2346   -2.4448   -3.4791 C.ar      1 <0>        -0.0489
      6 C6          2.1656   -3.1431   -4.0776 C.ar      1 <0>        -0.0257
      7 C7          4.5355   -2.0795   -4.0460 C.2       1 <0>        -0.1387
      8 C8          5.4114   -1.3957   -3.2598 C.2       1 <0>        -0.1271
      9 S1          4.5785   -1.2017   -1.7553 S.3       1 <0>         0.0335
     10 C9          4.8846   -2.4413   -5.4236 C.2       1 <0>         0.4983
     11 O1          4.0899   -3.0526   -6.1117 O.co2     1 <0>        -0.6229
     12 O2          6.0870   -2.0960   -5.9273 O.co2     1 <0>        -0.7397
     13 C10         1.7511   -1.8090   -0.0244 C.3       1 <0>         0.1424
     14 N1          1.2869   -0.4196   -0.0125 N.pl3     1 <0>        -0.4007
     15 C11         2.0745    0.7000   -0.0140 C.2       1 <0>         0.0281
     16 C12         1.2444    1.7603   -0.0004 C.2       1 <0>        -0.0105
     17 N2         -0.0156    1.3008    0.0092 N.pl3     1 <0>        -0.4963
     18 C13         0.0021   -0.0041    0.0020 C.cat     1 <0>         0.2914
     19 H1          0.2072   -3.9268   -3.8514 H         1 <0>         0.1335
     20 H2         -0.0434   -3.1765   -1.5208 H         1 <0>         0.1320
     21 H3          2.2542   -3.4858   -5.0979 H         1 <0>         0.1587
     22 H4          6.4025   -1.0522   -3.5168 H         1 <0>         0.1982
     23 H5          1.0206   -2.4441    0.4981 H         1 <0>         0.1317
     24 H6          2.7242   -1.8748    0.4842 H         1 <0>         0.1282
     25 H7          3.1541    0.7276   -0.0238 H         1 <0>         0.2154
     26 H8          1.5413    2.7987    0.0018 H         1 <0>         0.2198
     27 H9         -0.8669   -0.6454    0.0072 H         1 <0>         0.2541
     28 H10        -0.8586    2.0073    0.0211 H         1 <0>         0.5010
@<TRIPOS>BOND
     1    1    6 ar
     2    1    2 ar
     3    1   19 1
     4    2    3 ar
     5    2   20 1
     6    3    4 ar
     7    3   13 1
     8    4    9 1
     9    4    5 ar
    10    5    6 ar
    11    5    7 1
    12    6   21 1
    13    7    8 2
    14    7   10 1
    15    8    9 1
    16    8   22 1
    17   10   11 2
    18   10   12 1
    19   13   14 1
    20   13   23 1
    21   13   24 1
    22   14   18 1
    23   14   15 1
    24   15   16 2
    25   15   25 1
    26   16   17 1
    27   16   26 1
    28   17   18 2
    29   17   28 1
    30   18   27 1
@<TRIPOS>MOLECULE
ZINC29404698
   29    30     0     0     0
SMALL
USER_CHARGES
5-imidazo[1,5-a]pyridin-6-ylpentanoic acid
@<TRIPOS>ATOM
      1 C1         -1.3733   -4.1031    1.2184 C.2       1 <0>        -0.0774
      2 C2         -1.3917   -2.7445    1.2239 C.2       1 <0>        -0.1132
      3 C3         -1.4129   -2.0405    0.0046 C.2       1 <0>        -0.0800
      4 C4         -1.4205   -2.7012   -1.1688 C.2       1 <0>         0.0362
      5 N1         -1.3966   -4.0714   -1.1972 N.pl3     1 <0>        -0.3611
      6 C5         -1.3757   -4.7854   -0.0152 C.2       1 <0>        -0.0037
      7 C6         -1.3604   -6.1197   -0.3669 C.2       1 <0>        -0.0263
      8 N2         -1.3719   -6.1825   -1.6994 N.2       1 <0>        -0.4581
      9 C7         -1.3934   -4.9739   -2.2016 C.2       1 <0>         0.1334
     10 C8         -1.4333   -0.5336    0.0129 C.3       1 <0>        -0.0766
     11 C9          0.0021   -0.0041    0.0020 C.3       1 <0>        -0.1144
     12 C10        -0.0187    1.5258    0.0104 C.3       1 <0>        -0.0990
     13 C11         1.4167    2.0553   -0.0004 C.3       1 <0>        -0.1588
     14 C12         1.3963    3.5622    0.0079 C.2       1 <0>         0.4571
     15 O1          0.3418    4.1520    0.0211 O.co2     1 <0>        -0.6425
     16 O2          2.5495    4.2491    0.0005 O.co2     1 <0>        -0.7784
     17 H1         -1.3567   -4.6534    2.1475 H         1 <0>         0.1455
     18 H2         -1.3898   -2.2063    2.1603 H         1 <0>         0.1383
     19 H3         -1.4416   -2.1468   -2.0954 H         1 <0>         0.1649
     20 H4         -1.3422   -6.9592    0.3122 H         1 <0>         0.1783
     21 H5         -1.4070   -4.7357   -3.2550 H         1 <0>         0.2089
     22 H6         -1.9653   -0.1692   -0.8783 H         1 <0>         0.0774
     23 H7         -1.9482   -0.1788    0.9179 H         1 <0>         0.0822
     24 H8          0.5341   -0.3685    0.8932 H         1 <0>         0.0611
     25 H9          0.5170   -0.3589   -0.9030 H         1 <0>         0.0586
     26 H10        -0.5507    1.8901   -0.8808 H         1 <0>         0.0614
     27 H11        -0.5336    1.8806    0.9154 H         1 <0>         0.0621
     28 H12         1.9486    1.6909    0.8908 H         1 <0>         0.0623
     29 H13         1.9316    1.7005   -0.9054 H         1 <0>         0.0618
@<TRIPOS>BOND
     1    1    6 1
     2    1    2 2
     3    1   17 1
     4    2    3 1
     5    2   18 1
     6    3    4 2
     7    3   10 1
     8    4    5 1
     9    4   19 1
    10    5    9 1
    11    5    6 1
    12    6    7 2
    13    7    8 1
    14    7   20 1
    15    8    9 2
    16    9   21 1
    17   10   11 1
    18   10   22 1
    19   10   23 1
    20   11   12 1
    21   11   24 1
    22   11   25 1
    23   12   13 1
    24   12   26 1
    25   12   27 1
    26   13   14 1
    27   13   28 1
    28   13   29 1
    29   14   15 2
    30   14   16 1
@<TRIPOS>MOLECULE
ZINC05161529
   45    47     0     0     0
SMALL
USER_CHARGES
6-[5-chloro-1-methyl-2-(3-pyridyl)indol-3-yl]hexanoic acid
@<TRIPOS>ATOM
      1 C1         -1.1240   -1.0042   -0.3055 C.3       1 <0>         0.0753
      2 N1          0.0281   -0.1136   -0.1447 N.pl3     1 <0>        -0.4773
      3 C2         -0.0393    1.2590   -0.0444 C.ar      1 <0>         0.1087
      4 C3         -1.0949    2.1649   -0.0544 C.ar      1 <0>        -0.1176
      5 C4         -0.8415    3.5138    0.0655 C.ar      1 <0>        -0.0888
      6 C5          0.4595    3.9809    0.2060 C.ar      1 <0>        -0.0617
      7 C6          1.5118    3.1087    0.2231 C.ar      1 <0>        -0.0504
      8 C7          1.2775    1.7361    0.0982 C.ar      1 <0>        -0.0921
      9 C8          2.1445    0.5592    0.0773 C.2       1 <0>        -0.1224
     10 C9          1.3397   -0.5222   -0.0707 C.2       1 <0>         0.1128
     11 C10         1.8011   -1.9255   -0.1411 C.ar      1 <0>        -0.0797
     12 C11         1.2957   -2.8861    0.7427 C.ar      1 <0>        -0.0621
     13 C12         1.7556   -4.1863    0.6313 C.ar      1 <0>        -0.1681
     14 C13         2.6999   -4.4902   -0.3331 C.ar      1 <0>         0.1058
     15 N2          3.1624   -3.5628   -1.1492 N.ar      1 <0>        -0.4782
     16 C14         2.7517   -2.3130   -1.0859 C.ar      1 <0>         0.1286
     17 C15         3.6466    0.5495    0.1978 C.3       1 <0>        -0.0512
     18 C16         4.0394    0.3642    1.6649 C.3       1 <0>        -0.1092
     19 C17         5.5621    0.4315    1.7976 C.3       1 <0>        -0.1192
     20 C18         5.9549    0.2461    3.2647 C.3       1 <0>        -0.0972
     21 C19         7.4776    0.3135    3.3974 C.3       1 <0>        -0.1577
     22 C20         7.8645    0.1309    4.8424 C.2       1 <0>         0.4571
     23 O1          7.0100   -0.0359    5.6802 O.co2     1 <0>        -0.6429
     24 Cl1         0.7508    5.6853    0.3606 Cl        1 <0>        -0.0751
     25 H1         -1.3276   -1.1468   -1.3667 H         1 <0>         0.0702
     26 H2         -0.9055   -1.9676    0.1553 H         1 <0>         0.0823
     27 H3         -1.9959   -0.5608    0.1755 H         1 <0>         0.0831
     28 H4         -2.1102    1.8120   -0.1588 H         1 <0>         0.1270
     29 H5         -1.6628    4.2151    0.0537 H         1 <0>         0.1348
     30 H6          2.5206    3.4786    0.3324 H         1 <0>         0.1358
     31 H7          0.5622   -2.6201    1.4895 H         1 <0>         0.1338
     32 H8          1.3850   -4.9548    1.2934 H         1 <0>         0.1397
     33 H9          3.0639   -5.5033   -0.4194 H         1 <0>         0.1592
     34 H10         3.1539   -1.5819   -1.7716 H         1 <0>         0.1602
     35 H11         4.0533   -0.2708   -0.3936 H         1 <0>         0.0700
     36 H12         4.0466    1.4949   -0.1687 H         1 <0>         0.0745
     37 H13         3.5871    1.1540    2.2647 H         1 <0>         0.0624
     38 H14         3.6866   -0.6057    2.0157 H         1 <0>         0.0570
     39 H15         6.0144   -0.3583    1.1978 H         1 <0>         0.0561
     40 H16         5.9149    1.4013    1.4468 H         1 <0>         0.0581
     41 H17         5.5026    1.0360    3.8645 H         1 <0>         0.0587
     42 H18         5.6022   -0.7237    3.6155 H         1 <0>         0.0568
     43 H19         7.9299   -0.4763    2.7976 H         1 <0>         0.0610
     44 H20         7.8304    1.2833    3.0466 H         1 <0>         0.0617
     45 O2          9.1584    0.1537    5.1988 O.co2     1 <0>        -0.7800
@<TRIPOS>BOND
     1    1    2 1
     2    1   25 1
     3    1   26 1
     4    1   27 1
     5    2   10 1
     6    2    3 1
     7    3    8 ar
     8    3    4 ar
     9    4    5 ar
    10    4   28 1
    11    5    6 ar
    12    5   29 1
    13    6    7 ar
    14    6   24 1
    15    7    8 ar
    16    7   30 1
    17    8    9 1
    18    9   10 2
    19    9   17 1
    20   10   11 1
    21   11   16 ar
    22   11   12 ar
    23   12   13 ar
    24   12   31 1
    25   13   14 ar
    26   13   32 1
    27   14   15 ar
    28   14   33 1
    29   15   16 ar
    30   16   34 1
    31   17   18 1
    32   17   35 1
    33   17   36 1
    34   18   19 1
    35   18   37 1
    36   18   38 1
    37   19   20 1
    38   19   39 1
    39   19   40 1
    40   20   21 1
    41   20   41 1
    42   20   42 1
    43   21   22 1
    44   21   43 1
    45   21   44 1
    46   22   23 2
    47   22   45 1
@<TRIPOS>MOLECULE
ZINC29216180
   38    39     0     0     0
SMALL
USER_CHARGES
ethyl 4-(3-imidazol-1-ylpropoxy)benzoate
@<TRIPOS>ATOM
      1 C1          3.5721    2.0747   -0.0209 C.3       1 <0>        -0.1555
      2 C2          2.3715    1.1262   -0.0145 C.3       1 <0>         0.0610
      3 O1          1.1432    1.9004    0.0013 O.3       1 <0>        -0.3558
      4 C3         -0.0144    1.2108    0.0087 C.2       1 <0>         0.5125
      5 O2          0.0021   -0.0041    0.0020 O.2       1 <0>        -0.5080
      6 C4         -1.3014    1.9308    0.0187 C.ar      1 <0>        -0.1680
      7 C5         -1.3226    3.3285    0.0322 C.ar      1 <0>        -0.0177
      8 C6         -2.5263    3.9967    0.0361 C.ar      1 <0>        -0.2244
      9 C7         -3.7195    3.2834    0.0379 C.ar      1 <0>         0.1681
     10 C8         -3.7029    1.8934    0.0299 C.ar      1 <0>        -0.1628
     11 C9         -2.5036    1.2174    0.0205 C.ar      1 <0>        -0.0120
     12 O3         -4.9038    3.9458    0.0471 O.3       1 <0>        -0.3061
     13 C10        -4.8484    5.3737    0.0550 C.3       1 <0>         0.0579
     14 C11        -6.2700    5.9393    0.0647 C.3       1 <0>        -0.1384
     15 C12        -6.2107    7.4681    0.0732 C.3       1 <0>         0.1074
     16 N1         -7.5719    8.0096    0.0825 N.pl3     1 <0>        -0.4609
     17 C13        -8.3295    8.3212   -1.0141 C.2       1 <0>        -0.0571
     18 C14        -9.5086    8.7822   -0.5548 C.2       1 <0>        -0.0274
     19 N2         -9.4684    8.7616    0.7857 N.2       1 <0>        -0.4939
     20 C15        -8.3113    8.3000    1.1745 C.2       1 <0>         0.1826
     21 H1          4.5026    1.4882   -0.0329 H         1 <0>         0.0829
     22 H2          3.5469    2.7041    0.8809 H         1 <0>         0.0679
     23 H3          3.5298    2.7136   -0.9153 H         1 <0>         0.0678
     24 H4          2.3967    0.4968   -0.9163 H         1 <0>         0.0727
     25 H5          2.4138    0.4872    0.8799 H         1 <0>         0.0727
     26 H6         -0.3960    3.8833    0.0353 H         1 <0>         0.1424
     27 H7         -2.5436    5.0765    0.0420 H         1 <0>         0.1376
     28 H8         -4.6322    1.3430    0.0313 H         1 <0>         0.1432
     29 H9         -2.4916    0.1374    0.0143 H         1 <0>         0.1466
     30 H10        -4.3119    5.7148    0.9527 H         1 <0>         0.0727
     31 H11        -4.3201    5.7251   -0.8435 H         1 <0>         0.0721
     32 H12        -6.8064    5.5982   -0.8330 H         1 <0>         0.0856
     33 H13        -6.7983    5.5879    0.9632 H         1 <0>         0.0864
     34 H14        -5.6742    7.8092    0.9709 H         1 <0>         0.1005
     35 H15        -5.6824    7.8196   -0.8253 H         1 <0>         0.0980
     36 H16        -8.0386    8.2154   -2.0488 H         1 <0>         0.1745
     37 H17       -10.3389    9.1152   -1.1598 H         1 <0>         0.1704
     38 H18        -7.9974    8.1709    2.1998 H         1 <0>         0.2045
@<TRIPOS>BOND
     1    1    2 1
     2    1   21 1
     3    1   22 1
     4    1   23 1
     5    2    3 1
     6    2   24 1
     7    2   25 1
     8    3    4 1
     9    4    5 2
    10    4    6 1
    11    6   11 ar
    12    6    7 ar
    13    7    8 ar
    14    7   26 1
    15    8    9 ar
    16    8   27 1
    17    9   10 ar
    18    9   12 1
    19   10   11 ar
    20   10   28 1
    21   11   29 1
    22   12   13 1
    23   13   14 1
    24   13   30 1
    25   13   31 1
    26   14   15 1
    27   14   32 1
    28   14   33 1
    29   15   16 1
    30   15   34 1
    31   15   35 1
    32   16   20 1
    33   16   17 1
    34   17   18 2
    35   17   36 1
    36   18   19 1
    37   18   37 1
    38   19   20 2
    39   20   38 1
@<TRIPOS>MOLECULE
ZINC29216180
   39    40     0     0     0
SMALL
USER_CHARGES
ethyl 4-(3-imidazol-1-ylpropoxy)benzoate
@<TRIPOS>ATOM
      1 C1          3.5721    2.0747   -0.0209 C.3       1 <0>        -0.1558
      2 C2          2.3715    1.1262   -0.0145 C.3       1 <0>         0.0609
      3 O1          1.1432    1.9004    0.0013 O.3       1 <0>        -0.3560
      4 C3         -0.0144    1.2108    0.0087 C.2       1 <0>         0.5093
      5 O2          0.0021   -0.0041    0.0020 O.2       1 <0>        -0.5029
      6 C4         -1.3014    1.9308    0.0187 C.ar      1 <0>        -0.1578
      7 C5         -1.3226    3.3285    0.0322 C.ar      1 <0>        -0.0185
      8 C6         -2.5263    3.9967    0.0361 C.ar      1 <0>        -0.2224
      9 C7         -3.7195    3.2834    0.0379 C.ar      1 <0>         0.1591
     10 C8         -3.7029    1.8934    0.0299 C.ar      1 <0>        -0.1582
     11 C9         -2.5036    1.2174    0.0205 C.ar      1 <0>        -0.0116
     12 O3         -4.9038    3.9458    0.0471 O.3       1 <0>        -0.3077
     13 C10        -4.8484    5.3737    0.0550 C.3       1 <0>         0.0563
     14 C11        -6.2700    5.9393    0.0647 C.3       1 <0>        -0.1438
     15 C12        -6.2107    7.4681    0.0732 C.3       1 <0>         0.0942
     16 N1         -7.5719    8.0096    0.0825 N.pl3     1 <0>        -0.4118
     17 C13        -8.3295    8.3212   -1.0141 C.2       1 <0>         0.0208
     18 C14        -9.5086    8.7822   -0.5548 C.2       1 <0>        -0.0029
     19 N2         -9.4684    8.7616    0.7857 N.pl3     1 <0>        -0.4942
     20 C15        -8.3113    8.3000    1.1745 C.cat     1 <0>         0.2969
     21 H1          4.5026    1.4882   -0.0329 H         1 <0>         0.0849
     22 H2          3.5469    2.7041    0.8809 H         1 <0>         0.0678
     23 H3          3.5298    2.7136   -0.9153 H         1 <0>         0.0679
     24 H4          2.3967    0.4968   -0.9163 H         1 <0>         0.0742
     25 H5          2.4138    0.4872    0.8799 H         1 <0>         0.0742
     26 H6         -0.3960    3.8833    0.0353 H         1 <0>         0.1447
     27 H7         -2.5436    5.0765    0.0420 H         1 <0>         0.1360
     28 H8         -4.6322    1.3430    0.0313 H         1 <0>         0.1437
     29 H9         -2.4916    0.1374    0.0143 H         1 <0>         0.1495
     30 H10        -4.3119    5.7148    0.9527 H         1 <0>         0.0763
     31 H11        -4.3201    5.7251   -0.8435 H         1 <0>         0.0765
     32 H12        -6.8064    5.5982   -0.8330 H         1 <0>         0.0944
     33 H13        -6.7983    5.5879    0.9632 H         1 <0>         0.0924
     34 H14        -5.6742    7.8092    0.9709 H         1 <0>         0.1271
     35 H15        -5.6824    7.8196   -0.8253 H         1 <0>         0.1296
     36 H16        -8.0386    8.2154   -2.0488 H         1 <0>         0.2201
     37 H17       -10.3389    9.1152   -1.1598 H         1 <0>         0.2223
     38 H18        -7.9974    8.1709    2.1998 H         1 <0>         0.2574
     39 H19       -10.3366    9.1050    1.3673 H         1 <0>         0.5068
@<TRIPOS>BOND
     1    1    2 1
     2    1   21 1
     3    1   22 1
     4    1   23 1
     5    2    3 1
     6    2   24 1
     7    2   25 1
     8    3    4 1
     9    4    5 2
    10    4    6 1
    11    6   11 ar
    12    6    7 ar
    13    7    8 ar
    14    7   26 1
    15    8    9 ar
    16    8   27 1
    17    9   10 ar
    18    9   12 1
    19   10   11 ar
    20   10   28 1
    21   11   29 1
    22   12   13 1
    23   13   14 1
    24   13   30 1
    25   13   31 1
    26   14   15 1
    27   14   32 1
    28   14   33 1
    29   15   16 1
    30   15   34 1
    31   15   35 1
    32   16   20 1
    33   16   17 1
    34   17   18 2
    35   17   36 1
    36   18   19 1
    37   18   37 1
    38   19   20 2
    39   19   39 1
    40   20   38 1
@<TRIPOS>MOLECULE
ZINC20253546
   31    32     0     0     0
SMALL
USER_CHARGES
2-[4-(2-imidazol-1-ylethoxy)phenyl]acetic acid
@<TRIPOS>ATOM
      1 C1         -2.9894    0.5002   -1.1792 C.ar      1 <0>        -0.0773
      2 C2         -4.0234   -0.4159   -1.1819 C.ar      1 <0>        -0.2007
      3 C3         -4.5396   -0.8811    0.0188 C.ar      1 <0>         0.1002
      4 C4         -4.0120   -0.4290    1.2196 C.ar      1 <0>        -0.1435
      5 C5         -2.9743    0.4829    1.2169 C.ar      1 <0>        -0.0772
      6 C6         -2.4615    0.9450    0.0189 C.ar      1 <0>        -0.0574
      7 C7         -1.3295    1.9397    0.0189 C.3       1 <0>        -0.1302
      8 C8         -0.0143    1.2041    0.0087 C.2       1 <0>         0.4643
      9 O1          0.0021   -0.0041    0.0020 O.co2     1 <0>        -0.6309
     10 O2          1.1389    1.8910    0.0013 O.co2     1 <0>        -0.7727
     11 O3         -5.5602   -1.7785    0.0187 O.3       1 <0>        -0.3167
     12 C9         -6.0536   -2.1998   -1.2545 C.3       1 <0>         0.0459
     13 C10        -7.1917   -3.2025   -1.0541 C.3       1 <0>         0.1064
     14 N1         -7.6975   -3.6344   -2.3594 N.pl3     1 <0>        -0.4565
     15 C11        -8.7091   -3.0498   -3.0724 C.2       1 <0>        -0.0562
     16 C12        -8.8454   -3.7593   -4.2089 C.2       1 <0>        -0.0296
     17 N2         -7.9478   -4.7557   -4.1860 N.2       1 <0>        -0.4952
     18 C13        -7.2567   -4.6872   -3.0812 C.2       1 <0>         0.1854
     19 H1         -2.5903    0.8663   -2.1136 H         1 <0>         0.1200
     20 H2         -4.4324   -0.7664   -2.1180 H         1 <0>         0.1188
     21 H3         -4.4119   -0.7899    2.1556 H         1 <0>         0.1250
     22 H4         -2.5630    0.8349    2.1514 H         1 <0>         0.1254
     23 H5         -1.4006    2.5761   -0.8755 H         1 <0>         0.0756
     24 H6         -1.3921    2.5664    0.9207 H         1 <0>         0.0765
     25 H7         -6.4274   -1.3270   -1.8099 H         1 <0>         0.0673
     26 H8         -5.2413   -2.6760   -1.8233 H         1 <0>         0.0695
     27 H9         -6.8179   -4.0753   -0.4986 H         1 <0>         0.1083
     28 H10        -8.0040   -2.7264   -0.4853 H         1 <0>         0.1050
     29 H11        -9.2856   -2.1843   -2.7808 H         1 <0>         0.1748
     30 H12        -9.5563   -3.5635   -4.9979 H         1 <0>         0.1699
     31 H13        -6.4633   -5.3606   -2.7922 H         1 <0>         0.2061
@<TRIPOS>BOND
     1    1    6 ar
     2    1    2 ar
     3    1   19 1
     4    2    3 ar
     5    2   20 1
     6    3    4 ar
     7    3   11 1
     8    4    5 ar
     9    4   21 1
    10    5    6 ar
    11    5   22 1
    12    6    7 1
    13    7    8 1
    14    7   23 1
    15    7   24 1
    16    8    9 2
    17    8   10 1
    18   11   12 1
    19   12   13 1
    20   12   25 1
    21   12   26 1
    22   13   14 1
    23   13   27 1
    24   13   28 1
    25   14   18 1
    26   14   15 1
    27   15   16 2
    28   15   29 1
    29   16   17 1
    30   16   30 1
    31   17   18 2
    32   18   31 1
@<TRIPOS>MOLECULE
ZINC20253546
   32    33     0     0     0
SMALL
USER_CHARGES
2-[4-(2-imidazol-1-ylethoxy)phenyl]acetic acid
@<TRIPOS>ATOM
      1 C1         -2.9894    0.5002   -1.1792 C.ar      1 <0>        -0.0786
      2 C2         -4.0234   -0.4159   -1.1819 C.ar      1 <0>        -0.1996
      3 C3         -4.5396   -0.8811    0.0188 C.ar      1 <0>         0.0882
      4 C4         -4.0120   -0.4290    1.2196 C.ar      1 <0>        -0.1357
      5 C5         -2.9743    0.4829    1.2169 C.ar      1 <0>        -0.0746
      6 C6         -2.4615    0.9450    0.0189 C.ar      1 <0>        -0.0453
      7 C7         -1.3295    1.9397    0.0189 C.3       1 <0>        -0.1352
      8 C8         -0.0143    1.2041    0.0087 C.2       1 <0>         0.4645
      9 O1          0.0021   -0.0041    0.0020 O.co2     1 <0>        -0.6342
     10 O2          1.1389    1.8910    0.0013 O.co2     1 <0>        -0.7651
     11 O3         -5.5602   -1.7785    0.0187 O.3       1 <0>        -0.3115
     12 C9         -6.0536   -2.1998   -1.2545 C.3       1 <0>         0.0416
     13 C10        -7.1917   -3.2025   -1.0541 C.3       1 <0>         0.0925
     14 N1         -7.6975   -3.6344   -2.3594 N.pl3     1 <0>        -0.4076
     15 C11        -8.7091   -3.0498   -3.0724 C.2       1 <0>         0.0225
     16 C12        -8.8454   -3.7593   -4.2089 C.2       1 <0>        -0.0058
     17 N2         -7.9478   -4.7557   -4.1860 N.pl3     1 <0>        -0.4948
     18 C13        -7.2567   -4.6872   -3.0812 C.cat     1 <0>         0.3002
     19 H1         -2.5903    0.8663   -2.1136 H         1 <0>         0.1225
     20 H2         -4.4324   -0.7664   -2.1180 H         1 <0>         0.1147
     21 H3         -4.4119   -0.7899    2.1556 H         1 <0>         0.1277
     22 H4         -2.5630    0.8349    2.1514 H         1 <0>         0.1302
     23 H5         -1.4006    2.5761   -0.8755 H         1 <0>         0.0781
     24 H6         -1.3921    2.5664    0.9207 H         1 <0>         0.0801
     25 H7         -6.4274   -1.3270   -1.8099 H         1 <0>         0.0741
     26 H8         -5.2413   -2.6760   -1.8233 H         1 <0>         0.0735
     27 H9         -6.8179   -4.0753   -0.4986 H         1 <0>         0.1345
     28 H10        -8.0040   -2.7264   -0.4853 H         1 <0>         0.1363
     29 H11        -9.2856   -2.1843   -2.7808 H         1 <0>         0.2205
     30 H12        -9.5563   -3.5635   -4.9979 H         1 <0>         0.2219
     31 H13        -6.4633   -5.3606   -2.7922 H         1 <0>         0.2589
     32 H14        -7.8914   -5.4645   -5.0253 H         1 <0>         0.5055
@<TRIPOS>BOND
     1    1    6 ar
     2    1    2 ar
     3    1   19 1
     4    2    3 ar
     5    2   20 1
     6    3    4 ar
     7    3   11 1
     8    4    5 ar
     9    4   21 1
    10    5    6 ar
    11    5   22 1
    12    6    7 1
    13    7    8 1
    14    7   23 1
    15    7   24 1
    16    8    9 2
    17    8   10 1
    18   11   12 1
    19   12   13 1
    20   12   25 1
    21   12   26 1
    22   13   14 1
    23   13   27 1
    24   13   28 1
    25   14   18 1
    26   14   15 1
    27   15   16 2
    28   15   29 1
    29   16   17 1
    30   16   30 1
    31   17   18 2
    32   17   32 1
    33   18   31 1
@<TRIPOS>MOLECULE
ZINC20253498
   28    29     0     0     0
SMALL
USER_CHARGES
3-(2-imidazol-1-ylethoxy)benzoic acid
@<TRIPOS>ATOM
      1 C1         -2.2140    2.6038    4.9316 C.ar      1 <0>        -0.1029
      2 C2         -1.6037    2.1859    6.0965 C.ar      1 <0>        -0.1079
      3 C3         -0.4540    1.3961    6.0369 C.ar      1 <0>        -0.0762
      4 C4          0.0731    1.0326    4.7966 C.ar      1 <0>        -0.1113
      5 C5         -0.5475    1.4575    3.6343 C.ar      1 <0>         0.1024
      6 C6         -1.6874    2.2475    3.7039 C.ar      1 <0>        -0.2094
      7 O1         -0.0377    1.1059    2.4245 O.3       1 <0>        -0.3142
      8 C7         -0.7288    1.5792    1.2668 C.3       1 <0>         0.0466
      9 C8         -0.0127    1.0858    0.0080 C.3       1 <0>         0.1048
     10 N1         -0.7213    1.5711   -1.1789 N.pl3     1 <0>        -0.4554
     11 C9         -1.7343    0.9295   -1.8390 C.2       1 <0>        -0.0548
     12 C10        -2.0963    1.7245   -2.8640 C.2       1 <0>        -0.0307
     13 N2         -1.3191    2.8173   -2.8361 N.2       1 <0>        -0.4959
     14 C11        -0.4931    2.7323   -1.8294 C.2       1 <0>         0.1839
     15 C12         0.2026    0.9472    7.2819 C.2       1 <0>         0.4896
     16 O2          1.2030    0.2604    7.2273 O.co2     1 <0>        -0.6266
     17 O3         -0.3082    1.2995    8.4775 O.co2     1 <0>        -0.7492
     18 H1         -3.1031    3.2150    4.9790 H         1 <0>         0.1201
     19 H2         -2.0150    2.4700    7.0539 H         1 <0>         0.1337
     20 H3          0.9620    0.4215    4.7438 H         1 <0>         0.1357
     21 H4         -2.1669    2.5812    2.7955 H         1 <0>         0.1175
     22 H5         -1.7608    1.1984    1.2746 H         1 <0>         0.0668
     23 H6         -0.7438    2.6791    1.2728 H         1 <0>         0.0676
     24 H7          1.0193    1.4666    0.0002 H         1 <0>         0.1090
     25 H8          0.0023   -0.0141    0.0019 H         1 <0>         0.1064
     26 H9         -2.1625   -0.0289   -1.5852 H         1 <0>         0.1750
     27 H10        -2.8727    1.5161   -3.5852 H         1 <0>         0.1698
     28 H11         0.2496    3.4690   -1.5607 H         1 <0>         0.2056
@<TRIPOS>BOND
     1    1    6 ar
     2    1    2 ar
     3    1   18 1
     4    2    3 ar
     5    2   19 1
     6    3    4 ar
     7    3   15 1
     8    4    5 ar
     9    4   20 1
    10    5    6 ar
    11    5    7 1
    12    6   21 1
    13    7    8 1
    14    8    9 1
    15    8   22 1
    16    8   23 1
    17    9   10 1
    18    9   24 1
    19    9   25 1
    20   10   14 1
    21   10   11 1
    22   11   12 2
    23   11   26 1
    24   12   13 1
    25   12   27 1
    26   13   14 2
    27   14   28 1
    28   15   16 2
    29   15   17 1
@<TRIPOS>MOLECULE
ZINC20253498
   29    30     0     0     0
SMALL
USER_CHARGES
3-(2-imidazol-1-ylethoxy)benzoic acid
@<TRIPOS>ATOM
      1 C1         -2.2140    2.6038    4.9316 C.ar      1 <0>        -0.1023
      2 C2         -1.6037    2.1859    6.0965 C.ar      1 <0>        -0.1001
      3 C3         -0.4540    1.3961    6.0369 C.ar      1 <0>        -0.0696
      4 C4          0.0731    1.0326    4.7966 C.ar      1 <0>        -0.1060
      5 C5         -0.5475    1.4575    3.6343 C.ar      1 <0>         0.0925
      6 C6         -1.6874    2.2475    3.7039 C.ar      1 <0>        -0.2103
      7 O1         -0.0377    1.1059    2.4245 O.3       1 <0>        -0.3090
      8 C7         -0.7288    1.5792    1.2668 C.3       1 <0>         0.0422
      9 C8         -0.0127    1.0858    0.0080 C.3       1 <0>         0.0910
     10 N1         -0.7213    1.5711   -1.1789 N.pl3     1 <0>        -0.4064
     11 C9         -1.7343    0.9295   -1.8390 C.2       1 <0>         0.0236
     12 C10        -2.0963    1.7245   -2.8640 C.2       1 <0>        -0.0066
     13 N2         -1.3191    2.8173   -2.8361 N.pl3     1 <0>        -0.4952
     14 C11        -0.4931    2.7323   -1.8294 C.cat     1 <0>         0.2986
     15 C12         0.2026    0.9472    7.2819 C.2       1 <0>         0.4858
     16 O2          1.2030    0.2604    7.2273 O.co2     1 <0>        -0.6230
     17 O3         -0.3082    1.2995    8.4775 O.co2     1 <0>        -0.7417
     18 H1         -3.1031    3.2150    4.9790 H         1 <0>         0.1227
     19 H2         -2.0150    2.4700    7.0539 H         1 <0>         0.1380
     20 H3          0.9620    0.4215    4.7438 H         1 <0>         0.1383
     21 H4         -2.1669    2.5812    2.7955 H         1 <0>         0.1133
     22 H5         -1.7608    1.1984    1.2746 H         1 <0>         0.0738
     23 H6         -0.7438    2.6791    1.2728 H         1 <0>         0.0716
     24 H7          1.0193    1.4666    0.0002 H         1 <0>         0.1352
     25 H8          0.0023   -0.0141    0.0019 H         1 <0>         0.1378
     26 H9         -2.1625   -0.0289   -1.5852 H         1 <0>         0.2207
     27 H10        -2.8727    1.5161   -3.5852 H         1 <0>         0.2218
     28 H11         0.2496    3.4690   -1.5607 H         1 <0>         0.2585
     29 H12        -1.4463    3.6022   -3.5962 H         1 <0>         0.5049
@<TRIPOS>BOND
     1    1    6 ar
     2    1    2 ar
     3    1   18 1
     4    2    3 ar
     5    2   19 1
     6    3    4 ar
     7    3   15 1
     8    4    5 ar
     9    4   20 1
    10    5    6 ar
    11    5    7 1
    12    6   21 1
    13    7    8 1
    14    8    9 1
    15    8   22 1
    16    8   23 1
    17    9   10 1
    18    9   24 1
    19    9   25 1
    20   10   14 1
    21   10   11 1
    22   11   12 2
    23   11   26 1
    24   12   13 1
    25   12   27 1
    26   13   14 2
    27   13   29 1
    28   14   28 1
    29   15   16 2
    30   15   17 1
@<TRIPOS>MOLECULE
ZINC00005882
   32    34     0     0     0
SMALL
USER_CHARGES
2-ethyl-4-(3-pyridyl)phthalazin-1-one
@<TRIPOS>ATOM
      1 C1         -2.3206   -4.7009   -1.6959 C.3       1 <0>        -0.1686
      2 C2         -2.2822   -4.3088   -0.2175 C.3       1 <0>         0.1238
      3 N1         -2.3984   -2.8536   -0.0950 N.am      1 <0>        -0.4251
      4 C3         -3.6236   -2.3010    0.0164 C.2       1 <0>         0.5271
      5 O1         -4.6204   -3.0010    0.0153 O.2       1 <0>        -0.5152
      6 C4         -3.7370   -0.8418    0.1396 C.ar      1 <0>        -0.1243
      7 C5         -4.9724   -0.2063    0.2577 C.ar      1 <0>        -0.0526
      8 C6         -5.0222    1.1656    0.3699 C.ar      1 <0>        -0.1103
      9 C7         -3.8559    1.9195    0.3665 C.ar      1 <0>        -0.0859
     10 C8         -2.6252    1.3118    0.2508 C.ar      1 <0>        -0.1064
     11 C9         -2.5508   -0.0756    0.1360 C.ar      1 <0>        -0.0544
     12 C10        -1.2637   -0.7745    0.0095 C.2       1 <0>         0.1779
     13 N2         -1.2387   -2.0779   -0.1018 N.2       1 <0>        -0.2214
     14 C11         0.0021   -0.0041    0.0020 C.ar      1 <0>        -0.0901
     15 C12         0.1767    1.0847    0.8625 C.ar      1 <0>        -0.0550
     16 C13         1.3775    1.7710    0.8169 C.ar      1 <0>        -0.1701
     17 C14         2.3575    1.3622   -0.0697 C.ar      1 <0>         0.1150
     18 N3          2.1643    0.3313   -0.8694 N.ar      1 <0>        -0.4811
     19 C15         1.0386   -0.3528   -0.8624 C.ar      1 <0>         0.1419
     20 H1         -3.2633   -4.3735   -2.1342 H         1 <0>         0.0598
     21 H2         -1.4917   -4.2248   -2.2197 H         1 <0>         0.0624
     22 H3         -2.2342   -5.7836   -1.7871 H         1 <0>         0.0779
     23 H4         -1.3394   -4.6363    0.2208 H         1 <0>         0.0954
     24 H5         -3.1111   -4.7849    0.3063 H         1 <0>         0.0999
     25 H6         -5.8838   -0.7857    0.2608 H         1 <0>         0.1446
     26 H7         -5.9780    1.6600    0.4619 H         1 <0>         0.1389
     27 H8         -3.9144    2.9943    0.4558 H         1 <0>         0.1380
     28 H9         -1.7236    1.9063    0.2490 H         1 <0>         0.1439
     29 H10        -0.6058    1.3825    1.5447 H         1 <0>         0.1445
     30 H11         1.5479    2.6166    1.4669 H         1 <0>         0.1448
     31 H12         3.2958    1.8957   -0.1077 H         1 <0>         0.1624
     32 H13         0.9194   -1.1941   -1.5291 H         1 <0>         0.1623
@<TRIPOS>BOND
     1    1    2 1
     2    1   20 1
     3    1   21 1
     4    1   22 1
     5    2    3 1
     6    2   23 1
     7    2   24 1
     8    3   13 1
     9    3    4 am
    10    4    5 2
    11    4    6 1
    12    6   11 ar
    13    6    7 ar
    14    7    8 ar
    15    7   25 1
    16    8    9 ar
    17    8   26 1
    18    9   10 ar
    19    9   27 1
    20   10   11 ar
    21   10   28 1
    22   11   12 1
    23   12   13 2
    24   12   14 1
    25   14   19 ar
    26   14   15 ar
    27   15   16 ar
    28   15   29 1
    29   16   17 ar
    30   16   30 1
    31   17   18 ar
    32   17   31 1
    33   18   19 ar
    34   19   32 1
@<TRIPOS>MOLECULE
ZINC29136213
   39    43     0     0     0
SMALL
USER_CHARGES
2-(6-chloro-1H-phenanthro[9,10-d]imidazol-2-yl)benzene-1,3-dicarbonitrile
@<TRIPOS>ATOM
      1 C1         -2.8499   11.1210   -0.1519 C.ar      1 <0>        -0.1066
      2 C2         -3.5503    9.9232   -0.2140 C.ar      1 <0>        -0.1052
      3 C3         -2.8939    8.7274   -0.1693 C.ar      1 <0>        -0.1112
      4 C4         -1.4980    8.6990   -0.0596 C.ar      1 <0>        -0.0109
      5 C5         -0.7834    9.9138    0.0038 C.ar      1 <0>        -0.0207
      6 C6         -1.4778   11.1248   -0.0439 C.ar      1 <0>        -0.0984
      7 C7          0.6814    9.8930    0.1185 C.ar      1 <0>        -0.0294
      8 C8          1.4080   11.0849    0.1821 C.ar      1 <0>        -0.0941
      9 C9          2.7805   11.0423    0.2890 C.ar      1 <0>        -0.0289
     10 C10         3.4471    9.8238    0.3339 C.ar      1 <0>        -0.1037
     11 C11         2.7558    8.6478    0.2731 C.ar      1 <0>        -0.0766
     12 C12         1.3623    8.6610    0.1644 C.ar      1 <0>         0.0115
     13 C13         0.6067    7.4015    0.0976 C.ar      1 <0>         0.0636
     14 C14        -0.7807    7.4268   -0.0110 C.ar      1 <0>         0.0491
     15 N1         -1.1928    6.1162   -0.0568 N.pl3     1 <0>        -0.5691
     16 H1         -2.2630    5.8791   -0.1491 H         1 <0>         0.4475
     17 C15        -0.0704    5.3391    0.0314 C.2       1 <0>         0.2519
     18 N2          0.9874    6.1134    0.1193 N.2       1 <0>        -0.4330
     19 C16        -0.0504    3.8650    0.0228 C.ar      1 <0>         0.0794
     20 C17         1.1729    3.1717   -0.0396 C.ar      1 <0>         0.0186
     21 C18         1.1768    1.7765   -0.0465 C.ar      1 <0>        -0.0346
     22 C19        -0.0125    1.0758    0.0080 C.ar      1 <0>        -0.1077
     23 C20        -1.2207    1.7433    0.0642 C.ar      1 <0>        -0.0338
     24 C21        -1.2544    3.1381    0.0774 C.ar      1 <0>        -0.0302
     25 C22        -2.5084    3.8268    0.1407 C.1       1 <0>         0.2598
     26 N3         -3.5031    4.3731    0.1910 N.1       1 <0>        -0.4021
     27 C23         2.4077    3.8948   -0.0952 C.1       1 <0>         0.2471
     28 N4          3.3872    4.4684   -0.1393 N.1       1 <0>        -0.3734
     29 Cl1         3.6846   12.5221    0.3676 Cl        1 <0>        -0.0630
     30 H2         -3.3865   12.0575   -0.1890 H         1 <0>         0.1329
     31 H3         -4.6269    9.9383   -0.2990 H         1 <0>         0.1306
     32 H4         -3.4508    7.8033   -0.2188 H         1 <0>         0.1195
     33 H5         -0.9403   12.0603    0.0043 H         1 <0>         0.1368
     34 H6          0.8958   12.0350    0.1480 H         1 <0>         0.1430
     35 H7          4.5237    9.8068    0.4175 H         1 <0>         0.1393
     36 H8          3.2857    7.7074    0.3086 H         1 <0>         0.1441
     37 H9          2.1140    1.2418   -0.0943 H         1 <0>         0.1532
     38 H10         0.0021   -0.0041    0.0020 H         1 <0>         0.1545
     39 H11        -2.1432    1.1829    0.1019 H         1 <0>         0.1505
@<TRIPOS>BOND
     1    1    6 ar
     2    1    2 ar
     3    1   30 1
     4    2    3 ar
     5    2   31 1
     6    3    4 ar
     7    3   32 1
     8    4   14 ar
     9    4    5 ar
    10    5    6 ar
    11    5    7 ar
    12    6   33 1
    13    7   12 ar
    14    7    8 ar
    15    8    9 ar
    16    8   34 1
    17    9   10 ar
    18    9   29 1
    19   10   11 ar
    20   10   35 1
    21   11   12 ar
    22   11   36 1
    23   12   13 ar
    24   13   18 1
    25   13   14 ar
    26   14   15 1
    27   15   16 1
    28   15   17 1
    29   17   18 2
    30   17   19 1
    31   19   24 ar
    32   19   20 ar
    33   20   21 ar
    34   20   27 1
    35   21   22 ar
    36   21   37 1
    37   22   23 ar
    38   22   38 1
    39   23   24 ar
    40   23   39 1
    41   24   25 1
    42   25   26 3
    43   27   28 3
@<TRIPOS>MOLECULE
ZINC29394024
   28    30     0     0     0
SMALL
USER_CHARGES
6-(imidazol-1-ylmethyl)-1H-indole-2-carboxylic acid
@<TRIPOS>ATOM
      1 C1         -0.3908    2.8076   -1.7712 C.ar      1 <0>        -0.1386
      2 C2         -1.0378    3.2779   -2.8769 C.ar      1 <0>        -0.0716
      3 C3         -2.0656    2.5230   -3.4566 C.ar      1 <0>        -0.0976
      4 C4         -2.9082    2.7260   -4.5758 C.2       1 <0>        -0.1893
      5 C5         -3.7334    1.6500   -4.6731 C.2       1 <0>         0.0695
      6 N1         -3.4456    0.7649   -3.6516 N.pl3     1 <0>        -0.5755
      7 H1         -4.0119   -0.1738   -3.5613 H         1 <0>         0.4528
      8 C6         -2.4232    1.2825   -2.8922 C.ar      1 <0>         0.0942
      9 C7         -1.7449    0.8220   -1.7674 C.ar      1 <0>        -0.0985
     10 C8         -0.7416    1.5850   -1.2129 C.ar      1 <0>        -0.1189
     11 C9         -0.0127    1.0858    0.0080 C.3       1 <0>         0.1522
     12 N2         -0.6984    1.5583    1.2133 N.pl3     1 <0>        -0.4494
     13 C10        -0.4510    2.7258    1.8836 C.2       1 <0>        -0.0518
     14 C11        -1.3044    2.7657    2.9247 C.2       1 <0>        -0.0364
     15 N3         -2.0460    1.6485    2.8963 N.2       1 <0>        -0.4999
     16 C12        -1.6886    0.9205    1.8740 C.2       1 <0>         0.1828
     17 C13        -4.7658    1.4586   -5.7004 C.2       1 <0>         0.5096
     18 O1         -4.9355    2.3047   -6.5567 O.co2     1 <0>        -0.6091
     19 O2         -5.5253    0.3444   -5.6936 O.co2     1 <0>        -0.7528
     20 H2          0.4010    3.3916   -1.3258 H         1 <0>         0.1140
     21 H3         -0.7583    4.2298   -3.3037 H         1 <0>         0.1199
     22 H4         -2.8974    3.5820   -5.2343 H         1 <0>         0.1442
     23 H5         -2.0075   -0.1291   -1.3283 H         1 <0>         0.1157
     24 H6          0.0022   -0.0141    0.0020 H         1 <0>         0.0992
     25 H7          1.0193    1.4665    0.0002 H         1 <0>         0.0994
     26 H8          0.2853    3.4726    1.6258 H         1 <0>         0.1705
     27 H9         -1.3761    3.5567    3.6565 H         1 <0>         0.1657
     28 H10        -2.1146   -0.0337    1.6010 H         1 <0>         0.1998
@<TRIPOS>BOND
     1    1   10 ar
     2    1    2 ar
     3    1   20 1
     4    2    3 ar
     5    2   21 1
     6    3    8 ar
     7    3    4 1
     8    4    5 2
     9    4   22 1
    10    5    6 1
    11    5   17 1
    12    6    7 1
    13    6    8 1
    14    8    9 ar
    15    9   10 ar
    16    9   23 1
    17   10   11 1
    18   11   12 1
    19   11   24 1
    20   11   25 1
    21   12   16 1
    22   12   13 1
    23   13   14 2
    24   13   26 1
    25   14   15 1
    26   14   27 1
    27   15   16 2
    28   16   28 1
    29   17   18 2
    30   17   19 1
@<TRIPOS>MOLECULE
ZINC29394024
   29    31     0     0     0
SMALL
USER_CHARGES
6-(imidazol-1-ylmethyl)-1H-indole-2-carboxylic acid
@<TRIPOS>ATOM
      1 C1         -0.3908    2.8076   -1.7712 C.ar      1 <0>        -0.1396
      2 C2         -1.0378    3.2779   -2.8769 C.ar      1 <0>        -0.0652
      3 C3         -2.0656    2.5230   -3.4566 C.ar      1 <0>        -0.0838
      4 C4         -2.9082    2.7260   -4.5758 C.2       1 <0>        -0.1914
      5 C5         -3.7334    1.6500   -4.6731 C.2       1 <0>         0.0874
      6 N1         -3.4456    0.7649   -3.6516 N.pl3     1 <0>        -0.5736
      7 H1         -4.0119   -0.1738   -3.5613 H         1 <0>         0.4575
      8 C6         -2.4232    1.2825   -2.8922 C.ar      1 <0>         0.0875
      9 C7         -1.7449    0.8220   -1.7674 C.ar      1 <0>        -0.0898
     10 C8         -0.7416    1.5850   -1.2129 C.ar      1 <0>        -0.1519
     11 C9         -0.0127    1.0858    0.0080 C.3       1 <0>         0.1457
     12 N2         -0.6984    1.5583    1.2133 N.pl3     1 <0>        -0.3994
     13 C10        -0.4510    2.7258    1.8836 C.2       1 <0>         0.0254
     14 C11        -1.3044    2.7657    2.9247 C.2       1 <0>        -0.0128
     15 N3         -2.0460    1.6485    2.8963 N.pl3     1 <0>        -0.4976
     16 C12        -1.6886    0.9205    1.8740 C.cat     1 <0>         0.2926
     17 C13        -4.7658    1.4586   -5.7004 C.2       1 <0>         0.5042
     18 O1         -4.9355    2.3047   -6.5567 O.co2     1 <0>        -0.5995
     19 O2         -5.5253    0.3444   -5.6936 O.co2     1 <0>        -0.7461
     20 H2          0.4010    3.3916   -1.3258 H         1 <0>         0.1175
     21 H3         -0.7583    4.2298   -3.3037 H         1 <0>         0.1261
     22 H4         -2.8974    3.5820   -5.2343 H         1 <0>         0.1502
     23 H5         -2.0075   -0.1291   -1.3283 H         1 <0>         0.1176
     24 H6          0.0022   -0.0141    0.0020 H         1 <0>         0.1233
     25 H7          1.0193    1.4665    0.0002 H         1 <0>         0.1288
     26 H8          0.2853    3.4726    1.6258 H         1 <0>         0.2161
     27 H9         -1.3761    3.5567    3.6565 H         1 <0>         0.2177
     28 H10        -2.1146   -0.0337    1.6010 H         1 <0>         0.2523
     29 H11        -2.8105    1.4761    3.6682 H         1 <0>         0.5010
@<TRIPOS>BOND
     1    1   10 ar
     2    1    2 ar
     3    1   20 1
     4    2    3 ar
     5    2   21 1
     6    3    8 ar
     7    3    4 1
     8    4    5 2
     9    4   22 1
    10    5    6 1
    11    5   17 1
    12    6    7 1
    13    6    8 1
    14    8    9 ar
    15    9   10 ar
    16    9   23 1
    17   10   11 1
    18   11   12 1
    19   11   24 1
    20   11   25 1
    21   12   16 1
    22   12   13 1
    23   13   14 2
    24   13   26 1
    25   14   15 1
    26   14   27 1
    27   15   16 2
    28   15   29 1
    29   16   28 1
    30   17   18 2
    31   17   19 1
@<TRIPOS>MOLECULE
ZINC29395371
   28    29     0     0     0
SMALL
USER_CHARGES
2-[4-(imidazol-1-ylmethyl)phenoxy]acetic acid
@<TRIPOS>ATOM
      1 C1          1.1698    2.0883    0.0021 C.ar      1 <0>        -0.0547
      2 C2          2.3774    1.4175   -0.0131 C.ar      1 <0>        -0.2175
      3 C3          2.3989    0.0304   -0.0203 C.ar      1 <0>         0.1550
      4 C4          1.2070   -0.6796   -0.0127 C.ar      1 <0>        -0.1604
      5 C5          0.0021   -0.0041    0.0020 C.ar      1 <0>        -0.0587
      6 C6         -0.0167    1.3784    0.0096 C.ar      1 <0>        -0.1786
      7 C7         -1.3326    2.1128    0.0199 C.3       1 <0>         0.1539
      8 N1         -1.7524    2.3433    1.4043 N.pl3     1 <0>        -0.4511
      9 C8         -1.4483    3.4332    2.1746 C.2       1 <0>        -0.0532
     10 C9         -2.0318    3.2387    3.3726 C.2       1 <0>        -0.0347
     11 N2         -2.6748    2.0622    3.3349 N.2       1 <0>        -0.4996
     12 C10        -2.5167    1.5229    2.1571 C.2       1 <0>         0.1819
     13 O1          3.5855   -0.6319   -0.0353 O.3       1 <0>        -0.2842
     14 C11         4.7725    0.1638   -0.0424 C.3       1 <0>         0.0150
     15 C12         5.9808   -0.7367   -0.0588 C.2       1 <0>         0.4691
     16 O2          5.8399   -1.9367   -0.0639 O.co2     1 <0>        -0.6129
     17 O3          7.2135   -0.2056   -0.0677 O.co2     1 <0>        -0.7536
     18 H1          1.1525    3.1682    0.0077 H         1 <0>         0.1201
     19 H2          3.3039    1.9724   -0.0187 H         1 <0>         0.1323
     20 H3          1.2211   -1.7595   -0.0179 H         1 <0>         0.1336
     21 H4         -0.9260   -0.5563    0.0079 H         1 <0>         0.1252
     22 H5         -1.2175    3.0786   -0.4940 H         1 <0>         0.0975
     23 H6         -2.0930    1.5101   -0.4983 H         1 <0>         0.1006
     24 H7         -0.8549    4.2855    1.8784 H         1 <0>         0.1703
     25 H8         -1.9895    3.9120    4.2160 H         1 <0>         0.1663
     26 H9         -2.9269    0.5762    1.8380 H         1 <0>         0.2008
     27 H10         4.7797    0.8035   -0.9372 H         1 <0>         0.0689
     28 H11         4.7970    0.7939    0.8589 H         1 <0>         0.0687
@<TRIPOS>BOND
     1    1    6 ar
     2    1    2 ar
     3    1   18 1
     4    2    3 ar
     5    2   19 1
     6    3    4 ar
     7    3   13 1
     8    4    5 ar
     9    4   20 1
    10    5    6 ar
    11    5   21 1
    12    6    7 1
    13    7    8 1
    14    7   22 1
    15    7   23 1
    16    8   12 1
    17    8    9 1
    18    9   10 2
    19    9   24 1
    20   10   11 1
    21   10   25 1
    22   11   12 2
    23   12   26 1
    24   13   14 1
    25   14   15 1
    26   14   27 1
    27   14   28 1
    28   15   16 2
    29   15   17 1
@<TRIPOS>MOLECULE
ZINC29395371
   29    30     0     0     0
SMALL
USER_CHARGES
2-[4-(imidazol-1-ylmethyl)phenoxy]acetic acid
@<TRIPOS>ATOM
      1 C1          1.1698    2.0883    0.0021 C.ar      1 <0>        -0.0457
      2 C2          2.3774    1.4175   -0.0131 C.ar      1 <0>        -0.2181
      3 C3          2.3989    0.0304   -0.0203 C.ar      1 <0>         0.1751
      4 C4          1.2070   -0.6796   -0.0127 C.ar      1 <0>        -0.1608
      5 C5          0.0021   -0.0041    0.0020 C.ar      1 <0>        -0.0549
      6 C6         -0.0167    1.3784    0.0096 C.ar      1 <0>        -0.2131
      7 C7         -1.3326    2.1128    0.0199 C.3       1 <0>         0.1474
      8 N1         -1.7524    2.3433    1.4043 N.pl3     1 <0>        -0.4011
      9 C8         -1.4483    3.4332    2.1746 C.2       1 <0>         0.0233
     10 C9         -2.0318    3.2387    3.3726 C.2       1 <0>        -0.0108
     11 N2         -2.6748    2.0622    3.3349 N.pl3     1 <0>        -0.4975
     12 C10        -2.5167    1.5229    2.1571 C.cat     1 <0>         0.2923
     13 O1          3.5855   -0.6319   -0.0353 O.3       1 <0>        -0.2764
     14 C11         4.7725    0.1638   -0.0424 C.3       1 <0>         0.0118
     15 C12         5.9808   -0.7367   -0.0588 C.2       1 <0>         0.4670
     16 O2          5.8399   -1.9367   -0.0639 O.co2     1 <0>        -0.6101
     17 O3          7.2135   -0.2056   -0.0677 O.co2     1 <0>        -0.7453
     18 H1          1.1525    3.1682    0.0077 H         1 <0>         0.1246
     19 H2          3.3039    1.9724   -0.0187 H         1 <0>         0.1391
     20 H3          1.2211   -1.7595   -0.0179 H         1 <0>         0.1398
     21 H4         -0.9260   -0.5563    0.0079 H         1 <0>         0.1274
     22 H5         -1.2175    3.0786   -0.4940 H         1 <0>         0.1268
     23 H6         -2.0930    1.5101   -0.4983 H         1 <0>         0.1250
     24 H7         -0.8549    4.2855    1.8784 H         1 <0>         0.2159
     25 H8         -1.9895    3.9120    4.2160 H         1 <0>         0.2183
     26 H9         -2.9269    0.5762    1.8380 H         1 <0>         0.2532
     27 H10         4.7797    0.8035   -0.9372 H         1 <0>         0.0735
     28 H11         4.7970    0.7939    0.8589 H         1 <0>         0.0717
     29 H12        -3.2202    1.7049    4.2208 H         1 <0>         0.5015
@<TRIPOS>BOND
     1    1    6 ar
     2    1    2 ar
     3    1   18 1
     4    2    3 ar
     5    2   19 1
     6    3    4 ar
     7    3   13 1
     8    4    5 ar
     9    4   20 1
    10    5    6 ar
    11    5   21 1
    12    6    7 1
    13    7    8 1
    14    7   22 1
    15    7   23 1
    16    8   12 1
    17    8    9 1
    18    9   10 2
    19    9   24 1
    20   10   11 1
    21   10   25 1
    22   11   12 2
    23   11   29 1
    24   12   26 1
    25   13   14 1
    26   14   15 1
    27   14   27 1
    28   14   28 1
    29   15   16 2
    30   15   17 1
@<TRIPOS>MOLECULE
ZINC29394466
   27    29     0     0     0
SMALL
USER_CHARGES
6-(imidazol-1-ylmethyl)benzothiophene-2-carboxylic acid
@<TRIPOS>ATOM
      1 C1         -0.0163    1.3538    0.0095 C.ar      1 <0>        -0.1078
      2 C2          0.0021   -0.0041    0.0020 C.ar      1 <0>        -0.0813
      3 C3          1.2308   -0.7131   -0.0135 C.ar      1 <0>        -0.0610
      4 C4          1.4328   -2.1046   -0.0225 C.2       1 <0>        -0.1580
      5 C5          2.6968   -2.6068   -0.0368 C.2       1 <0>        -0.0984
      6 S1          3.7095   -1.1375   -0.0387 S.3       1 <0>         0.0773
      7 C6          2.4094    0.0709   -0.0205 C.ar      1 <0>        -0.1463
      8 C7          2.3745    1.4489   -0.0136 C.ar      1 <0>        -0.0446
      9 C8          1.1567    2.0985    0.0023 C.ar      1 <0>        -0.1199
     10 C9          1.0998    3.6044    0.0108 C.3       1 <0>         0.1520
     11 N1          1.0945    4.0850    1.3947 N.pl3     1 <0>        -0.4521
     12 C10        -0.0096    4.3150    2.1704 C.2       1 <0>        -0.0534
     13 C11         0.4370    4.7429    3.3667 C.2       1 <0>        -0.0340
     14 N2          1.7769    4.7821    3.3196 N.2       1 <0>        -0.4982
     15 C12         2.1778    4.3894    2.1414 C.2       1 <0>         0.1842
     16 C13         3.1232   -4.0119   -0.0472 C.2       1 <0>         0.5218
     17 O1          2.2922   -4.8993   -0.0433 O.co2     1 <0>        -0.6057
     18 O2          4.4363   -4.3180   -0.0611 O.co2     1 <0>        -0.7314
     19 H1         -0.9663    1.8676    0.0167 H         1 <0>         0.1197
     20 H2         -0.9294   -0.5505    0.0083 H         1 <0>         0.1243
     21 H3          0.5852   -2.7740   -0.0176 H         1 <0>         0.1402
     22 H4          3.2935    2.0162   -0.0189 H         1 <0>         0.1271
     23 H5          1.9785    4.0075   -0.5140 H         1 <0>         0.1039
     24 H6          0.1836    3.9396   -0.4973 H         1 <0>         0.1022
     25 H7         -1.0406    4.1774    1.8798 H         1 <0>         0.1710
     26 H8         -0.1763    5.0113    4.2142 H         1 <0>         0.1665
     27 H9          3.2056    4.3190    1.8174 H         1 <0>         0.2017
@<TRIPOS>BOND
     1    1    9 ar
     2    1    2 ar
     3    1   19 1
     4    2    3 ar
     5    2   20 1
     6    3    7 ar
     7    3    4 1
     8    4    5 2
     9    4   21 1
    10    5    6 1
    11    5   16 1
    12    6    7 1
    13    7    8 ar
    14    8    9 ar
    15    8   22 1
    16    9   10 1
    17   10   11 1
    18   10   23 1
    19   10   24 1
    20   11   15 1
    21   11   12 1
    22   12   13 2
    23   12   25 1
    24   13   14 1
    25   13   26 1
    26   14   15 2
    27   15   27 1
    28   16   17 2
    29   16   18 1
@<TRIPOS>MOLECULE
ZINC29394466
   28    30     0     0     0
SMALL
USER_CHARGES
6-(imidazol-1-ylmethyl)benzothiophene-2-carboxylic acid
@<TRIPOS>ATOM
      1 C1         -0.0163    1.3538    0.0095 C.ar      1 <0>        -0.1062
      2 C2          0.0021   -0.0041    0.0020 C.ar      1 <0>        -0.0784
      3 C3          1.2308   -0.7131   -0.0135 C.ar      1 <0>        -0.0399
      4 C4          1.4328   -2.1046   -0.0225 C.2       1 <0>        -0.1718
      5 C5          2.6968   -2.6068   -0.0368 C.2       1 <0>        -0.0767
      6 S1          3.7095   -1.1375   -0.0387 S.3       1 <0>         0.0967
      7 C6          2.4094    0.0709   -0.0205 C.ar      1 <0>        -0.1626
      8 C7          2.3745    1.4489   -0.0136 C.ar      1 <0>        -0.0329
      9 C8          1.1567    2.0985    0.0023 C.ar      1 <0>        -0.1569
     10 C9          1.0998    3.6044    0.0108 C.3       1 <0>         0.1465
     11 N1          1.0945    4.0850    1.3947 N.pl3     1 <0>        -0.4025
     12 C10        -0.0096    4.3150    2.1704 C.2       1 <0>         0.0241
     13 C11         0.4370    4.7429    3.3667 C.2       1 <0>        -0.0108
     14 N2          1.7769    4.7821    3.3196 N.pl3     1 <0>        -0.4968
     15 C12         2.1778    4.3894    2.1414 C.cat     1 <0>         0.2946
     16 C13         3.1232   -4.0119   -0.0472 C.2       1 <0>         0.5156
     17 O1          2.2922   -4.8993   -0.0433 O.co2     1 <0>        -0.5960
     18 O2          4.4363   -4.3180   -0.0611 O.co2     1 <0>        -0.7233
     19 H1         -0.9663    1.8676    0.0167 H         1 <0>         0.1228
     20 H2         -0.9294   -0.5505    0.0083 H         1 <0>         0.1301
     21 H3          0.5852   -2.7740   -0.0176 H         1 <0>         0.1462
     22 H4          3.2935    2.0162   -0.0189 H         1 <0>         0.1285
     23 H5          1.9785    4.0075   -0.5140 H         1 <0>         0.1277
     24 H6          0.1836    3.9396   -0.4973 H         1 <0>         0.1311
     25 H7         -1.0406    4.1774    1.8798 H         1 <0>         0.2165
     26 H8         -0.1763    5.0113    4.2142 H         1 <0>         0.2184
     27 H9          3.2056    4.3190    1.8174 H         1 <0>         0.2540
     28 H10         2.3488    5.1115    4.1996 H         1 <0>         0.5022
@<TRIPOS>BOND
     1    1    9 ar
     2    1    2 ar
     3    1   19 1
     4    2    3 ar
     5    2   20 1
     6    3    7 ar
     7    3    4 1
     8    4    5 2
     9    4   21 1
    10    5    6 1
    11    5   16 1
    12    6    7 1
    13    7    8 ar
    14    8    9 ar
    15    8   22 1
    16    9   10 1
    17   10   11 1
    18   10   23 1
    19   10   24 1
    20   11   15 1
    21   11   12 1
    22   12   13 2
    23   12   25 1
    24   13   14 1
    25   13   26 1
    26   14   15 2
    27   14   28 1
    28   15   27 1
    29   16   17 2
    30   16   18 1
@<TRIPOS>MOLECULE
ZINC29395604
   27    29     0     0     0
SMALL
USER_CHARGES
6-(imidazol-1-ylmethyl)benzofuran-2-carboxylic acid
@<TRIPOS>ATOM
      1 C1          1.2044   -0.6974   -0.0127 C.ar      1 <0>        -0.1248
      2 C2          2.3927   -0.0227   -0.0204 C.ar      1 <0>        -0.0718
      3 C3          2.3958    1.3741   -0.0134 C.ar      1 <0>        -0.1166
      4 C4          3.4464    2.3910   -0.0173 C.2       1 <0>        -0.2009
      5 C5          2.8088    3.5910   -0.0049 C.2       1 <0>         0.0414
      6 O1          1.4732    3.3971    0.0061 O.3       1 <0>        -0.1681
      7 C6          1.1792    2.0824    0.0020 C.ar      1 <0>         0.0406
      8 C7         -0.0166    1.3741    0.0096 C.ar      1 <0>        -0.0789
      9 C8          0.0021   -0.0041    0.0020 C.ar      1 <0>        -0.1113
     10 C9         -1.2976   -0.7668    0.0103 C.3       1 <0>         0.1519
     11 N1         -1.7320   -1.0065   -1.3681 N.pl3     1 <0>        -0.4524
     12 C10        -2.5348   -0.1919   -2.1201 C.2       1 <0>        -0.0511
     13 C11        -2.6779   -0.7859   -3.3201 C.2       1 <0>        -0.0339
     14 N2         -1.9891   -1.9366   -3.2983 N.2       1 <0>        -0.4990
     15 C12        -1.4199   -2.0754   -2.1322 C.2       1 <0>         0.1820
     16 C13         3.4725    4.9005   -0.0041 C.2       1 <0>         0.5219
     17 O2          4.6864    4.9668   -0.0152 O.co2     1 <0>        -0.5963
     18 O3          2.7357    6.0299    0.0088 O.co2     1 <0>        -0.7247
     19 H1          1.2008   -1.7774   -0.0178 H         1 <0>         0.1247
     20 H2          3.3254   -0.5670   -0.0323 H         1 <0>         0.1277
     21 H3          4.5132    2.2225   -0.0280 H         1 <0>         0.1622
     22 H4         -0.9585    1.9026    0.0169 H         1 <0>         0.1288
     23 H5         -1.1543   -1.7298    0.5223 H         1 <0>         0.1058
     24 H6         -2.0634   -0.1806    0.5394 H         1 <0>         0.1021
     25 H7         -2.9682    0.7479   -1.8111 H         1 <0>         0.1723
     26 H8         -3.2504   -0.4047   -4.1528 H         1 <0>         0.1672
     27 H9         -0.8011   -2.9069   -1.8288 H         1 <0>         0.2012
@<TRIPOS>BOND
     1    1    9 ar
     2    1    2 ar
     3    1   19 1
     4    2    3 ar
     5    2   20 1
     6    3    7 ar
     7    3    4 1
     8    4    5 2
     9    4   21 1
    10    5    6 1
    11    5   16 1
    12    6    7 1
    13    7    8 ar
    14    8    9 ar
    15    8   22 1
    16    9   10 1
    17   10   11 1
    18   10   23 1
    19   10   24 1
    20   11   15 1
    21   11   12 1
    22   12   13 2
    23   12   25 1
    24   13   14 1
    25   13   26 1
    26   14   15 2
    27   15   27 1
    28   16   17 2
    29   16   18 1
@<TRIPOS>MOLECULE
ZINC29395604
   28    30     0     0     0
SMALL
USER_CHARGES
6-(imidazol-1-ylmethyl)benzofuran-2-carboxylic acid
@<TRIPOS>ATOM
      1 C1          1.2044   -0.6974   -0.0127 C.ar      1 <0>        -0.1268
      2 C2          2.3927   -0.0227   -0.0204 C.ar      1 <0>        -0.0682
      3 C3          2.3958    1.3741   -0.0134 C.ar      1 <0>        -0.1002
      4 C4          3.4464    2.3910   -0.0173 C.2       1 <0>        -0.2064
      5 C5          2.8088    3.5910   -0.0049 C.2       1 <0>         0.0605
      6 O1          1.4732    3.3971    0.0061 O.3       1 <0>        -0.1639
      7 C6          1.1792    2.0824    0.0020 C.ar      1 <0>         0.0359
      8 C7         -0.0166    1.3741    0.0096 C.ar      1 <0>        -0.0666
      9 C8          0.0021   -0.0041    0.0020 C.ar      1 <0>        -0.1460
     10 C9         -1.2976   -0.7668    0.0103 C.3       1 <0>         0.1461
     11 N1         -1.7320   -1.0065   -1.3681 N.pl3     1 <0>        -0.4027
     12 C10        -2.5348   -0.1919   -2.1201 C.2       1 <0>         0.0252
     13 C11        -2.6779   -0.7859   -3.3201 C.2       1 <0>        -0.0101
     14 N2         -1.9891   -1.9366   -3.2983 N.pl3     1 <0>        -0.4971
     15 C12        -1.4199   -2.0754   -2.1322 C.cat     1 <0>         0.2933
     16 C13         3.4725    4.9005   -0.0041 C.2       1 <0>         0.5165
     17 O2          4.6864    4.9668   -0.0152 O.co2     1 <0>        -0.5868
     18 O3          2.7357    6.0299    0.0088 O.co2     1 <0>        -0.7166
     19 H1          1.2008   -1.7774   -0.0178 H         1 <0>         0.1263
     20 H2          3.3254   -0.5670   -0.0323 H         1 <0>         0.1334
     21 H3          4.5132    2.2225   -0.0280 H         1 <0>         0.1678
     22 H4         -0.9585    1.9026    0.0169 H         1 <0>         0.1330
     23 H5         -1.1543   -1.7298    0.5223 H         1 <0>         0.1302
     24 H6         -2.0634   -0.1806    0.5394 H         1 <0>         0.1311
     25 H7         -2.9682    0.7479   -1.8111 H         1 <0>         0.2176
     26 H8         -3.2504   -0.4047   -4.1528 H         1 <0>         0.2192
     27 H9         -0.8011   -2.9069   -1.8288 H         1 <0>         0.2538
     28 H10        -1.9759   -2.5866   -4.1856 H         1 <0>         0.5016
@<TRIPOS>BOND
     1    1    9 ar
     2    1    2 ar
     3    1   19 1
     4    2    3 ar
     5    2   20 1
     6    3    7 ar
     7    3    4 1
     8    4    5 2
     9    4   21 1
    10    5    6 1
    11    5   16 1
    12    6    7 1
    13    7    8 ar
    14    8    9 ar
    15    8   22 1
    16    9   10 1
    17   10   11 1
    18   10   23 1
    19   10   24 1
    20   11   15 1
    21   11   12 1
    22   12   13 2
    23   12   25 1
    24   13   14 1
    25   13   26 1
    26   14   15 2
    27   14   28 1
    28   15   27 1
    29   16   17 2
    30   16   18 1
@<TRIPOS>MOLECULE
ZINC29388911
   27    29     0     0     0
SMALL
USER_CHARGES
6-(imidazol-1-ylmethyl)benzothiophene-3-carboxylic acid
@<TRIPOS>ATOM
      1 C1          1.0581   -0.6913    0.5826 C.ar      1 <0>        -0.1155
      2 C2          1.0955   -2.0626    0.5913 C.ar      1 <0>        -0.0566
      3 C3          0.0596   -2.8113   -0.0036 C.ar      1 <0>        -0.0407
      4 C4         -0.9965   -2.0884   -0.5898 C.ar      1 <0>        -0.1372
      5 C5         -1.0276   -0.7101   -0.5887 C.ar      1 <0>        -0.0588
      6 C6          0.0021   -0.0041    0.0020 C.ar      1 <0>        -0.1151
      7 C7         -0.0184    1.5028    0.0103 C.3       1 <0>         0.1523
      8 N1         -0.7041    1.9752    1.2156 N.pl3     1 <0>        -0.4514
      9 C8         -2.0427    2.2323    1.3405 C.2       1 <0>        -0.0537
     10 C9         -2.2446    2.6402    2.6080 C.2       1 <0>        -0.0343
     11 N2         -1.0600    2.6411    3.2372 N.2       1 <0>        -0.4993
     12 C10        -0.1327    2.2440    2.4093 C.2       1 <0>         0.1851
     13 S1         -2.0775   -3.3461   -1.2163 S.3       1 <0>         0.0436
     14 C11        -1.1942   -4.7549   -0.7366 C.2       1 <0>        -0.1323
     15 C12        -0.0909   -4.2652   -0.1077 C.2       1 <0>        -0.1497
     16 C13         0.9200   -5.1685    0.4512 C.2       1 <0>         0.5031
     17 O1          1.8995   -4.7135    1.0103 O.co2     1 <0>        -0.6269
     18 O2          0.7636   -6.5037    0.3453 O.co2     1 <0>        -0.7508
     19 H1          1.8638   -0.1363    1.0401 H         1 <0>         0.1234
     20 H2          1.9276   -2.5728    1.0536 H         1 <0>         0.1532
     21 H3         -1.8528   -0.1852   -1.0469 H         1 <0>         0.1238
     22 H4          1.0136    1.8836    0.0025 H         1 <0>         0.1052
     23 H5         -0.5504    1.8672   -0.8809 H         1 <0>         0.1007
     24 H6         -2.7932    2.1262    0.5711 H         1 <0>         0.1707
     25 H7         -3.1933    2.9211    3.0408 H         1 <0>         0.1662
     26 H8          0.9177    2.1459    2.6407 H         1 <0>         0.2019
     27 H9         -1.4589   -5.7893   -0.8993 H         1 <0>         0.1931
@<TRIPOS>BOND
     1    1    6 ar
     2    1    2 ar
     3    1   19 1
     4    2    3 ar
     5    2   20 1
     6    3   15 1
     7    3    4 ar
     8    4    5 ar
     9    4   13 1
    10    5    6 ar
    11    5   21 1
    12    6    7 1
    13    7    8 1
    14    7   22 1
    15    7   23 1
    16    8   12 1
    17    8    9 1
    18    9   10 2
    19    9   24 1
    20   10   11 1
    21   10   25 1
    22   11   12 2
    23   12   26 1
    24   13   14 1
    25   14   15 2
    26   14   27 1
    27   15   16 1
    28   16   17 2
    29   16   18 1
@<TRIPOS>MOLECULE
ZINC29388911
   28    30     0     0     0
SMALL
USER_CHARGES
6-(imidazol-1-ylmethyl)benzothiophene-3-carboxylic acid
@<TRIPOS>ATOM
      1 C1          1.0581   -0.6913    0.5826 C.ar      1 <0>        -0.1174
      2 C2          1.0955   -2.0626    0.5913 C.ar      1 <0>        -0.0537
      3 C3          0.0596   -2.8113   -0.0036 C.ar      1 <0>        -0.0217
      4 C4         -0.9965   -2.0884   -0.5898 C.ar      1 <0>        -0.1489
      5 C5         -1.0276   -0.7101   -0.5887 C.ar      1 <0>        -0.0456
      6 C6          0.0021   -0.0041    0.0020 C.ar      1 <0>        -0.1504
      7 C7         -0.0184    1.5028    0.0103 C.3       1 <0>         0.1465
      8 N1         -0.7041    1.9752    1.2156 N.pl3     1 <0>        -0.4020
      9 C8         -2.0427    2.2323    1.3405 C.2       1 <0>         0.0232
     10 C9         -2.2446    2.6402    2.6080 C.2       1 <0>        -0.0111
     11 N2         -1.0600    2.6411    3.2372 N.pl3     1 <0>        -0.4975
     12 C10        -0.1327    2.2440    2.4093 C.cat     1 <0>         0.2964
     13 S1         -2.0775   -3.3461   -1.2163 S.3       1 <0>         0.0668
     14 C11        -1.1942   -4.7549   -0.7366 C.2       1 <0>        -0.1179
     15 C12        -0.0909   -4.2652   -0.1077 C.2       1 <0>        -0.1583
     16 C13         0.9200   -5.1685    0.4512 C.2       1 <0>         0.5011
     17 O1          1.8995   -4.7135    1.0103 O.co2     1 <0>        -0.6277
     18 O2          0.7636   -6.5037    0.3453 O.co2     1 <0>        -0.7407
     19 H1          1.8638   -0.1363    1.0401 H         1 <0>         0.1247
     20 H2          1.9276   -2.5728    1.0536 H         1 <0>         0.1583
     21 H3         -1.8528   -0.1852   -1.0469 H         1 <0>         0.1276
     22 H4          1.0136    1.8836    0.0025 H         1 <0>         0.1294
     23 H5         -0.5504    1.8672   -0.8809 H         1 <0>         0.1297
     24 H6         -2.7932    2.1262    0.5711 H         1 <0>         0.2162
     25 H7         -3.1933    2.9211    3.0408 H         1 <0>         0.2182
     26 H8          0.9177    2.1459    2.6407 H         1 <0>         0.2545
     27 H9         -1.4589   -5.7893   -0.8993 H         1 <0>         0.1987
     28 H10        -0.9974    2.9487    4.2914 H         1 <0>         0.5017
@<TRIPOS>BOND
     1    1    6 ar
     2    1    2 ar
     3    1   19 1
     4    2    3 ar
     5    2   20 1
     6    3   15 1
     7    3    4 ar
     8    4    5 ar
     9    4   13 1
    10    5    6 ar
    11    5   21 1
    12    6    7 1
    13    7    8 1
    14    7   22 1
    15    7   23 1
    16    8   12 1
    17    8    9 1
    18    9   10 2
    19    9   24 1
    20   10   11 1
    21   10   25 1
    22   11   12 2
    23   11   28 1
    24   12   26 1
    25   13   14 1
    26   14   15 2
    27   14   27 1
    28   15   16 1
    29   16   17 2
    30   16   18 1
@<TRIPOS>MOLECULE
ZINC29391506
   28    30     0     0     0
SMALL
USER_CHARGES
5-(imidazol-1-ylmethyl)-1H-indole-2-carboxylic acid
@<TRIPOS>ATOM
      1 C1         -0.3911    2.8076   -1.7714 C.ar      1 <0>        -0.0963
      2 C2         -1.0440    3.2827   -2.8870 C.ar      1 <0>        -0.1233
      3 C3         -2.0655    2.5328   -3.4627 C.ar      1 <0>         0.0844
      4 C4         -2.4192    1.2930   -2.8942 C.ar      1 <0>        -0.1098
      5 C5         -1.7360    0.8292   -1.7626 C.ar      1 <0>        -0.0454
      6 C6         -0.7416    1.5850   -1.2129 C.ar      1 <0>        -0.1598
      7 C7         -0.0127    1.0858    0.0080 C.3       1 <0>         0.1534
      8 N1         -0.6984    1.5583    1.2133 N.pl3     1 <0>        -0.4492
      9 C8         -0.4510    2.7258    1.8836 C.2       1 <0>        -0.0537
     10 C9         -1.3044    2.7657    2.9247 C.2       1 <0>        -0.0367
     11 N2         -2.0460    1.6485    2.8963 N.2       1 <0>        -0.5007
     12 C10        -1.6886    0.9205    1.8740 C.2       1 <0>         0.1840
     13 C11        -3.4726    0.7645   -3.6783 C.2       1 <0>        -0.1845
     14 C12        -3.7348    1.6537   -4.6726 C.2       1 <0>         0.0841
     15 N3         -2.8826    2.7346   -4.5497 N.pl3     1 <0>        -0.5687
     16 H1         -2.7816    3.6500   -5.1513 H         1 <0>         0.4464
     17 C13        -4.7600    1.4913   -5.7120 C.2       1 <0>         0.5091
     18 O1         -5.4580    0.4960   -5.7271 O.co2     1 <0>        -0.6100
     19 O2         -4.9271    2.4462   -6.6494 O.co2     1 <0>        -0.7520
     20 H2          0.4010    3.3914   -1.3263 H         1 <0>         0.1166
     21 H3         -0.7644    4.2346   -3.3137 H         1 <0>         0.1178
     22 H4         -1.9982   -0.1223   -1.3241 H         1 <0>         0.1173
     23 H5          0.0022   -0.0141    0.0020 H         1 <0>         0.0991
     24 H6          1.0193    1.4665    0.0002 H         1 <0>         0.0964
     25 H7          0.2853    3.4726    1.6258 H         1 <0>         0.1694
     26 H8         -1.3761    3.5567    3.6565 H         1 <0>         0.1649
     27 H9         -2.1146   -0.0337    1.6010 H         1 <0>         0.2008
     28 H10        -3.9772   -0.1765   -3.5159 H         1 <0>         0.1465
@<TRIPOS>BOND
     1    1    6 ar
     2    1    2 ar
     3    1   20 1
     4    2    3 ar
     5    2   21 1
     6    3   15 1
     7    3    4 ar
     8    4    5 ar
     9    4   13 1
    10    5    6 ar
    11    5   22 1
    12    6    7 1
    13    7    8 1
    14    7   23 1
    15    7   24 1
    16    8   12 1
    17    8    9 1
    18    9   10 2
    19    9   25 1
    20   10   11 1
    21   10   26 1
    22   11   12 2
    23   12   27 1
    24   13   14 2
    25   13   28 1
    26   14   15 1
    27   14   17 1
    28   15   16 1
    29   17   18 2
    30   17   19 1
@<TRIPOS>MOLECULE
ZINC29391506
   29    31     0     0     0
SMALL
USER_CHARGES
5-(imidazol-1-ylmethyl)-1H-indole-2-carboxylic acid
@<TRIPOS>ATOM
      1 C1         -0.3911    2.8076   -1.7714 C.ar      1 <0>        -0.1019
      2 C2         -1.0440    3.2827   -2.8870 C.ar      1 <0>        -0.1129
      3 C3         -2.0655    2.5328   -3.4627 C.ar      1 <0>         0.0915
      4 C4         -2.4192    1.2930   -2.8942 C.ar      1 <0>        -0.1101
      5 C5         -1.7360    0.8292   -1.7626 C.ar      1 <0>        -0.0397
      6 C6         -0.7416    1.5850   -1.2129 C.ar      1 <0>        -0.1879
      7 C7         -0.0127    1.0858    0.0080 C.3       1 <0>         0.1463
      8 N1         -0.6984    1.5583    1.2133 N.pl3     1 <0>        -0.3993
      9 C8         -0.4510    2.7258    1.8836 C.2       1 <0>         0.0237
     10 C9         -1.3044    2.7657    2.9247 C.2       1 <0>        -0.0134
     11 N2         -2.0460    1.6485    2.8963 N.pl3     1 <0>        -0.4981
     12 C10        -1.6886    0.9205    1.8740 C.cat     1 <0>         0.2939
     13 C11        -3.4726    0.7645   -3.6783 C.2       1 <0>        -0.1880
     14 C12        -3.7348    1.6537   -4.6726 C.2       1 <0>         0.0987
     15 N3         -2.8826    2.7346   -4.5497 N.pl3     1 <0>        -0.5630
     16 H1         -2.7816    3.6500   -5.1513 H         1 <0>         0.4533
     17 C13        -4.7600    1.4913   -5.7120 C.2       1 <0>         0.5036
     18 O1         -5.4580    0.4960   -5.7271 O.co2     1 <0>        -0.6037
     19 O2         -4.9271    2.4462   -6.6494 O.co2     1 <0>        -0.7427
     20 H2          0.4010    3.3914   -1.3263 H         1 <0>         0.1201
     21 H3         -0.7644    4.2346   -3.3137 H         1 <0>         0.1241
     22 H4         -1.9982   -0.1223   -1.3241 H         1 <0>         0.1194
     23 H5          0.0022   -0.0141    0.0020 H         1 <0>         0.1234
     24 H6          1.0193    1.4665    0.0002 H         1 <0>         0.1261
     25 H7          0.2853    3.4726    1.6258 H         1 <0>         0.2151
     26 H8         -1.3761    3.5567    3.6565 H         1 <0>         0.2170
     27 H9         -2.1146   -0.0337    1.6010 H         1 <0>         0.2533
     28 H10        -3.9772   -0.1765   -3.5159 H         1 <0>         0.1504
     29 H11        -2.8105    1.4761    3.6682 H         1 <0>         0.5009
@<TRIPOS>BOND
     1    1    6 ar
     2    1    2 ar
     3    1   20 1
     4    2    3 ar
     5    2   21 1
     6    3   15 1
     7    3    4 ar
     8    4    5 ar
     9    4   13 1
    10    5    6 ar
    11    5   22 1
    12    6    7 1
    13    7    8 1
    14    7   23 1
    15    7   24 1
    16    8   12 1
    17    8    9 1
    18    9   10 2
    19    9   25 1
    20   10   11 1
    21   10   26 1
    22   11   12 2
    23   11   29 1
    24   12   27 1
    25   13   14 2
    26   13   28 1
    27   14   15 1
    28   14   17 1
    29   15   16 1
    30   17   18 2
    31   17   19 1
@<TRIPOS>MOLECULE
ZINC29391508
   27    29     0     0     0
SMALL
USER_CHARGES
7-(imidazol-1-ylmethyl)benzothiophene-2-carboxylic acid
@<TRIPOS>ATOM
      1 C1          1.0175   -3.3895   -3.3775 C.ar      1 <0>        -0.1307
      2 C2          2.1548   -3.1478   -4.0791 C.ar      1 <0>        -0.0688
      3 C3          3.2369   -2.4461   -3.4880 C.ar      1 <0>        -0.0741
      4 C4          4.4757   -2.1119   -4.0631 C.2       1 <0>        -0.1522
      5 C5          5.4000   -1.4294   -3.3350 C.2       1 <0>        -0.1024
      6 S1          4.5830   -1.2040   -1.7646 S.3       1 <0>         0.0695
      7 C6          3.0546   -2.0201   -2.1503 C.ar      1 <0>        -0.1248
      8 C7          1.8962   -2.2780   -1.4492 C.ar      1 <0>        -0.0752
      9 C8          0.8678   -2.9640   -2.0633 C.ar      1 <0>        -0.0898
     10 C9          1.7511   -1.8090   -0.0244 C.3       1 <0>         0.1456
     11 N1          1.2869   -0.4196   -0.0125 N.pl3     1 <0>        -0.4514
     12 C10         2.0745    0.7000   -0.0140 C.2       1 <0>        -0.0417
     13 C11         1.2444    1.7603   -0.0004 C.2       1 <0>        -0.0359
     14 N2         -0.0156    1.3008    0.0092 N.2       1 <0>        -0.4976
     15 C12         0.0021   -0.0041    0.0020 C.2       1 <0>         0.1764
     16 C13         6.7397   -0.9865   -3.7413 C.2       1 <0>         0.5224
     17 O1          7.1449   -1.2255   -4.8623 O.co2     1 <0>        -0.6060
     18 O2          7.5205   -0.3146   -2.8711 O.co2     1 <0>        -0.7321
     19 H1          0.2096   -3.9261   -3.8526 H         1 <0>         0.1243
     20 H2          2.2364   -3.4934   -5.0990 H         1 <0>         0.1239
     21 H3          4.6933   -2.3971   -5.0818 H         1 <0>         0.1402
     22 H4         -0.0468   -3.1681   -1.5263 H         1 <0>         0.1290
     23 H5          1.0206   -2.4441    0.4981 H         1 <0>         0.1070
     24 H6          2.7242   -1.8748    0.4842 H         1 <0>         0.1019
     25 H7          3.1541    0.7276   -0.0238 H         1 <0>         0.1742
     26 H8          1.5413    2.7987    0.0018 H         1 <0>         0.1681
     27 H9         -0.8669   -0.6454    0.0072 H         1 <0>         0.2002
@<TRIPOS>BOND
     1    1    9 ar
     2    1    2 ar
     3    1   19 1
     4    2    3 ar
     5    2   20 1
     6    3    7 ar
     7    3    4 1
     8    4    5 2
     9    4   21 1
    10    5    6 1
    11    5   16 1
    12    6    7 1
    13    7    8 ar
    14    8    9 ar
    15    8   10 1
    16    9   22 1
    17   10   11 1
    18   10   23 1
    19   10   24 1
    20   11   15 1
    21   11   12 1
    22   12   13 2
    23   12   25 1
    24   13   14 1
    25   13   26 1
    26   14   15 2
    27   15   27 1
    28   16   17 2
    29   16   18 1
@<TRIPOS>MOLECULE
ZINC29391508
   28    30     0     0     0
SMALL
USER_CHARGES
7-(imidazol-1-ylmethyl)benzothiophene-2-carboxylic acid
@<TRIPOS>ATOM
      1 C1          1.0175   -3.3895   -3.3775 C.ar      1 <0>        -0.1321
      2 C2          2.1548   -3.1478   -4.0791 C.ar      1 <0>        -0.0514
      3 C3          3.2369   -2.4461   -3.4880 C.ar      1 <0>        -0.0650
      4 C4          4.4757   -2.1119   -4.0631 C.2       1 <0>        -0.1566
      5 C5          5.4000   -1.4294   -3.3350 C.2       1 <0>        -0.0827
      6 S1          4.5830   -1.2040   -1.7646 S.3       1 <0>         0.0614
      7 C6          3.0546   -2.0201   -2.1503 C.ar      1 <0>        -0.1327
      8 C7          1.8962   -2.2780   -1.4492 C.ar      1 <0>        -0.1036
      9 C8          0.8678   -2.9640   -2.0633 C.ar      1 <0>        -0.0819
     10 C9          1.7511   -1.8090   -0.0244 C.3       1 <0>         0.1389
     11 N1          1.2869   -0.4196   -0.0125 N.pl3     1 <0>        -0.4014
     12 C10         2.0745    0.7000   -0.0140 C.2       1 <0>         0.0305
     13 C11         1.2444    1.7603   -0.0004 C.2       1 <0>        -0.0096
     14 N2         -0.0156    1.3008    0.0092 N.pl3     1 <0>        -0.4957
     15 C12         0.0021   -0.0041    0.0020 C.cat     1 <0>         0.2887
     16 C13         6.7397   -0.9865   -3.7413 C.2       1 <0>         0.5167
     17 O1          7.1449   -1.2255   -4.8623 O.co2     1 <0>        -0.5947
     18 O2          7.5205   -0.3146   -2.8711 O.co2     1 <0>        -0.7267
     19 H1          0.2096   -3.9261   -3.8526 H         1 <0>         0.1309
     20 H2          2.2364   -3.4934   -5.0990 H         1 <0>         0.1311
     21 H3          4.6933   -2.3971   -5.0818 H         1 <0>         0.1470
     22 H4         -0.0468   -3.1681   -1.5263 H         1 <0>         0.1323
     23 H5          1.0206   -2.4441    0.4981 H         1 <0>         0.1326
     24 H6          2.7242   -1.8748    0.4842 H         1 <0>         0.1307
     25 H7          3.1541    0.7276   -0.0238 H         1 <0>         0.2175
     26 H8          1.5413    2.7987    0.0018 H         1 <0>         0.2211
     27 H9         -0.8669   -0.6454    0.0072 H         1 <0>         0.2539
     28 H10        -0.8586    2.0073    0.0211 H         1 <0>         0.5009
@<TRIPOS>BOND
     1    1    9 ar
     2    1    2 ar
     3    1   19 1
     4    2    3 ar
     5    2   20 1
     6    3    7 ar
     7    3    4 1
     8    4    5 2
     9    4   21 1
    10    5    6 1
    11    5   16 1
    12    6    7 1
    13    7    8 ar
    14    8    9 ar
    15    8   10 1
    16    9   22 1
    17   10   11 1
    18   10   23 1
    19   10   24 1
    20   11   15 1
    21   11   12 1
    22   12   13 2
    23   12   25 1
    24   13   14 1
    25   13   26 1
    26   14   15 2
    27   14   28 1
    28   15   27 1
    29   16   17 2
    30   16   18 1
@<TRIPOS>MOLECULE
ZINC29399992
   27    29     0     0     0
SMALL
USER_CHARGES
5-(imidazol-1-ylmethyl)benzothiophene-3-carboxylic acid
@<TRIPOS>ATOM
      1 C1          1.1871    3.1594    0.0077 C.ar      1 <0>        -0.0907
      2 C2         -0.0055    3.8559    0.0228 C.ar      1 <0>        -0.0838
      3 C3         -1.1985    3.1650    0.0305 C.ar      1 <0>        -0.1256
      4 C4         -1.2462    1.7582    0.0175 C.ar      1 <0>        -0.0543
      5 C5         -0.0126    1.0758    0.0080 C.ar      1 <0>        -0.0322
      6 C6          1.1694    1.7723    0.0004 C.ar      1 <0>        -0.1381
      7 C7          2.4729    1.0162   -0.0166 C.3       1 <0>         0.1491
      8 N1          2.8818    0.7791   -1.4032 N.pl3     1 <0>        -0.4503
      9 C8          2.5603   -0.3080   -2.1703 C.2       1 <0>        -0.0429
     10 C9          3.1361   -0.1202   -3.3731 C.2       1 <0>        -0.0386
     11 N2          3.7991    1.0452   -3.3383 N.2       1 <0>        -0.5001
     12 C10         3.6512    1.5895   -2.1615 C.2       1 <0>         0.1756
     13 C11        -2.6065    1.2135    0.0206 C.2       1 <0>        -0.1465
     14 C12        -3.6500    2.0873    0.0300 C.2       1 <0>        -0.1365
     15 S1         -2.9040    3.6488    0.0489 S.3       1 <0>         0.0447
     16 C13        -2.8374   -0.2347    0.0142 C.2       1 <0>         0.5037
     17 O1         -1.8931   -1.0010    0.0063 O.co2     1 <0>        -0.6283
     18 O2         -4.0969   -0.7167    0.0172 O.co2     1 <0>        -0.7502
     19 H1          2.1271    3.6910    0.0012 H         1 <0>         0.1277
     20 H2         -0.0034    4.9359    0.0290 H         1 <0>         0.1280
     21 H3          0.0021   -0.0041    0.0020 H         1 <0>         0.1503
     22 H4          3.2457    1.6062    0.4978 H         1 <0>         0.1022
     23 H5          2.3445    0.0524    0.4977 H         1 <0>         0.1031
     24 H6          1.9584   -1.1528   -1.8695 H         1 <0>         0.1749
     25 H7          3.0778   -0.7922   -4.2166 H         1 <0>         0.1667
     26 H8          4.0737    2.5322   -1.8464 H         1 <0>         0.1995
     27 H9         -4.7054    1.8579    0.0337 H         1 <0>         0.1927
@<TRIPOS>BOND
     1    1    6 ar
     2    1    2 ar
     3    1   19 1
     4    2    3 ar
     5    2   20 1
     6    3   15 1
     7    3    4 ar
     8    4    5 ar
     9    4   13 1
    10    5    6 ar
    11    5   21 1
    12    6    7 1
    13    7    8 1
    14    7   22 1
    15    7   23 1
    16    8   12 1
    17    8    9 1
    18    9   10 2
    19    9   24 1
    20   10   11 1
    21   10   25 1
    22   11   12 2
    23   12   26 1
    24   13   14 2
    25   13   16 1
    26   14   15 1
    27   14   27 1
    28   16   17 2
    29   16   18 1
@<TRIPOS>MOLECULE
ZINC29399992
   28    30     0     0     0
SMALL
USER_CHARGES
5-(imidazol-1-ylmethyl)benzothiophene-3-carboxylic acid
@<TRIPOS>ATOM
      1 C1          1.1871    3.1594    0.0077 C.ar      1 <0>        -0.0977
      2 C2         -0.0055    3.8559    0.0228 C.ar      1 <0>        -0.0752
      3 C3         -1.1985    3.1650    0.0305 C.ar      1 <0>        -0.1250
      4 C4         -1.2462    1.7582    0.0175 C.ar      1 <0>        -0.0498
      5 C5         -0.0126    1.0758    0.0080 C.ar      1 <0>        -0.0241
      6 C6          1.1694    1.7723    0.0004 C.ar      1 <0>        -0.1677
      7 C7          2.4729    1.0162   -0.0166 C.3       1 <0>         0.1425
      8 N1          2.8818    0.7791   -1.4032 N.pl3     1 <0>        -0.3997
      9 C8          2.5603   -0.3080   -2.1703 C.2       1 <0>         0.0323
     10 C9          3.1361   -0.1202   -3.3731 C.2       1 <0>        -0.0140
     11 N2          3.7991    1.0452   -3.3383 N.pl3     1 <0>        -0.4972
     12 C10         3.6512    1.5895   -2.1615 C.cat     1 <0>         0.2867
     13 C11        -2.6065    1.2135    0.0206 C.2       1 <0>        -0.1544
     14 C12        -3.6500    2.0873    0.0300 C.2       1 <0>        -0.1263
     15 S1         -2.9040    3.6488    0.0489 S.3       1 <0>         0.0748
     16 C13        -2.8374   -0.2347    0.0142 C.2       1 <0>         0.5039
     17 O1         -1.8931   -1.0010    0.0063 O.co2     1 <0>        -0.6349
     18 O2         -4.0969   -0.7167    0.0172 O.co2     1 <0>        -0.7388
     19 H1          2.1271    3.6910    0.0012 H         1 <0>         0.1290
     20 H2         -0.0034    4.9359    0.0290 H         1 <0>         0.1332
     21 H3          0.0021   -0.0041    0.0020 H         1 <0>         0.1540
     22 H4          3.2457    1.6062    0.4978 H         1 <0>         0.1271
     23 H5          2.3445    0.0524    0.4977 H         1 <0>         0.1322
     24 H6          1.9584   -1.1528   -1.8695 H         1 <0>         0.2201
     25 H7          3.0778   -0.7922   -4.2166 H         1 <0>         0.2190
     26 H8          4.0737    2.5322   -1.8464 H         1 <0>         0.2525
     27 H9         -4.7054    1.8579    0.0337 H         1 <0>         0.1980
     28 H10         4.3498    1.3914   -4.2254 H         1 <0>         0.4996
@<TRIPOS>BOND
     1    1    6 ar
     2    1    2 ar
     3    1   19 1
     4    2    3 ar
     5    2   20 1
     6    3   15 1
     7    3    4 ar
     8    4    5 ar
     9    4   13 1
    10    5    6 ar
    11    5   21 1
    12    6    7 1
    13    7    8 1
    14    7   22 1
    15    7   23 1
    16    8   12 1
    17    8    9 1
    18    9   10 2
    19    9   24 1
    20   10   11 1
    21   10   25 1
    22   11   12 2
    23   11   28 1
    24   12   26 1
    25   13   14 2
    26   13   16 1
    27   14   15 1
    28   14   27 1
    29   16   17 2
    30   16   18 1
@<TRIPOS>MOLECULE
ZINC29400609
   27    29     0     0     0
SMALL
USER_CHARGES
2-(imidazol-1-ylmethyl)benzofuran-5-carboxylic acid
@<TRIPOS>ATOM
      1 C1         -2.9377    4.1025    0.0527 C.ar      1 <0>        -0.0383
      2 C2         -1.5921    4.3278    0.0406 C.ar      1 <0>        -0.1324
      3 C3         -0.7018    3.2587    0.0263 C.ar      1 <0>         0.0596
      4 C4         -1.1984    1.9421    0.0175 C.ar      1 <0>        -0.1531
      5 C5         -2.5693    1.7114    0.0362 C.ar      1 <0>        -0.0340
      6 C6         -3.4439    2.7960    0.0509 C.ar      1 <0>        -0.1284
      7 C7         -4.9020    2.5688    0.0641 C.2       1 <0>         0.4922
      8 O1         -5.3403    1.4357    0.0625 O.co2     1 <0>        -0.6289
      9 O2         -5.7472    3.6180    0.0778 O.co2     1 <0>        -0.7514
     10 C8         -0.0126    1.0758    0.0080 C.2       1 <0>        -0.1567
     11 C9          1.0472    1.8950    0.0022 C.2       1 <0>        -0.0275
     12 O3          0.6431    3.1773    0.0130 O.3       1 <0>        -0.1931
     13 C10         2.4851    1.4444   -0.0144 C.3       1 <0>         0.1877
     14 N1          2.9376    1.3062   -1.4009 N.pl3     1 <0>        -0.4591
     15 C11         3.5180    2.2809   -2.1669 C.2       1 <0>        -0.0500
     16 C12         3.7748    1.7306   -3.3688 C.2       1 <0>        -0.0313
     17 N2          3.3626    0.4547   -3.3376 N.2       1 <0>        -0.4953
     18 C13         2.8653    0.1917   -2.1601 C.2       1 <0>         0.1870
     19 H1         -3.6197    4.9399    0.0641 H         1 <0>         0.1465
     20 H2         -1.2164    5.3404    0.0425 H         1 <0>         0.1275
     21 H3         -2.9526    0.7017    0.0348 H         1 <0>         0.1347
     22 H4          0.0021   -0.0041    0.0020 H         1 <0>         0.1567
     23 H5          3.1086    2.1889    0.5023 H         1 <0>         0.1116
     24 H6          2.5715    0.4748    0.4979 H         1 <0>         0.1286
     25 H7          3.7288    3.2964   -1.8654 H         1 <0>         0.1734
     26 H8          4.2326    2.2293   -4.2104 H         1 <0>         0.1690
     27 H9          2.4606   -0.7589   -1.8457 H         1 <0>         0.2048
@<TRIPOS>BOND
     1    1    6 ar
     2    1    2 ar
     3    1   19 1
     4    2    3 ar
     5    2   20 1
     6    3   12 1
     7    3    4 ar
     8    4    5 ar
     9    4   10 1
    10    5    6 ar
    11    5   21 1
    12    6    7 1
    13    7    8 2
    14    7    9 1
    15   10   11 2
    16   10   22 1
    17   11   12 1
    18   11   13 1
    19   13   14 1
    20   13   23 1
    21   13   24 1
    22   14   18 1
    23   14   15 1
    24   15   16 2
    25   15   25 1
    26   16   17 1
    27   16   26 1
    28   17   18 2
    29   18   27 1
@<TRIPOS>MOLECULE
ZINC29400609
   28    30     0     0     0
SMALL
USER_CHARGES
2-(imidazol-1-ylmethyl)benzofuran-5-carboxylic acid
@<TRIPOS>ATOM
      1 C1         -2.9377    4.1025    0.0527 C.ar      1 <0>        -0.0260
      2 C2         -1.5921    4.3278    0.0406 C.ar      1 <0>        -0.1336
      3 C3         -0.7018    3.2587    0.0263 C.ar      1 <0>         0.0678
      4 C4         -1.1984    1.9421    0.0175 C.ar      1 <0>        -0.1629
      5 C5         -2.5693    1.7114    0.0362 C.ar      1 <0>        -0.0322
      6 C6         -3.4439    2.7960    0.0509 C.ar      1 <0>        -0.1192
      7 C7         -4.9020    2.5688    0.0641 C.2       1 <0>         0.4875
      8 O1         -5.3403    1.4357    0.0625 O.co2     1 <0>        -0.6243
      9 O2         -5.7472    3.6180    0.0778 O.co2     1 <0>        -0.7423
     10 C8         -0.0126    1.0758    0.0080 C.2       1 <0>        -0.1271
     11 C9          1.0472    1.8950    0.0022 C.2       1 <0>        -0.0668
     12 O3          0.6431    3.1773    0.0130 O.3       1 <0>        -0.1919
     13 C10         2.4851    1.4444   -0.0144 C.3       1 <0>         0.1831
     14 N1          2.9376    1.3062   -1.4009 N.pl3     1 <0>        -0.4115
     15 C11         3.5180    2.2809   -2.1669 C.2       1 <0>         0.0282
     16 C12         3.7748    1.7306   -3.3688 C.2       1 <0>        -0.0092
     17 N2          3.3626    0.4547   -3.3376 N.pl3     1 <0>        -0.4948
     18 C13         2.8653    0.1917   -2.1601 C.cat     1 <0>         0.2998
     19 H1         -3.6197    4.9399    0.0641 H         1 <0>         0.1524
     20 H2         -1.2164    5.3404    0.0425 H         1 <0>         0.1322
     21 H3         -2.9526    0.7017    0.0348 H         1 <0>         0.1384
     22 H4          0.0021   -0.0041    0.0020 H         1 <0>         0.1604
     23 H5          3.1086    2.1889    0.5023 H         1 <0>         0.1407
     24 H6          2.5715    0.4748    0.4979 H         1 <0>         0.1511
     25 H7          3.7288    3.2964   -1.8654 H         1 <0>         0.2185
     26 H8          4.2326    2.2293   -4.2104 H         1 <0>         0.2206
     27 H9          2.4606   -0.7589   -1.8457 H         1 <0>         0.2572
     28 H10         3.4758   -0.1818   -4.2276 H         1 <0>         0.5038
@<TRIPOS>BOND
     1    1    6 ar
     2    1    2 ar
     3    1   19 1
     4    2    3 ar
     5    2   20 1
     6    3   12 1
     7    3    4 ar
     8    4    5 ar
     9    4   10 1
    10    5    6 ar
    11    5   21 1
    12    6    7 1
    13    7    8 2
    14    7    9 1
    15   10   11 2
    16   10   22 1
    17   11   12 1
    18   11   13 1
    19   13   14 1
    20   13   23 1
    21   13   24 1
    22   14   18 1
    23   14   15 1
    24   15   16 2
    25   15   25 1
    26   16   17 1
    27   16   26 1
    28   17   18 2
    29   17   28 1
    30   18   27 1
@<TRIPOS>MOLECULE
ZINC29400794
   27    29     0     0     0
SMALL
USER_CHARGES
2-(imidazol-1-ylmethyl)benzothiophene-5-carboxylic acid
@<TRIPOS>ATOM
      1 C1          2.3869   -3.8197   -6.1459 C.ar      1 <0>        -0.0370
      2 C2          1.4011   -3.8079   -5.1999 C.ar      1 <0>        -0.1053
      3 C3          1.6487   -3.2709   -3.9519 C.ar      1 <0>        -0.0963
      4 C4          2.9027   -2.7204   -3.5990 C.ar      1 <0>        -0.1207
      5 C5          3.9066   -2.7428   -4.5897 C.ar      1 <0>        -0.0348
      6 C6          3.6462   -3.2839   -5.8387 C.ar      1 <0>        -0.1171
      7 C7          4.7098   -3.2971   -6.8606 C.2       1 <0>         0.4894
      8 O1          5.8041   -2.8354   -6.6044 O.co2     1 <0>        -0.6284
      9 O2          4.4679   -3.8211   -8.0781 O.co2     1 <0>        -0.7492
     10 C8          2.9762   -2.2017   -2.2400 C.2       1 <0>        -0.0814
     11 C9          1.8973   -2.2776   -1.4492 C.2       1 <0>        -0.1897
     12 S1          0.6783   -3.0713   -2.4793 S.3       1 <0>         0.0164
     13 C10         1.7511   -1.8090   -0.0244 C.3       1 <0>         0.1943
     14 N1          1.2869   -0.4196   -0.0125 N.pl3     1 <0>        -0.4556
     15 C11         2.0745    0.7000   -0.0140 C.2       1 <0>        -0.0514
     16 C12         1.2444    1.7603   -0.0004 C.2       1 <0>        -0.0315
     17 N2         -0.0156    1.3008    0.0092 N.2       1 <0>        -0.4965
     18 C13         0.0021   -0.0041    0.0020 C.2       1 <0>         0.1866
     19 H1          2.1979   -4.2389   -7.1231 H         1 <0>         0.1456
     20 H2          0.4285   -4.2180   -5.4281 H         1 <0>         0.1280
     21 H3          4.8832   -2.3351   -4.3740 H         1 <0>         0.1332
     22 H4          3.8913   -1.7606   -1.8734 H         1 <0>         0.1335
     23 H5          1.0202   -2.4443    0.4973 H         1 <0>         0.1105
     24 H6          2.7238   -1.8750    0.4850 H         1 <0>         0.1144
     25 H7          3.1541    0.7276   -0.0238 H         1 <0>         0.1729
     26 H8          1.5413    2.7987    0.0018 H         1 <0>         0.1682
     27 H9         -0.8669   -0.6454    0.0072 H         1 <0>         0.2020
@<TRIPOS>BOND
     1    1    6 ar
     2    1    2 ar
     3    1   19 1
     4    2    3 ar
     5    2   20 1
     6    3   12 1
     7    3    4 ar
     8    4    5 ar
     9    4   10 1
    10    5    6 ar
    11    5   21 1
    12    6    7 1
    13    7    8 2
    14    7    9 1
    15   10   11 2
    16   10   22 1
    17   11   12 1
    18   11   13 1
    19   13   14 1
    20   13   23 1
    21   13   24 1
    22   14   18 1
    23   14   15 1
    24   15   16 2
    25   15   25 1
    26   16   17 1
    27   16   26 1
    28   17   18 2
    29   18   27 1
@<TRIPOS>MOLECULE
ZINC29400794
   28    30     0     0     0
SMALL
USER_CHARGES
2-(imidazol-1-ylmethyl)benzothiophene-5-carboxylic acid
@<TRIPOS>ATOM
      1 C1          2.3869   -3.8197   -6.1459 C.ar      1 <0>        -0.0223
      2 C2          1.4011   -3.8079   -5.1999 C.ar      1 <0>        -0.1072
      3 C3          1.6487   -3.2709   -3.9519 C.ar      1 <0>        -0.0867
      4 C4          2.9027   -2.7204   -3.5990 C.ar      1 <0>        -0.1369
      5 C5          3.9066   -2.7428   -4.5897 C.ar      1 <0>        -0.0283
      6 C6          3.6462   -3.2839   -5.8387 C.ar      1 <0>        -0.1108
      7 C7          4.7098   -3.2971   -6.8606 C.2       1 <0>         0.4851
      8 O1          5.8041   -2.8354   -6.6044 O.co2     1 <0>        -0.6239
      9 O2          4.4679   -3.8211   -8.0781 O.co2     1 <0>        -0.7403
     10 C8          2.9762   -2.2017   -2.2400 C.2       1 <0>        -0.0416
     11 C9          1.8973   -2.2776   -1.4492 C.2       1 <0>        -0.2440
     12 S1          0.6783   -3.0713   -2.4793 S.3       1 <0>         0.0222
     13 C10         1.7511   -1.8090   -0.0244 C.3       1 <0>         0.1918
     14 N1          1.2869   -0.4196   -0.0125 N.pl3     1 <0>        -0.4069
     15 C11         2.0745    0.7000   -0.0140 C.2       1 <0>         0.0259
     16 C12         1.2444    1.7603   -0.0004 C.2       1 <0>        -0.0088
     17 N2         -0.0156    1.3008    0.0092 N.pl3     1 <0>        -0.4956
     18 C13         0.0021   -0.0041    0.0020 C.cat     1 <0>         0.2984
     19 H1          2.1979   -4.2389   -7.1231 H         1 <0>         0.1516
     20 H2          0.4285   -4.2180   -5.4281 H         1 <0>         0.1326
     21 H3          4.8832   -2.3351   -4.3740 H         1 <0>         0.1374
     22 H4          3.8913   -1.7606   -1.8734 H         1 <0>         0.1374
     23 H5          1.0202   -2.4443    0.4973 H         1 <0>         0.1341
     24 H6          2.7238   -1.8750    0.4850 H         1 <0>         0.1415
     25 H7          3.1541    0.7276   -0.0238 H         1 <0>         0.2182
     26 H8          1.5413    2.7987    0.0018 H         1 <0>         0.2200
     27 H9         -0.8669   -0.6454    0.0072 H         1 <0>         0.2545
     28 H10        -0.8586    2.0073    0.0211 H         1 <0>         0.5027
@<TRIPOS>BOND
     1    1    6 ar
     2    1    2 ar
     3    1   19 1
     4    2    3 ar
     5    2   20 1
     6    3   12 1
     7    3    4 ar
     8    4    5 ar
     9    4   10 1
    10    5    6 ar
    11    5   21 1
    12    6    7 1
    13    7    8 2
    14    7    9 1
    15   10   11 2
    16   10   22 1
    17   11   12 1
    18   11   13 1
    19   13   14 1
    20   13   23 1
    21   13   24 1
    22   14   18 1
    23   14   15 1
    24   15   16 2
    25   15   25 1
    26   16   17 1
    27   16   26 1
    28   17   18 2
    29   17   28 1
    30   18   27 1
@<TRIPOS>MOLECULE
ZINC13209880
   32    33     0     0     0
SMALL
USER_CHARGES
6-imidazo[5,1-f]pyridin-5-ylhexanoic acid
@<TRIPOS>ATOM
      1 C1          4.0305   -0.6933   -0.0394 C.2       1 <0>        -0.1176
      2 C2          3.4871    0.5520   -0.0279 C.2       1 <0>        -0.0843
      3 C3          2.0842    0.6895   -0.0141 C.2       1 <0>        -0.0013
      4 C4          1.2326    1.7753   -0.0002 C.2       1 <0>        -0.0254
      5 N1         -0.0157    1.3048    0.0092 N.2       1 <0>        -0.4545
      6 C5          0.0021   -0.0041    0.0020 C.2       1 <0>         0.1414
      7 N2          1.2819   -0.4346   -0.0125 N.pl3     1 <0>        -0.3609
      8 C6          1.8507   -1.6815   -0.0253 C.2       1 <0>         0.0932
      9 C7          3.1899   -1.8230   -0.0374 C.2       1 <0>        -0.1384
     10 C8          0.9702   -2.9045   -0.0235 C.3       1 <0>        -0.0826
     11 C9          0.7886   -3.4001    1.4126 C.3       1 <0>        -0.1140
     12 C10        -0.1054   -4.6417    1.4145 C.3       1 <0>        -0.1185
     13 C11        -0.2869   -5.1372    2.8506 C.3       1 <0>        -0.0988
     14 C12        -1.1809   -6.3789    2.8525 C.3       1 <0>        -0.1581
     15 C13        -1.3598   -6.8670    4.2670 C.2       1 <0>         0.4566
     16 O1         -0.8269   -6.2818    5.1799 O.co2     1 <0>        -0.6423
     17 H1          5.1034   -0.8163   -0.0496 H         1 <0>         0.1359
     18 H2          4.1221    1.4256   -0.0289 H         1 <0>         0.1439
     19 H3          1.5234    2.8154    0.0026 H         1 <0>         0.1790
     20 H4         -0.8706   -0.6403    0.0073 H         1 <0>         0.2091
     21 H5          3.6233   -2.8123   -0.0465 H         1 <0>         0.1475
     22 H6         -0.0022   -2.6527   -0.4466 H         1 <0>         0.0788
     23 H7          1.4351   -3.6879   -0.6221 H         1 <0>         0.0949
     24 H8          1.7611   -3.6519    1.8358 H         1 <0>         0.0688
     25 H9          0.3237   -2.6167    2.0112 H         1 <0>         0.0633
     26 H10        -1.0778   -4.3899    0.9913 H         1 <0>         0.0592
     27 H11         0.3596   -5.4251    0.8159 H         1 <0>         0.0604
     28 H12         0.6855   -5.3890    3.2738 H         1 <0>         0.0599
     29 H13        -0.7519   -4.3539    3.4492 H         1 <0>         0.0595
     30 H14        -2.1534   -6.1271    2.4293 H         1 <0>         0.0620
     31 H15        -0.7160   -7.1622    2.2539 H         1 <0>         0.0620
     32 O2         -2.1111   -7.9518    4.5127 O.co2     1 <0>        -0.7788
@<TRIPOS>BOND
     1    1    9 1
     2    1    2 2
     3    1   17 1
     4    2    3 1
     5    2   18 1
     6    3    7 1
     7    3    4 2
     8    4    5 1
     9    4   19 1
    10    5    6 2
    11    6    7 1
    12    6   20 1
    13    7    8 1
    14    8    9 2
    15    8   10 1
    16    9   21 1
    17   10   11 1
    18   10   22 1
    19   10   23 1
    20   11   12 1
    21   11   24 1
    22   11   25 1
    23   12   13 1
    24   12   26 1
    25   12   27 1
    26   13   14 1
    27   13   28 1
    28   13   29 1
    29   14   15 1
    30   14   30 1
    31   14   31 1
    32   15   16 2
    33   15   32 1
@<TRIPOS>MOLECULE
ZINC36242035
   28    29     0     0     0
SMALL
USER_CHARGES

@<TRIPOS>ATOM
      1 C1         -0.0167    1.3782    0.0096 C.ar      1 <0>        -0.1761
      2 C2          1.1700    2.0882    0.0021 C.ar      1 <0>        -0.0687
      3 C3          2.3773    1.4175   -0.0134 C.ar      1 <0>        -0.2186
      4 C4          2.3989    0.0301   -0.0210 C.ar      1 <0>         0.1604
      5 C5          1.2072   -0.6797   -0.0130 C.ar      1 <0>        -0.1624
      6 C6          0.0021   -0.0041    0.0020 C.ar      1 <0>        -0.0623
      7 C7          1.2269   -2.1866   -0.0218 C.3       1 <0>         0.1575
      8 N1          1.3675   -2.6810    1.3501 N.pl3     1 <0>        -0.4481
      9 C8          2.5421   -2.9350    2.0055 C.2       1 <0>        -0.0213
     10 C9          2.2148   -3.3708    3.2370 C.2       1 <0>        -0.0516
     11 N2          0.8769   -3.3826    3.3309 N.2       1 <0>        -0.5003
     12 C10         0.3627   -2.9658    2.2062 C.2       1 <0>         0.1628
     13 O1          3.5855   -0.6321   -0.0368 O.3       1 <0>        -0.2782
     14 C11         4.7724    0.1636   -0.0448 C.3       1 <0>        -0.0081
     15 C12         5.9807   -0.7369   -0.0620 C.2       1 <0>         0.5028
     16 O2          5.8386   -1.9478   -0.0670 O.co2     1 <0>        -0.6699
     17 O3          7.1004   -0.2545   -0.0710 O.co2     1 <0>        -0.6850
     18 H1         -0.9596    1.9045    0.0259 H         1 <0>         0.1208
     19 H2          1.1527    3.1681    0.0080 H         1 <0>         0.1217
     20 H3          3.3038    1.9724   -0.0200 H         1 <0>         0.1302
     21 H4         -0.9260   -0.5563    0.0079 H         1 <0>         0.1249
     22 H5          0.2960   -2.5596   -0.4488 H         1 <0>         0.0959
     23 H6          2.0674   -2.5355   -0.6217 H         1 <0>         0.1076
     24 H7          3.5396   -2.8103    1.6107 H         1 <0>         0.1852
     25 H8          2.9081   -3.6601    4.0129 H         1 <0>         0.1652
     26 H9         -0.6917   -2.8675    1.9942 H         1 <0>         0.1960
     27 H10         4.7790    0.7974   -0.9315 H         1 <0>         0.0598
     28 H11         4.7973    0.7880    0.8483 H         1 <0>         0.0598
@<TRIPOS>BOND
     1    1    6 ar
     2    1    2 ar
     3    1   18 1
     4    2    3 ar
     5    2   19 1
     6    3    4 ar
     7    3   20 1
     8    4    5 ar
     9    4   13 1
    10    5    6 ar
    11    5    7 1
    12    6   21 1
    13    7    8 1
    14    7   22 1
    15    7   23 1
    16    8   12 1
    17    8    9 1
    18    9   10 2
    19    9   24 1
    20   10   11 1
    21   10   25 1
    22   11   12 2
    23   12   26 1
    24   13   14 1
    25   14   15 1
    26   14   27 1
    27   14   28 1
    28   15   16 2
    29   15   17 1
@<TRIPOS>MOLECULE
ZINC36242035
   29    30     0     0     0
SMALL
USER_CHARGES

@<TRIPOS>ATOM
      1 C1         -0.0167    1.3782    0.0096 C.ar      1 <0>        -0.1718
      2 C2          1.1700    2.0882    0.0021 C.ar      1 <0>        -0.0509
      3 C3          2.3773    1.4175   -0.0134 C.ar      1 <0>        -0.2142
      4 C4          2.3989    0.0301   -0.0210 C.ar      1 <0>         0.1668
      5 C5          1.2072   -0.6797   -0.0130 C.ar      1 <0>        -0.1941
      6 C6          0.0021   -0.0041    0.0020 C.ar      1 <0>        -0.0587
      7 C7          1.2269   -2.1866   -0.0218 C.3       1 <0>         0.1502
      8 N1          1.3675   -2.6810    1.3501 N.pl3     1 <0>        -0.3938
      9 C8          2.5421   -2.9346    2.0056 C.2       1 <0>         0.0546
     10 C9          2.2148   -3.3705    3.2371 C.2       1 <0>        -0.0158
     11 N2          0.8769   -3.3828    3.3308 N.pl3     1 <0>        -0.4786
     12 C10         0.3627   -2.9663    2.2060 C.cat     1 <0>         0.2684
     13 O1          3.5855   -0.6321   -0.0368 O.3       1 <0>        -0.2853
     14 C11         4.7724    0.1636   -0.0448 C.3       1 <0>        -0.0109
     15 C12         5.9807   -0.7369   -0.0620 C.2       1 <0>         0.5031
     16 O2          5.8386   -1.9478   -0.0670 O.co2     1 <0>        -0.6770
     17 O3          7.1004   -0.2545   -0.0710 O.co2     1 <0>        -0.6713
     18 H1         -0.9596    1.9045    0.0259 H         1 <0>         0.1280
     19 H2          1.1527    3.1681    0.0080 H         1 <0>         0.1298
     20 H3          3.3038    1.9724   -0.0200 H         1 <0>         0.1372
     21 H4         -0.9260   -0.5563    0.0079 H         1 <0>         0.1288
     22 H5          0.2960   -2.5596   -0.4488 H         1 <0>         0.1227
     23 H6          2.0674   -2.5355   -0.6217 H         1 <0>         0.1369
     24 H7          3.5396   -2.8094    1.6110 H         1 <0>         0.2320
     25 H8          2.9081   -3.6596    4.0131 H         1 <0>         0.2208
     26 H9         -0.6917   -2.8684    1.9939 H         1 <0>         0.2534
     27 H10         4.7790    0.7974   -0.9315 H         1 <0>         0.0666
     28 H11         4.7973    0.7880    0.8483 H         1 <0>         0.0642
     29 H12         0.3712   -3.6549    4.1127 H         1 <0>         0.4587
@<TRIPOS>BOND
     1    1    6 ar
     2    1    2 ar
     3    1   18 1
     4    2    3 ar
     5    2   19 1
     6    3    4 ar
     7    3   20 1
     8    4    5 ar
     9    4   13 1
    10    5    6 ar
    11    5    7 1
    12    6   21 1
    13    7    8 1
    14    7   22 1
    15    7   23 1
    16    8   12 1
    17    8    9 1
    18    9   10 2
    19    9   24 1
    20   10   11 1
    21   10   25 1
    22   11   12 2
    23   11   29 1
    24   12   26 1
    25   13   14 1
    26   14   15 1
    27   14   27 1
    28   14   28 1
    29   15   16 2
    30   15   17 1
@<TRIPOS>MOLECULE
ZINC38337192
   33    33     0     0     0
SMALL
USER_CHARGES

@<TRIPOS>ATOM
      1 C1         -0.0161    1.3371    0.0094 C.2       1 <0>        -0.0005
      2 C2          1.2587    1.7711   -0.0004 C.2       1 <0>         0.0263
      3 N1          2.0558    0.6583   -0.0140 N.pl3     1 <0>        -0.4042
      4 C3          1.2397   -0.4176   -0.0120 C.cat     1 <0>         0.2861
      5 N2          0.0021   -0.0041    0.0020 N.pl3     1 <0>        -0.4787
      6 C4          3.5206    0.6384   -0.0281 C.3       1 <0>         0.0882
      7 C5          4.0443    0.6237    1.4094 C.3       1 <0>        -0.1400
      8 C6          5.5741    0.6029    1.3947 C.3       1 <0>        -0.1180
      9 C7          6.0978    0.5883    2.8322 C.3       1 <0>        -0.1188
     10 C8          7.6275    0.5675    2.8174 C.3       1 <0>        -0.1217
     11 C9          8.1512    0.5528    4.2550 C.3       1 <0>        -0.0938
     12 C10         9.6810    0.5320    4.2402 C.3       1 <0>        -0.1851
     13 C11        10.1969    0.5175    5.6561 C.2       1 <0>         0.4859
     14 O1          9.4135    0.5233    6.5904 O.co2     1 <0>        -0.7007
     15 O2         11.3975    0.5000    5.8674 O.co2     1 <0>        -0.7045
     16 H1         -0.8984    1.9597    0.0252 H         1 <0>         0.2224
     17 H2          1.5887    2.7994    0.0016 H         1 <0>         0.2220
     18 H3          1.5585   -1.4495   -0.0206 H         1 <0>         0.2591
     19 H4          3.8668   -0.2536   -0.5501 H         1 <0>         0.1217
     20 H5          3.8911    1.5261   -0.5408 H         1 <0>         0.1244
     21 H6          3.6980    1.5158    1.9313 H         1 <0>         0.0801
     22 H7          3.6737   -0.2640    1.9220 H         1 <0>         0.0781
     23 H8          5.9203   -0.2891    0.8727 H         1 <0>         0.0706
     24 H9          5.9446    1.4906    0.8820 H         1 <0>         0.0709
     25 H10         5.7515    1.4803    3.3541 H         1 <0>         0.0636
     26 H11         5.7272   -0.2994    3.3448 H         1 <0>         0.0632
     27 H12         7.9738   -0.3246    2.2955 H         1 <0>         0.0567
     28 H13         7.9981    1.4552    2.3048 H         1 <0>         0.0569
     29 H14         7.8050    1.4448    4.7769 H         1 <0>         0.0582
     30 H15         7.7807   -0.3349    4.7676 H         1 <0>         0.0580
     31 H16        10.0273   -0.3601    3.7183 H         1 <0>         0.0549
     32 H17        10.0516    1.4197    3.7276 H         1 <0>         0.0550
     33 H18        -0.7811   -0.5763    0.0069 H         1 <0>         0.4637
@<TRIPOS>BOND
     1    1    5 1
     2    1    2 2
     3    1   16 1
     4    2    3 1
     5    2   17 1
     6    3    4 1
     7    3    6 1
     8    4    5 2
     9    4   18 1
    10    5   33 1
    11    6    7 1
    12    6   19 1
    13    6   20 1
    14    7    8 1
    15    7   21 1
    16    7   22 1
    17    8    9 1
    18    8   23 1
    19    8   24 1
    20    9   10 1
    21    9   25 1
    22    9   26 1
    23   10   11 1
    24   10   27 1
    25   10   28 1
    26   11   12 1
    27   11   29 1
    28   11   30 1
    29   12   13 1
    30   12   31 1
    31   12   32 1
    32   13   14 2
    33   13   15 1
@<TRIPOS>MOLECULE
ZINC38337192
   32    32     0     0     0
SMALL
USER_CHARGES

@<TRIPOS>ATOM
      1 C1         -0.0161    1.3371    0.0094 C.2       1 <0>        -0.0339
      2 C2          1.2587    1.7711   -0.0004 C.2       1 <0>        -0.0564
      3 N1          2.0558    0.6583   -0.0140 N.pl3     1 <0>        -0.4572
      4 C3          1.2397   -0.4176   -0.0120 C.2       1 <0>         0.1800
      5 N2          0.0021   -0.0041    0.0020 N.2       1 <0>        -0.4993
      6 C4          3.5206    0.6384   -0.0281 C.3       1 <0>         0.1024
      7 C5          4.0443    0.6237    1.4094 C.3       1 <0>        -0.1351
      8 C6          5.5741    0.6029    1.3947 C.3       1 <0>        -0.1160
      9 C7          6.0978    0.5883    2.8322 C.3       1 <0>        -0.1185
     10 C8          7.6275    0.5675    2.8174 C.3       1 <0>        -0.1203
     11 C9          8.1512    0.5528    4.2550 C.3       1 <0>        -0.0939
     12 C10         9.6810    0.5320    4.2402 C.3       1 <0>        -0.1839
     13 C11        10.1969    0.5175    5.6561 C.2       1 <0>         0.4869
     14 O1          9.4135    0.5233    6.5904 O.co2     1 <0>        -0.6999
     15 O2         11.3975    0.5000    5.8674 O.co2     1 <0>        -0.7093
     16 H1         -0.8984    1.9597    0.0252 H         1 <0>         0.1677
     17 H2          1.5887    2.7994    0.0016 H         1 <0>         0.1723
     18 H3          1.5585   -1.4495   -0.0206 H         1 <0>         0.2027
     19 H4          3.8668   -0.2536   -0.5501 H         1 <0>         0.0942
     20 H5          3.8911    1.5261   -0.5408 H         1 <0>         0.0918
     21 H6          3.6980    1.5158    1.9313 H         1 <0>         0.0701
     22 H7          3.6737   -0.2640    1.9220 H         1 <0>         0.0709
     23 H8          5.9203   -0.2891    0.8727 H         1 <0>         0.0645
     24 H9          5.9446    1.4906    0.8820 H         1 <0>         0.0639
     25 H10         5.7515    1.4803    3.3541 H         1 <0>         0.0613
     26 H11         5.7272   -0.2994    3.3448 H         1 <0>         0.0617
     27 H12         7.9738   -0.3246    2.2955 H         1 <0>         0.0550
     28 H13         7.9981    1.4552    2.3048 H         1 <0>         0.0547
     29 H14         7.8050    1.4448    4.7769 H         1 <0>         0.0575
     30 H15         7.7807   -0.3349    4.7676 H         1 <0>         0.0576
     31 H16        10.0273   -0.3601    3.7183 H         1 <0>         0.0543
     32 H17        10.0516    1.4197    3.7276 H         1 <0>         0.0542
@<TRIPOS>BOND
     1    1    5 1
     2    1    2 2
     3    1   16 1
     4    2    3 1
     5    2   17 1
     6    3    4 1
     7    3    6 1
     8    4    5 2
     9    4   18 1
    10    6    7 1
    11    6   19 1
    12    6   20 1
    13    7    8 1
    14    7   21 1
    15    7   22 1
    16    8    9 1
    17    8   23 1
    18    8   24 1
    19    9   10 1
    20    9   25 1
    21    9   26 1
    22   10   11 1
    23   10   27 1
    24   10   28 1
    25   11   12 1
    26   11   29 1
    27   11   30 1
    28   12   13 1
    29   12   31 1
    30   12   32 1
    31   13   14 2
    32   13   15 1
@<TRIPOS>MOLECULE
ZINC36242081
   28    29     0     0     0
SMALL
USER_CHARGES

@<TRIPOS>ATOM
      1 C1         -0.0166    1.3743    0.0096 C.ar      1 <0>        -0.1167
      2 C2          1.1706    2.0864    0.0021 C.ar      1 <0>        -0.1146
      3 C3          2.3845    1.4221   -0.0130 C.ar      1 <0>        -0.1210
      4 C4          2.4203    0.0436   -0.0207 C.ar      1 <0>        -0.0964
      5 C5          1.2252   -0.6832   -0.0132 C.ar      1 <0>        -0.0301
      6 C6          0.0021   -0.0041    0.0020 C.ar      1 <0>        -0.1101
      7 C7          1.2543   -2.1539   -0.0218 C.2       1 <0>        -0.1244
      8 C8          0.0976   -2.8526   -0.0145 C.2       1 <0>        -0.1561
      9 C9          0.1256   -4.2683   -0.0228 C.2       1 <0>         0.4988
     10 O1          1.1982   -4.8596   -0.0366 O.co2     1 <0>        -0.6928
     11 O2         -0.9229   -4.9016   -0.0162 O.co2     1 <0>        -0.6968
     12 C10         3.6708    2.2073   -0.0216 C.3       1 <0>         0.1497
     13 N1          4.1010    2.4548    1.3568 N.pl3     1 <0>        -0.4521
     14 C11         3.7611    3.5297    2.1331 C.2       1 <0>        -0.0558
     15 C12         4.3700    3.3596    3.3222 C.2       1 <0>        -0.0338
     16 N2          5.0627    2.2122    3.2732 N.2       1 <0>        -0.4982
     17 C13         4.9022    1.6622    2.1007 C.2       1 <0>         0.1866
     18 H1         -0.9599    1.9000    0.0259 H         1 <0>         0.1226
     19 H2          1.1492    3.1662    0.0077 H         1 <0>         0.1165
     20 H3          3.3684   -0.4734   -0.0329 H         1 <0>         0.1248
     21 H4         -0.9249   -0.5582    0.0082 H         1 <0>         0.1292
     22 H5          2.2000   -2.6753   -0.0340 H         1 <0>         0.1298
     23 H6         -0.8481   -2.3313   -0.0024 H         1 <0>         0.1006
     24 H7          4.4395    1.6395   -0.5458 H         1 <0>         0.1025
     25 H8          3.5122    3.1588   -0.5292 H         1 <0>         0.0985
     26 H9          3.1268    4.3557    1.8469 H         1 <0>         0.1701
     27 H10         4.3108    4.0297    4.1671 H         1 <0>         0.1664
     28 H11         5.3398    0.7291    1.7779 H         1 <0>         0.2028
@<TRIPOS>BOND
     1    1    6 ar
     2    1    2 ar
     3    1   18 1
     4    2    3 ar
     5    2   19 1
     6    3    4 ar
     7    3   12 1
     8    4    5 ar
     9    4   20 1
    10    5    6 ar
    11    5    7 1
    12    6   21 1
    13    7    8 2
    14    7   22 1
    15    8    9 1
    16    8   23 1
    17    9   10 2
    18    9   11 1
    19   12   13 1
    20   12   24 1
    21   12   25 1
    22   13   17 1
    23   13   14 1
    24   14   15 2
    25   14   26 1
    26   15   16 1
    27   15   27 1
    28   16   17 2
    29   17   28 1
@<TRIPOS>MOLECULE
ZINC36242081
   29    30     0     0     0
SMALL
USER_CHARGES

@<TRIPOS>ATOM
      1 C1         -0.0166    1.3743    0.0096 C.ar      1 <0>        -0.1101
      2 C2          1.1706    2.0864    0.0021 C.ar      1 <0>        -0.1129
      3 C3          2.3845    1.4221   -0.0130 C.ar      1 <0>        -0.1484
      4 C4          2.4203    0.0436   -0.0207 C.ar      1 <0>        -0.1002
      5 C5          1.2252   -0.6832   -0.0132 C.ar      1 <0>        -0.0176
      6 C6          0.0021   -0.0041    0.0020 C.ar      1 <0>        -0.0982
      7 C7          1.2543   -2.1539   -0.0218 C.2       1 <0>        -0.1461
      8 C8          0.0976   -2.8526   -0.0145 C.2       1 <0>        -0.1325
      9 C9          0.1256   -4.2683   -0.0228 C.2       1 <0>         0.4935
     10 O1          1.1982   -4.8596   -0.0366 O.co2     1 <0>        -0.6894
     11 O2         -0.9229   -4.9016   -0.0162 O.co2     1 <0>        -0.6867
     12 C10         3.6708    2.2073   -0.0216 C.3       1 <0>         0.1431
     13 N1          4.1010    2.4548    1.3568 N.pl3     1 <0>        -0.4004
     14 C11         3.7607    3.5295    2.1333 C.2       1 <0>         0.0271
     15 C12         4.3697    3.3595    3.3223 C.2       1 <0>        -0.0026
     16 N2          5.0630    2.2123    3.2731 N.pl3     1 <0>        -0.4787
     17 C13         4.9026    1.6624    2.1006 C.cat     1 <0>         0.2912
     18 H1         -0.9599    1.9000    0.0259 H         1 <0>         0.1299
     19 H2          1.1492    3.1662    0.0077 H         1 <0>         0.1213
     20 H3          3.3684   -0.4734   -0.0329 H         1 <0>         0.1274
     21 H4         -0.9249   -0.5582    0.0082 H         1 <0>         0.1358
     22 H5          2.2000   -2.6753   -0.0340 H         1 <0>         0.1323
     23 H6         -0.8481   -2.3313   -0.0024 H         1 <0>         0.1030
     24 H7          4.4395    1.6395   -0.5458 H         1 <0>         0.1278
     25 H8          3.5122    3.1588   -0.5292 H         1 <0>         0.1290
     26 H9          3.1261    4.3552    1.8472 H         1 <0>         0.2195
     27 H10         4.3104    4.0294    4.1673 H         1 <0>         0.2209
     28 H11         5.3405    0.7295    1.7776 H         1 <0>         0.2586
     29 H12         5.5963    1.8471    3.9964 H         1 <0>         0.4633
@<TRIPOS>BOND
     1    1    6 ar
     2    1    2 ar
     3    1   18 1
     4    2    3 ar
     5    2   19 1
     6    3    4 ar
     7    3   12 1
     8    4    5 ar
     9    4   20 1
    10    5    6 ar
    11    5    7 1
    12    6   21 1
    13    7    8 2
    14    7   22 1
    15    8    9 1
    16    8   23 1
    17    9   10 2
    18    9   11 1
    19   12   13 1
    20   12   24 1
    21   12   25 1
    22   13   17 1
    23   13   14 1
    24   14   15 2
    25   14   26 1
    26   15   16 1
    27   15   27 1
    28   16   17 2
    29   16   29 1
    30   17   28 1
@<TRIPOS>MOLECULE
ZINC34583064
   25    25     0     0     0
SMALL
USER_CHARGES

@<TRIPOS>ATOM
      1 C1         -0.0167    1.3776    0.0096 C.ar      1 <0>        -0.1715
      2 C2          1.1849    2.0698    0.0019 C.ar      1 <0>        -0.0770
      3 C3          2.3651    1.3426   -0.0133 C.ar      1 <0>        -0.1211
      4 C4          2.3054   -0.0383   -0.0202 C.ar      1 <0>         0.0977
      5 N1          1.1443   -0.6632   -0.0129 N.ar      1 <0>        -0.4855
      6 C5          0.0021   -0.0041    0.0020 C.ar      1 <0>         0.0827
      7 C6          3.6964    2.0488   -0.0227 C.3       1 <0>        -0.0800
      8 C7          4.1610    2.2805    1.4165 C.3       1 <0>        -0.1138
      9 C8          5.5125    2.9975    1.4069 C.3       1 <0>        -0.0930
     10 C9          5.9771    3.2292    2.8462 C.3       1 <0>        -0.1840
     11 C10         7.3084    3.9354    2.8367 C.2       1 <0>         0.4874
     12 O1          7.8366    4.2264    1.7771 O.co2     1 <0>        -0.6997
     13 O2          7.8572    4.2158    3.8888 O.co2     1 <0>        -0.7090
     14 H1         -0.9552    1.9117    0.0259 H         1 <0>         0.1321
     15 H2          1.2009    3.1496    0.0072 H         1 <0>         0.1337
     16 H3          3.2203   -0.6121   -0.0320 H         1 <0>         0.1550
     17 H4         -0.9294   -0.5505    0.0083 H         1 <0>         0.1516
     18 H5          4.4293    1.4355   -0.5468 H         1 <0>         0.0769
     19 H6          3.5953    3.0079   -0.5308 H         1 <0>         0.0749
     20 H7          3.4280    2.8939    1.9406 H         1 <0>         0.0562
     21 H8          4.2620    1.3215    1.9245 H         1 <0>         0.0577
     22 H9          6.2455    2.3842    0.8828 H         1 <0>         0.0601
     23 H10         5.4115    3.9566    0.8989 H         1 <0>         0.0592
     24 H11         5.2442    3.8426    3.3703 H         1 <0>         0.0543
     25 H12         6.0782    2.2702    3.3542 H         1 <0>         0.0550
@<TRIPOS>BOND
     1    1    6 ar
     2    1    2 ar
     3    1   14 1
     4    2    3 ar
     5    2   15 1
     6    3    4 ar
     7    3    7 1
     8    4    5 ar
     9    4   16 1
    10    5    6 ar
    11    6   17 1
    12    7    8 1
    13    7   18 1
    14    7   19 1
    15    8    9 1
    16    8   20 1
    17    8   21 1
    18    9   10 1
    19    9   22 1
    20    9   23 1
    21   10   11 1
    22   10   24 1
    23   10   25 1
    24   11   12 2
    25   11   13 1
@<TRIPOS>MOLECULE
ZINC13738520
   41    43     0     0     0
SMALL
USER_CHARGES
2-ethylamino-5,7-dimethyl-4-(3-pyridylmethyl)-1,3-benzothiazol-6-ol
@<TRIPOS>ATOM
      1 C1          0.0693   10.6795   -2.7062 C.3       1 <0>        -0.1651
      2 C2         -0.7089    9.4919   -3.2762 C.3       1 <0>         0.1154
      3 N1         -0.9916    8.5337   -2.2047 N.pl3     1 <0>        -0.6726
      4 C3         -1.6883    7.3741   -2.4815 C.2       1 <0>         0.4145
      5 N2         -2.0341    6.4064   -1.6644 N.2       1 <0>        -0.5816
      6 C4         -2.7273    5.3205   -2.0771 C.ar      1 <0>         0.1379
      7 C5         -3.1533    4.2141   -1.3071 C.ar      1 <0>        -0.0419
      8 C6         -3.8473    3.1830   -1.8841 C.ar      1 <0>        -0.0771
      9 C7         -4.1523    3.1835   -3.2417 C.ar      1 <0>         0.1032
     10 C8         -3.7442    4.2520   -4.0266 C.ar      1 <0>        -0.0417
     11 C9         -3.0489    5.2867   -3.4525 C.ar      1 <0>        -0.1572
     12 S1         -2.3487    6.8091   -4.0431 S.3       1 <0>        -0.0093
     13 C10        -4.0616    4.2762   -5.4996 C.3       1 <0>        -0.1143
     14 O1         -4.8426    2.1493   -3.7923 O.3       1 <0>        -0.4830
     15 C11        -4.2894    2.0229   -1.0298 C.3       1 <0>        -0.1215
     16 C12        -2.8458    4.1710    0.1676 C.3       1 <0>        -0.0338
     17 C13        -3.9638    4.8304    0.9333 C.ar      1 <0>        -0.1223
     18 C14        -3.9875    6.2075    1.0947 C.ar      1 <0>        -0.0621
     19 C15        -5.0330    6.7700    1.8106 C.ar      1 <0>        -0.1737
     20 C16        -6.0158    5.9464    2.3266 C.ar      1 <0>         0.0921
     21 N3         -5.9634    4.6409    2.1495 N.ar      1 <0>        -0.4839
     22 C17        -4.9812    4.0709    1.4788 C.ar      1 <0>         0.0980
     23 H1          0.2796   11.3925   -3.5034 H         1 <0>         0.0832
     24 H2         -0.5247   11.1651   -1.9318 H         1 <0>         0.0672
     25 H3          1.0073   10.3271   -2.2771 H         1 <0>         0.0675
     26 H4         -0.1150    9.0063   -4.0505 H         1 <0>         0.0730
     27 H5         -1.6469    9.8444   -3.7052 H         1 <0>         0.0728
     28 H6         -0.6893    8.7138   -1.3007 H         1 <0>         0.4179
     29 H7         -5.0228    4.7658   -5.6561 H         1 <0>         0.0744
     30 H8         -3.2835    4.8252   -6.0300 H         1 <0>         0.0666
     31 H9         -4.1082    3.2551   -5.8781 H         1 <0>         0.0813
     32 H10        -5.8024    2.2665   -3.7806 H         1 <0>         0.3891
     33 H11        -5.2347    2.2678   -0.5456 H         1 <0>         0.0745
     34 H12        -4.4196    1.1399   -1.6554 H         1 <0>         0.0789
     35 H13        -3.5336    1.8221   -0.2705 H         1 <0>         0.0750
     36 H14        -1.9124    4.7001    0.3597 H         1 <0>         0.0919
     37 H15        -2.7482    3.1338    0.4882 H         1 <0>         0.0888
     38 H16        -3.2079    6.8267    0.6762 H         1 <0>         0.1379
     39 H17        -5.0812    7.8386    1.9593 H         1 <0>         0.1322
     40 H18        -6.8360    6.3772    2.8816 H         1 <0>         0.1541
     41 H19        -4.9720    2.9981    1.3543 H         1 <0>         0.1537
@<TRIPOS>BOND
     1    1    2 1
     2    1   23 1
     3    1   24 1
     4    1   25 1
     5    2    3 1
     6    2   26 1
     7    2   27 1
     8    3    4 1
     9    3   28 1
    10    4   12 1
    11    4    5 2
    12    5    6 1
    13    6   11 ar
    14    6    7 ar
    15    7    8 ar
    16    7   16 1
    17    8    9 ar
    18    8   15 1
    19    9   10 ar
    20    9   14 1
    21   10   11 ar
    22   10   13 1
    23   11   12 1
    24   13   29 1
    25   13   30 1
    26   13   31 1
    27   14   32 1
    28   15   33 1
    29   15   34 1
    30   15   35 1
    31   16   17 1
    32   16   36 1
    33   16   37 1
    34   17   22 ar
    35   17   18 ar
    36   18   19 ar
    37   18   38 1
    38   19   20 ar
    39   19   39 1
    40   20   21 ar
    41   20   40 1
    42   21   22 ar
    43   22   41 1
@<TRIPOS>MOLECULE
ZINC20526474
   32    33     0     0     0
SMALL
USER_CHARGES
(E)-3-[4-(2-imidazol-1-ylethoxy)phenyl]prop-2-enoic acid
@<TRIPOS>ATOM
      1 C1         -3.7167    3.3303    0.0436 C.ar      1 <0>        -0.0790
      2 C2         -4.9207    3.9974    0.0470 C.ar      1 <0>        -0.2010
      3 C3         -6.1138    3.2836    0.0488 C.ar      1 <0>         0.1102
      4 C4         -6.0977    1.8934    0.0412 C.ar      1 <0>        -0.1453
      5 C5         -4.8991    1.2166    0.0319 C.ar      1 <0>        -0.0757
      6 C6         -3.6949    1.9305    0.0301 C.ar      1 <0>        -0.0662
      7 C7         -2.4124    1.2131    0.0201 C.2       1 <0>        -0.1139
      8 C8         -1.2518    1.9044    0.0183 C.2       1 <0>        -0.1472
      9 C9         -0.0144    1.2123    0.0087 C.2       1 <0>         0.4696
     10 O1          0.0021   -0.0041    0.0020 O.co2     1 <0>        -0.6375
     11 O2          1.1448    1.9028    0.0013 O.co2     1 <0>        -0.7655
     12 O3         -7.2983    3.9462    0.0584 O.3       1 <0>        -0.3140
     13 C10        -7.2429    5.3741    0.0658 C.3       1 <0>         0.0442
     14 C11        -8.6645    5.9396    0.0762 C.3       1 <0>         0.1068
     15 N1         -8.6077    7.4035    0.0838 N.pl3     1 <0>        -0.4578
     16 C12        -8.5761    8.2093    1.1898 C.2       1 <0>        -0.0555
     17 C13        -8.5234    9.4794    0.7451 C.2       1 <0>        -0.0282
     18 N2         -8.5322    9.4502   -0.5959 N.2       1 <0>        -0.4940
     19 C14        -8.5826    8.2101   -0.9990 C.2       1 <0>         0.1844
     20 H1         -2.7905    3.8857    0.0471 H         1 <0>         0.1321
     21 H2         -4.9386    5.0773    0.0526 H         1 <0>         0.1240
     22 H3         -7.0273    1.3435    0.0430 H         1 <0>         0.1295
     23 H4         -4.8877    0.1366    0.0264 H         1 <0>         0.1339
     24 H5         -2.3975    0.1132    0.0141 H         1 <0>         0.1322
     25 H6         -1.2668    3.0043    0.0243 H         1 <0>         0.1067
     26 H7         -6.7059    5.7155    0.9630 H         1 <0>         0.0702
     27 H8         -6.7152    5.7253   -0.8332 H         1 <0>         0.0710
     28 H9         -9.2015    5.5981   -0.8210 H         1 <0>         0.1082
     29 H10        -9.1923    5.5885    0.9752 H         1 <0>         0.1057
     30 H11        -8.5885    7.8882    2.2209 H         1 <0>         0.1755
     31 H12        -8.4860   10.3662    1.3603 H         1 <0>         0.1707
     32 H13        -8.6007    7.8830   -2.0281 H         1 <0>         0.2058
@<TRIPOS>BOND
     1    1    6 ar
     2    1    2 ar
     3    1   20 1
     4    2    3 ar
     5    2   21 1
     6    3    4 ar
     7    3   12 1
     8    4    5 ar
     9    4   22 1
    10    5    6 ar
    11    5   23 1
    12    6    7 1
    13    7    8 2
    14    7   24 1
    15    8    9 1
    16    8   25 1
    17    9   10 2
    18    9   11 1
    19   12   13 1
    20   13   14 1
    21   13   26 1
    22   13   27 1
    23   14   15 1
    24   14   28 1
    25   14   29 1
    26   15   19 1
    27   15   16 1
    28   16   17 2
    29   16   30 1
    30   17   18 1
    31   17   31 1
    32   18   19 2
    33   19   32 1
@<TRIPOS>MOLECULE
ZINC20526474
   33    34     0     0     0
SMALL
USER_CHARGES
(E)-3-[4-(2-imidazol-1-ylethoxy)phenyl]prop-2-enoic acid
@<TRIPOS>ATOM
      1 C1         -3.7167    3.3303    0.0436 C.ar      1 <0>        -0.0837
      2 C2         -4.9207    3.9974    0.0470 C.ar      1 <0>        -0.1984
      3 C3         -6.1138    3.2836    0.0488 C.ar      1 <0>         0.0956
      4 C4         -6.0977    1.8934    0.0412 C.ar      1 <0>        -0.1362
      5 C5         -4.8991    1.2166    0.0319 C.ar      1 <0>        -0.0753
      6 C6         -3.6949    1.9305    0.0301 C.ar      1 <0>        -0.0505
      7 C7         -2.4124    1.2131    0.0201 C.2       1 <0>        -0.1257
      8 C8         -1.2518    1.9044    0.0183 C.2       1 <0>        -0.1335
      9 C9         -0.0144    1.2123    0.0087 C.2       1 <0>         0.4656
     10 O1          0.0021   -0.0041    0.0020 O.co2     1 <0>        -0.6323
     11 O2          1.1448    1.9028    0.0013 O.co2     1 <0>        -0.7614
     12 O3         -7.2983    3.9462    0.0584 O.3       1 <0>        -0.3093
     13 C10        -7.2429    5.3741    0.0658 C.3       1 <0>         0.0402
     14 C11        -8.6645    5.9396    0.0762 C.3       1 <0>         0.0930
     15 N1         -8.6077    7.4035    0.0838 N.pl3     1 <0>        -0.4089
     16 C12        -8.5761    8.2093    1.1898 C.2       1 <0>         0.0228
     17 C13        -8.5234    9.4794    0.7451 C.2       1 <0>        -0.0042
     18 N2         -8.5322    9.4502   -0.5959 N.pl3     1 <0>        -0.4941
     19 C14        -8.5826    8.2101   -0.9990 C.cat     1 <0>         0.2993
     20 H1         -2.7905    3.8857    0.0471 H         1 <0>         0.1341
     21 H2         -4.9386    5.0773    0.0526 H         1 <0>         0.1195
     22 H3         -7.0273    1.3435    0.0430 H         1 <0>         0.1319
     23 H4         -4.8877    0.1366    0.0264 H         1 <0>         0.1384
     24 H5         -2.3975    0.1132    0.0141 H         1 <0>         0.1356
     25 H6         -1.2668    3.0043    0.0243 H         1 <0>         0.1063
     26 H7         -6.7059    5.7155    0.9630 H         1 <0>         0.0768
     27 H8         -6.7152    5.7253   -0.8332 H         1 <0>         0.0747
     28 H9         -9.2015    5.5981   -0.8210 H         1 <0>         0.1344
     29 H10        -9.1923    5.5885    0.9752 H         1 <0>         0.1370
     30 H11        -8.5885    7.8882    2.2209 H         1 <0>         0.2211
     31 H12        -8.4860   10.3662    1.3603 H         1 <0>         0.2226
     32 H13        -8.6007    7.8830   -2.0281 H         1 <0>         0.2587
     33 H14        -8.4990   10.3899   -1.1667 H         1 <0>         0.5061
@<TRIPOS>BOND
     1    1    6 ar
     2    1    2 ar
     3    1   20 1
     4    2    3 ar
     5    2   21 1
     6    3    4 ar
     7    3   12 1
     8    4    5 ar
     9    4   22 1
    10    5    6 ar
    11    5   23 1
    12    6    7 1
    13    7    8 2
    14    7   24 1
    15    8    9 1
    16    8   25 1
    17    9   10 2
    18    9   11 1
    19   12   13 1
    20   13   14 1
    21   13   26 1
    22   13   27 1
    23   14   15 1
    24   14   28 1
    25   14   29 1
    26   15   19 1
    27   15   16 1
    28   16   17 2
    29   16   30 1
    30   17   18 1
    31   17   31 1
    32   18   19 2
    33   18   33 1
    34   19   32 1
@<TRIPOS>MOLECULE
ZINC36242042
   28    29     0     0     0
SMALL
USER_CHARGES

@<TRIPOS>ATOM
      1 C1         -0.0167    1.3797    0.0096 C.ar      1 <0>        -0.1372
      2 C2          1.1682    2.0955    0.0022 C.ar      1 <0>        -0.1056
      3 C3          2.3774    1.4338   -0.0134 C.ar      1 <0>        -0.1232
      4 C4          2.4050    0.0350   -0.0212 C.ar      1 <0>        -0.0102
      5 C5          1.2034   -0.6809   -0.0131 C.ar      1 <0>        -0.1202
      6 C6          0.0021   -0.0041    0.0020 C.ar      1 <0>        -0.0972
      7 C7          1.2215   -2.1878   -0.0219 C.3       1 <0>         0.1457
      8 N1          1.3617   -2.6825    1.3499 N.pl3     1 <0>        -0.4502
      9 C8          2.5360   -2.9377    2.0053 C.2       1 <0>        -0.0356
     10 C9          2.2083   -3.3731    3.2367 C.2       1 <0>        -0.0415
     11 N2          0.8704   -3.3835    3.3308 N.2       1 <0>        -0.4989
     12 C10         0.3567   -2.9663    2.2060 C.2       1 <0>         0.1695
     13 C11         3.6910   -0.6791   -0.0383 C.2       1 <0>        -0.1341
     14 C12         4.8498    0.0160   -0.0466 C.2       1 <0>        -0.1478
     15 C13         6.0876   -0.6713   -0.0630 C.2       1 <0>         0.4990
     16 O1          6.1080   -1.8961   -0.0698 O.co2     1 <0>        -0.6919
     17 O2          7.1380   -0.0412   -0.0705 O.co2     1 <0>        -0.6943
     18 H1         -0.9608    1.9040    0.0260 H         1 <0>         0.1201
     19 H2          1.1452    3.1753    0.0082 H         1 <0>         0.1217
     20 H3          3.3010    1.9937   -0.0199 H         1 <0>         0.1291
     21 H4         -0.9266   -0.5553    0.0079 H         1 <0>         0.1203
     22 H5          0.2902   -2.5599   -0.4489 H         1 <0>         0.0994
     23 H6          2.0616   -2.5375   -0.6219 H         1 <0>         0.1061
     24 H7          3.5337   -2.8139    1.6105 H         1 <0>         0.1824
     25 H8          2.9013   -3.6632    4.0126 H         1 <0>         0.1672
     26 H9         -0.6977   -2.8669    1.9941 H         1 <0>         0.1976
     27 H10         3.7090   -1.7589   -0.0443 H         1 <0>         0.1283
     28 H11         4.8318    1.0959   -0.0406 H         1 <0>         0.1015
@<TRIPOS>BOND
     1    1    6 ar
     2    1    2 ar
     3    1   18 1
     4    2    3 ar
     5    2   19 1
     6    3    4 ar
     7    3   20 1
     8    4    5 ar
     9    4   13 1
    10    5    6 ar
    11    5    7 1
    12    6   21 1
    13    7    8 1
    14    7   22 1
    15    7   23 1
    16    8   12 1
    17    8    9 1
    18    9   10 2
    19    9   24 1
    20   10   11 1
    21   10   25 1
    22   11   12 2
    23   12   26 1
    24   13   14 2
    25   13   27 1
    26   14   15 1
    27   14   28 1
    28   15   16 2
    29   15   17 1
@<TRIPOS>MOLECULE
ZINC36242042
   29    30     0     0     0
SMALL
USER_CHARGES

@<TRIPOS>ATOM
      1 C1         -0.0167    1.3797    0.0096 C.ar      1 <0>        -0.1367
      2 C2          1.1682    2.0955    0.0022 C.ar      1 <0>        -0.0861
      3 C3          2.3774    1.4338   -0.0134 C.ar      1 <0>        -0.1235
      4 C4          2.4050    0.0350   -0.0212 C.ar      1 <0>         0.0040
      5 C5          1.2034   -0.6809   -0.0131 C.ar      1 <0>        -0.1556
      6 C6          0.0021   -0.0041    0.0020 C.ar      1 <0>        -0.0910
      7 C7          1.2215   -2.1878   -0.0219 C.3       1 <0>         0.1390
      8 N1          1.3617   -2.6825    1.3499 N.pl3     1 <0>        -0.3961
      9 C8          2.5361   -2.9372    2.0054 C.2       1 <0>         0.0409
     10 C9          2.2083   -3.3729    3.2368 C.2       1 <0>        -0.0065
     11 N2          0.8704   -3.3838    3.3307 N.pl3     1 <0>        -0.4780
     12 C10         0.3567   -2.9667    2.2059 C.cat     1 <0>         0.2746
     13 C11         3.6910   -0.6791   -0.0383 C.2       1 <0>        -0.1647
     14 C12         4.8498    0.0160   -0.0466 C.2       1 <0>        -0.1171
     15 C13         6.0876   -0.6713   -0.0630 C.2       1 <0>         0.4931
     16 O1          6.1080   -1.8961   -0.0698 O.co2     1 <0>        -0.6930
     17 O2          7.1380   -0.0412   -0.0705 O.co2     1 <0>        -0.6784
     18 H1         -0.9608    1.9040    0.0260 H         1 <0>         0.1269
     19 H2          1.1452    3.1753    0.0082 H         1 <0>         0.1294
     20 H3          3.3010    1.9937   -0.0199 H         1 <0>         0.1352
     21 H4         -0.9266   -0.5553    0.0079 H         1 <0>         0.1237
     22 H5          0.2902   -2.5599   -0.4489 H         1 <0>         0.1257
     23 H6          2.0616   -2.5375   -0.6219 H         1 <0>         0.1352
     24 H7          3.5337   -2.8131    1.6108 H         1 <0>         0.2291
     25 H8          2.9013   -3.6627    4.0128 H         1 <0>         0.2226
     26 H9         -0.6977   -2.8677    1.9938 H         1 <0>         0.2548
     27 H10         3.7090   -1.7589   -0.0443 H         1 <0>         0.1253
     28 H11         4.8318    1.0959   -0.0406 H         1 <0>         0.1070
     29 H12         0.3645   -3.6554    4.1125 H         1 <0>         0.4601
@<TRIPOS>BOND
     1    1    6 ar
     2    1    2 ar
     3    1   18 1
     4    2    3 ar
     5    2   19 1
     6    3    4 ar
     7    3   20 1
     8    4    5 ar
     9    4   13 1
    10    5    6 ar
    11    5    7 1
    12    6   21 1
    13    7    8 1
    14    7   22 1
    15    7   23 1
    16    8   12 1
    17    8    9 1
    18    9   10 2
    19    9   24 1
    20   10   11 1
    21   10   25 1
    22   11   12 2
    23   11   29 1
    24   12   26 1
    25   13   14 2
    26   13   27 1
    27   14   15 1
    28   14   28 1
    29   15   16 2
    30   15   17 1
@<TRIPOS>MOLECULE
ZINC36242045
   30    31     0     0     0
SMALL
USER_CHARGES

@<TRIPOS>ATOM
      1 C1         -0.0167    1.3785    0.0096 C.ar      1 <0>        -0.0911
      2 C2          1.1692    2.0867    0.0021 C.ar      1 <0>        -0.1276
      3 C3          2.3806    1.4091   -0.0131 C.ar      1 <0>         0.1117
      4 C4          2.3963    0.0210   -0.0206 C.ar      1 <0>        -0.1265
      5 C5          1.2072   -0.6818   -0.0130 C.ar      1 <0>        -0.0920
      6 C6          0.0021   -0.0041    0.0020 C.ar      1 <0>        -0.0663
      7 C7         -1.2935   -0.7738    0.0102 C.3       1 <0>        -0.0881
      8 C8         -1.7457   -1.0265   -1.4294 C.3       1 <0>        -0.0862
      9 C9         -3.0610   -1.8080   -1.4211 C.3       1 <0>        -0.1841
     10 C10        -3.5064   -2.0569   -2.8391 C.2       1 <0>         0.4874
     11 O1         -2.8341   -1.6473   -3.7701 O.co2     1 <0>        -0.6988
     12 O2         -4.5390   -2.6680   -3.0554 O.co2     1 <0>        -0.7078
     13 N1          3.5862    2.1253   -0.0212 N.pl3     1 <0>        -0.4041
     14 C11         4.8498    1.5938   -0.0417 C.2       1 <0>        -0.0533
     15 C12         5.7090    2.6306   -0.0430 C.2       1 <0>        -0.0276
     16 N2          4.9953    3.7661   -0.0240 N.2       1 <0>        -0.4896
     17 C13         3.7226    3.4768   -0.0162 C.2       1 <0>         0.1860
     18 H1         -0.9594    1.9052    0.0259 H         1 <0>         0.1345
     19 H2          1.1539    3.1666    0.0077 H         1 <0>         0.1295
     20 H3          3.3373   -0.5089   -0.0328 H         1 <0>         0.1281
     21 H4          1.2188   -1.7617   -0.0189 H         1 <0>         0.1335
     22 H5         -1.1465   -1.7272    0.5175 H         1 <0>         0.0704
     23 H6         -2.0555   -0.1970    0.5344 H         1 <0>         0.0707
     24 H7         -1.8927   -0.0731   -1.9368 H         1 <0>         0.0611
     25 H8         -0.9837   -1.6033   -1.9536 H         1 <0>         0.0608
     26 H9         -2.9140   -2.7614   -0.9138 H         1 <0>         0.0563
     27 H10        -3.8230   -1.2312   -0.8969 H         1 <0>         0.0564
     28 H11         5.1068    0.5449   -0.0543 H         1 <0>         0.1764
     29 H12         6.7866    2.5602   -0.0565 H         1 <0>         0.1730
     30 H13         2.9135    4.1921   -0.0049 H         1 <0>         0.2074
@<TRIPOS>BOND
     1    1    6 ar
     2    1    2 ar
     3    1   18 1
     4    2    3 ar
     5    2   19 1
     6    3    4 ar
     7    3   13 1
     8    4    5 ar
     9    4   20 1
    10    5    6 ar
    11    5   21 1
    12    6    7 1
    13    7    8 1
    14    7   22 1
    15    7   23 1
    16    8    9 1
    17    8   24 1
    18    8   25 1
    19    9   10 1
    20    9   26 1
    21    9   27 1
    22   10   11 2
    23   10   12 1
    24   13   17 1
    25   13   14 1
    26   14   15 2
    27   14   28 1
    28   15   16 1
    29   15   29 1
    30   16   17 2
    31   17   30 1
@<TRIPOS>MOLECULE
ZINC36242045
   31    32     0     0     0
SMALL
USER_CHARGES

@<TRIPOS>ATOM
      1 C1         -0.0167    1.3785    0.0096 C.ar      1 <0>        -0.0930
      2 C2          1.1692    2.0867    0.0021 C.ar      1 <0>        -0.0933
      3 C3          2.3806    1.4091   -0.0131 C.ar      1 <0>         0.0492
      4 C4          2.3963    0.0210   -0.0206 C.ar      1 <0>        -0.1021
      5 C5          1.2072   -0.6818   -0.0130 C.ar      1 <0>        -0.0931
      6 C6          0.0021   -0.0041    0.0020 C.ar      1 <0>        -0.0222
      7 C7         -1.2935   -0.7738    0.0102 C.3       1 <0>        -0.1006
      8 C8         -1.7457   -1.0265   -1.4294 C.3       1 <0>        -0.0852
      9 C9         -3.0610   -1.8080   -1.4211 C.3       1 <0>        -0.1859
     10 C10        -3.5064   -2.0569   -2.8391 C.2       1 <0>         0.4869
     11 O1         -2.8341   -1.6473   -3.7701 O.co2     1 <0>        -0.7009
     12 O2         -4.5390   -2.6680   -3.0554 O.co2     1 <0>        -0.7004
     13 N1          3.5862    2.1253   -0.0212 N.pl3     1 <0>        -0.3352
     14 C11         3.7239    3.4893   -0.0097 C.2       1 <0>         0.0209
     15 C12         5.0453    3.7480   -0.0232 C.2       1 <0>         0.0063
     16 N2          5.7010    2.5781   -0.0425 N.pl3     1 <0>        -0.4747
     17 C13         4.8382    1.5987   -0.0360 C.cat     1 <0>         0.2766
     18 H1         -0.9594    1.9052    0.0259 H         1 <0>         0.1481
     19 H2          1.1539    3.1666    0.0077 H         1 <0>         0.1383
     20 H3          3.3373   -0.5089   -0.0328 H         1 <0>         0.1357
     21 H4          1.2188   -1.7617   -0.0189 H         1 <0>         0.1480
     22 H5         -1.1465   -1.7272    0.5175 H         1 <0>         0.0798
     23 H6         -2.0555   -0.1970    0.5344 H         1 <0>         0.0799
     24 H7         -1.8927   -0.0731   -1.9368 H         1 <0>         0.0629
     25 H8         -0.9837   -1.6033   -1.9536 H         1 <0>         0.0627
     26 H9         -2.9140   -2.7614   -0.9138 H         1 <0>         0.0588
     27 H10        -3.8230   -1.2312   -0.8969 H         1 <0>         0.0589
     28 H11         2.9258    4.2167    0.0070 H         1 <0>         0.2227
     29 H12         5.4988    4.7282   -0.0198 H         1 <0>         0.2259
     30 H13         5.0794    0.5460   -0.0439 H         1 <0>         0.2598
     31 H14         6.6655    2.4758   -0.0554 H         1 <0>         0.4652
@<TRIPOS>BOND
     1    1    6 ar
     2    1    2 ar
     3    1   18 1
     4    2    3 ar
     5    2   19 1
     6    3    4 ar
     7    3   13 1
     8    4    5 ar
     9    4   20 1
    10    5    6 ar
    11    5   21 1
    12    6    7 1
    13    7    8 1
    14    7   22 1
    15    7   23 1
    16    8    9 1
    17    8   24 1
    18    8   25 1
    19    9   10 1
    20    9   26 1
    21    9   27 1
    22   10   11 2
    23   10   12 1
    24   13   17 1
    25   13   14 1
    26   14   15 2
    27   14   28 1
    28   15   16 1
    29   15   29 1
    30   16   17 2
    31   16   31 1
    32   17   30 1
