@<TRIPOS>MOLECULE
ZINC13475083
   47    48     0     0     0
SMALL
USER_CHARGES
2-[4-[(4-hydroxy-3-isopropyl-phenyl)methyl]-3,5-dimethyl-phenoxy]acetic acid
@<TRIPOS>ATOM
      1 C1         -0.2286    5.4149   -0.4840 C.3       1 <0>        -0.1176
      2 C2         -0.0927    3.9379   -0.2175 C.ar      1 <0>        -0.0384
      3 C3          1.1557    3.3465   -0.2288 C.ar      1 <0>        -0.1637
      4 C4          1.2806    1.9878    0.0224 C.ar      1 <0>         0.1479
      5 C5          0.1503    1.2253    0.2786 C.ar      1 <0>        -0.2194
      6 C6         -1.0964    1.8204    0.2831 C.ar      1 <0>        -0.0363
      7 C7         -1.2183    3.1746    0.0320 C.ar      1 <0>        -0.1345
      8 C8         -2.5797    3.8209    0.0366 C.3       1 <0>        -0.0363
      9 C9         -3.1012    3.9036   -1.3749 C.ar      1 <0>        -0.0707
     10 C10        -2.8715    5.0390   -2.1303 C.ar      1 <0>        -0.1092
     11 C11        -3.3436    5.1149   -3.4261 C.ar      1 <0>        -0.1398
     12 C12        -4.0589    4.0556   -3.9658 C.ar      1 <0>         0.0947
     13 C13        -4.2928    2.9201   -3.2041 C.ar      1 <0>        -0.0965
     14 C14        -3.8132    2.8466   -1.9105 C.ar      1 <0>        -0.0988
     15 C15        -5.0689    1.7675   -3.7874 C.3       1 <0>        -0.0559
     16 C16        -4.1941    0.5123   -3.7887 C.3       1 <0>        -0.1438
     17 C17        -6.3202    1.5162   -2.9434 C.3       1 <0>        -0.1434
     18 O1         -4.5300    4.1305   -5.2383 O.3       1 <0>        -0.4960
     19 C18        -2.3247    0.9927    0.5613 C.3       1 <0>        -0.1222
     20 O2          2.5081    1.4047    0.0170 O.3       1 <0>        -0.2873
     21 C19         2.5611    0.0018    0.2836 C.3       1 <0>         0.0192
     22 C20         3.9932   -0.4649    0.2359 C.2       1 <0>         0.4689
     23 O3          4.8778    0.3230   -0.0020 O.co2     1 <0>        -0.6137
     24 H1         -0.4486    5.5749   -1.5395 H         1 <0>         0.0730
     25 H2         -1.0390    5.8203    0.1216 H         1 <0>         0.0684
     26 H3          0.7037    5.9177   -0.2270 H         1 <0>         0.0661
     27 H4          2.0341    3.9422   -0.4285 H         1 <0>         0.1282
     28 H5          0.2450    0.1675    0.4748 H         1 <0>         0.1277
     29 H6         -3.2627    3.2251    0.6420 H         1 <0>         0.0801
     30 H7         -2.5040    4.8244    0.4553 H         1 <0>         0.0806
     31 H8         -2.3191    5.8653   -1.7080 H         1 <0>         0.1288
     32 H9         -3.1605    6.0002   -4.0170 H         1 <0>         0.1256
     33 H10        -3.9951    1.9628   -1.3170 H         1 <0>         0.1267
     34 H11        -5.3622    2.0071   -4.8095 H         1 <0>         0.0826
     35 H12        -3.9009    0.2727   -2.7666 H         1 <0>         0.0571
     36 H13        -4.7555   -0.3214   -4.2105 H         1 <0>         0.0574
     37 H14        -3.3027    0.6913   -4.3899 H         1 <0>         0.0569
     38 H15        -6.9434    2.4104   -2.9425 H         1 <0>         0.0527
     39 H16        -6.8815    0.6825   -3.3653 H         1 <0>         0.0577
     40 H17        -6.0269    1.2766   -1.9213 H         1 <0>         0.0567
     41 H18        -5.4177    4.5076   -5.3076 H         1 <0>         0.3840
     42 H19        -2.4676    0.9054    1.6384 H         1 <0>         0.0709
     43 H20        -3.1957    1.4745    0.1171 H         1 <0>         0.0693
     44 H21        -2.1991   -0.0003    0.1298 H         1 <0>         0.0670
     45 H22         2.1472   -0.1960    1.2724 H         1 <0>         0.0659
     46 H23         1.9795   -0.5330   -0.4673 H         1 <0>         0.0656
     47 O4          4.2862   -1.7559    0.4578 O.co2     1 <0>        -0.7558
@<TRIPOS>BOND
     1    1    2 1
     2    1   24 1
     3    1   25 1
     4    1   26 1
     5    2    7 ar
     6    2    3 ar
     7    3    4 ar
     8    3   27 1
     9    4    5 ar
    10    4   20 1
    11    5    6 ar
    12    5   28 1
    13    6    7 ar
    14    6   19 1
    15    7    8 1
    16    8    9 1
    17    8   29 1
    18    8   30 1
    19    9   14 ar
    20    9   10 ar
    21   10   11 ar
    22   10   31 1
    23   11   12 ar
    24   11   32 1
    25   12   13 ar
    26   12   18 1
    27   13   14 ar
    28   13   15 1
    29   14   33 1
    30   15   16 1
    31   15   17 1
    32   15   34 1
    33   16   35 1
    34   16   36 1
    35   16   37 1
    36   17   38 1
    37   17   39 1
    38   17   40 1
    39   18   41 1
    40   19   42 1
    41   19   43 1
    42   19   44 1
    43   20   21 1
    44   21   22 1
    45   21   45 1
    46   21   46 1
    47   22   23 2
    48   22   47 1
@<TRIPOS>MOLECULE
ZINC27110251
   50    54     0     0     0
SMALL
USER_CHARGES
7-ethoxy-4-[2-(6-methyl-2-pyridyl)-5,6-dihydro-4H-pyrrolo[2,1-e]pyrazol-3-yl]quinoline
@<TRIPOS>ATOM
      1 C1          4.8127    4.1887   -0.0235 C.3       1 <0>        -0.1551
      2 C2          3.4177    3.5606   -0.0131 C.3       1 <0>         0.0519
      3 O1          3.5364    2.1365   -0.0215 O.3       1 <0>        -0.3126
      4 C3          2.3815    1.4214   -0.0139 C.ar      1 <0>         0.1485
      5 C4          1.1542    2.0909    0.0023 C.ar      1 <0>        -0.1975
      6 C5         -0.0169    1.3973    0.0097 C.ar      1 <0>        -0.0335
      7 C6          0.0021   -0.0041    0.0020 C.ar      1 <0>        -0.1037
      8 C7         -1.2002   -0.7559    0.0100 C.ar      1 <0>         0.0971
      9 C8         -1.0991   -2.1421    0.0039 C.ar      1 <0>        -0.1852
     10 C9          0.1541   -2.7391   -0.0114 C.ar      1 <0>         0.1464
     11 N1          1.2591   -2.0311   -0.0195 N.ar      1 <0>        -0.4857
     12 C10         1.2388   -0.6932   -0.0135 C.ar      1 <0>         0.1709
     13 C11         2.4330    0.0462   -0.0214 C.ar      1 <0>        -0.1482
     14 C12        -2.5196   -0.0863    0.0265 C.2       1 <0>        -0.1753
     15 C13        -3.2376    0.2778    1.1331 C.2       1 <0>         0.0846
     16 N2         -4.3774    0.8616    0.7242 N.pl3     1 <0>        -0.3861
     17 N3         -4.4075    0.8747   -0.6810 N.2       1 <0>        -0.2469
     18 C14        -3.3073    0.3209   -1.1367 C.2       1 <0>         0.1422
     19 C15        -2.9361    0.1393   -2.5601 C.ar      1 <0>         0.2017
     20 C16        -3.9332    0.0781   -3.5323 C.ar      1 <0>        -0.1476
     21 C17        -3.5711   -0.0917   -4.8569 C.ar      1 <0>        -0.0715
     22 C18        -2.2220   -0.1949   -5.1671 C.ar      1 <0>        -0.1640
     23 C19        -1.2857   -0.1258   -4.1525 C.ar      1 <0>         0.1360
     24 N4         -1.6570    0.0418   -2.8993 N.ar      1 <0>        -0.4536
     25 C20         0.1800   -0.2369   -4.4849 C.3       1 <0>        -0.1083
     26 C21        -5.1938    1.2845    1.8765 C.3       1 <0>         0.1238
     27 C22        -4.6361    0.5071    3.0874 C.3       1 <0>        -0.1265
     28 C23        -3.1788    0.2431    2.6465 C.3       1 <0>        -0.0660
     29 H1          4.7213    5.2849   -0.0170 H         1 <0>         0.0796
     30 H2          5.3511    3.8710   -0.9286 H         1 <0>         0.0680
     31 H3          5.3686    3.8618    0.8676 H         1 <0>         0.0679
     32 H4          2.8793    3.8783    0.8920 H         1 <0>         0.0629
     33 H5          2.8617    3.8875   -0.9042 H         1 <0>         0.0632
     34 H6          1.1351    3.1707    0.0083 H         1 <0>         0.1294
     35 H7         -0.9588    1.9257    0.0171 H         1 <0>         0.1237
     36 H8         -1.9908   -2.7515    0.0103 H         1 <0>         0.1306
     37 H9          0.2217   -3.8170   -0.0171 H         1 <0>         0.1572
     38 H10         3.3861   -0.4616   -0.0336 H         1 <0>         0.1409
     39 H11        -4.9738    0.1617   -3.2555 H         1 <0>         0.1385
     40 H12        -4.3212   -0.1424   -5.6322 H         1 <0>         0.1398
     41 H13        -1.9069   -0.3283   -6.1914 H         1 <0>         0.1379
     42 H14         0.7722   -0.1610   -3.5611 H         1 <0>         0.0780
     43 H15         0.4632    0.5759   -5.1699 H         1 <0>         0.0791
     44 H16         0.3743   -1.2067   -4.9664 H         1 <0>         0.0800
     45 H17        -5.0945    2.3709    2.0172 H         1 <0>         0.0924
     46 H18        -6.2486    1.0338    1.6903 H         1 <0>         0.0962
     47 H19        -4.7094    1.1321    3.9897 H         1 <0>         0.1067
     48 H20        -5.2190   -0.4146    3.2315 H         1 <0>         0.0917
     49 H21        -2.8193   -0.7426    2.9769 H         1 <0>         0.1001
     50 H22        -2.4910    1.0232    3.0047 H         1 <0>         0.1007
@<TRIPOS>BOND
     1    1    2 1
     2    1   29 1
     3    1   30 1
     4    1   31 1
     5    2    3 1
     6    2   32 1
     7    2   33 1
     8    3    4 1
     9    4   13 ar
    10    4    5 ar
    11    5    6 ar
    12    5   34 1
    13    6    7 ar
    14    6   35 1
    15    7   12 ar
    16    7    8 ar
    17    8    9 ar
    18    8   14 1
    19    9   10 ar
    20    9   36 1
    21   10   11 ar
    22   10   37 1
    23   11   12 ar
    24   12   13 ar
    25   13   38 1
    26   14   18 1
    27   14   15 2
    28   15   28 1
    29   15   16 1
    30   16   17 1
    31   16   26 1
    32   17   18 2
    33   18   19 1
    34   19   24 ar
    35   19   20 ar
    36   20   21 ar
    37   20   39 1
    38   21   22 ar
    39   21   40 1
    40   22   23 ar
    41   22   41 1
    42   23   24 ar
    43   23   25 1
    44   25   42 1
    45   25   43 1
    46   25   44 1
    47   26   27 1
    48   26   45 1
    49   26   46 1
    50   27   28 1
    51   27   47 1
    52   27   48 1
    53   28   49 1
    54   28   50 1
@<TRIPOS>MOLECULE
ZINC27182176
   40    44     0     0     0
SMALL
USER_CHARGES
4-[2-(2-pyridyl)-5,6-dihydro-4H-pyrrolo[2,1-e]pyrazol-3-yl]quinoline
@<TRIPOS>ATOM
      1 C1         -0.0126    1.0758    0.0080 C.ar      1 <0>        -0.1241
      2 C2          1.1891    1.7801    0.0003 C.ar      1 <0>        -0.1000
      3 C3          1.2049    3.1412    0.0070 C.ar      1 <0>        -0.0977
      4 C4         -0.0075    3.8529    0.0223 C.ar      1 <0>         0.1312
      5 C5         -1.2265    3.1333    0.0306 C.ar      1 <0>        -0.0727
      6 C6         -1.2065    1.7326    0.0172 C.ar      1 <0>        -0.0762
      7 C7         -2.4478    3.8541    0.0462 C.ar      1 <0>         0.0841
      8 C8         -2.3814    5.2423    0.0520 C.ar      1 <0>        -0.1727
      9 C9         -1.1431    5.8702    0.0426 C.ar      1 <0>         0.1339
     10 N1         -0.0207    5.1901    0.0287 N.ar      1 <0>        -0.4803
     11 C10        -3.7498    3.1513    0.0558 C.2       1 <0>        -0.1736
     12 C11        -4.4801    2.7682   -1.0363 C.2       1 <0>         0.0844
     13 N2         -5.5966    2.1564   -0.6047 N.pl3     1 <0>        -0.3860
     14 N3         -5.5988    2.1440    0.8008 N.2       1 <0>        -0.2471
     15 C12        -4.5039    2.7252    1.2345 C.2       1 <0>         0.1410
     16 C13        -4.1090    2.9165    2.6502 C.ar      1 <0>         0.1972
     17 C14        -5.0878    2.9534    3.6421 C.ar      1 <0>        -0.1406
     18 C15        -4.7036    3.1322    4.9593 C.ar      1 <0>        -0.0751
     19 C16        -3.3516    3.2685    5.2426 C.ar      1 <0>        -0.1634
     20 C17        -2.4342    3.2223    4.2096 C.ar      1 <0>         0.1053
     21 N4         -2.8262    3.0458    2.9640 N.ar      1 <0>        -0.4541
     22 C18        -6.4246    1.7121   -1.7405 C.3       1 <0>         0.1237
     23 C19        -5.9105    2.5019   -2.9626 C.3       1 <0>        -0.1265
     24 C20        -4.4518    2.8028   -2.5506 C.3       1 <0>        -0.0659
     25 H1          0.0021   -0.0041    0.0020 H         1 <0>         0.1228
     26 H2          2.1230    1.2377   -0.0115 H         1 <0>         0.1274
     27 H3          2.1452    3.6723    0.0008 H         1 <0>         0.1333
     28 H4         -2.1322    1.1763    0.0186 H         1 <0>         0.1193
     29 H5         -3.2878    5.8294    0.0635 H         1 <0>         0.1309
     30 H6         -1.1022    6.9494    0.0473 H         1 <0>         0.1566
     31 H7         -6.1313    2.8443    3.3860 H         1 <0>         0.1390
     32 H8         -5.4393    3.1654    5.7493 H         1 <0>         0.1397
     33 H9         -3.0196    3.4098    6.2606 H         1 <0>         0.1389
     34 H10        -1.3816    3.3277    4.4269 H         1 <0>         0.1593
     35 H11        -6.3009    0.6284   -1.8826 H         1 <0>         0.0927
     36 H12        -7.4814    1.9365   -1.5338 H         1 <0>         0.0962
     37 H13        -5.9858    1.8743   -3.8629 H         1 <0>         0.1069
     38 H14        -6.5190    3.4085   -3.0957 H         1 <0>         0.0916
     39 H15        -4.1236    3.7968   -2.8886 H         1 <0>         0.0996
     40 H16        -3.7518    2.0398   -2.9218 H         1 <0>         0.1011
@<TRIPOS>BOND
     1    1    6 ar
     2    1    2 ar
     3    1   25 1
     4    2    3 ar
     5    2   26 1
     6    3    4 ar
     7    3   27 1
     8    4   10 ar
     9    4    5 ar
    10    5    6 ar
    11    5    7 ar
    12    6   28 1
    13    7    8 ar
    14    7   11 1
    15    8    9 ar
    16    8   29 1
    17    9   10 ar
    18    9   30 1
    19   11   15 1
    20   11   12 2
    21   12   24 1
    22   12   13 1
    23   13   14 1
    24   13   22 1
    25   14   15 2
    26   15   16 1
    27   16   21 ar
    28   16   17 ar
    29   17   18 ar
    30   17   31 1
    31   18   19 ar
    32   18   32 1
    33   19   20 ar
    34   19   33 1
    35   20   21 ar
    36   20   34 1
    37   22   23 1
    38   22   35 1
    39   22   36 1
    40   23   24 1
    41   23   37 1
    42   23   38 1
    43   24   39 1
    44   24   40 1
@<TRIPOS>MOLECULE
ZINC03830999
   35    36     0     0     0
SMALL
USER_CHARGES

@<TRIPOS>ATOM
      1 C1          0.3964    9.1817   -3.6528 C.ar      1 <0>        -0.1576
      2 C2          0.1763    9.8444   -4.8449 C.ar      1 <0>        -0.0964
      3 C3          0.1102   11.2293   -4.8665 C.ar      1 <0>         0.1165
      4 C4          0.2600   11.9496   -3.6898 C.ar      1 <0>        -0.0955
      5 C5          0.4748   11.2867   -2.4970 C.ar      1 <0>        -0.0853
      6 C6          0.5408    9.9010   -2.4757 C.ar      1 <0>         0.1172
      7 O1          0.7528    9.2484   -1.3019 O.3       1 <0>        -0.2423
      8 C7          0.8102    7.8909   -1.3280 C.ar      1 <0>         0.1500
      9 C8          2.0253    7.2501   -1.5256 C.ar      1 <0>        -0.1104
     10 C9          2.0808    5.8694   -1.5512 C.ar      1 <0>        -0.0808
     11 C10         0.9272    5.1266   -1.3802 C.ar      1 <0>        -0.0964
     12 C11        -0.2856    5.7624   -1.1888 C.ar      1 <0>        -0.0429
     13 C12        -0.3462    7.1427   -1.1566 C.ar      1 <0>        -0.1074
     14 I1         -2.1831    8.1050   -0.8587 I         1 <0>         0.0127
     15 C13         0.9909    3.6212   -1.4086 C.3       1 <0>        -0.0843
     16 C14         1.2350    3.0943    0.0069 C.3       1 <0>        -0.0134
     17 H1          0.4688    3.4843    0.6769 H         1 <0>         0.1415
     18 C15         1.1765    1.5884   -0.0006 C.2       1 <0>         0.4555
     19 O2          2.1986    0.9442   -0.0139 O.co2     1 <0>        -0.6116
     20 I2          3.7739    8.3746   -1.7841 I         1 <0>         0.0083
     21 I3          0.1609   14.0420   -3.7224 I         1 <0>        -0.0081
     22 O3         -0.1008   11.8817   -6.0409 O.3       1 <0>        -0.4824
     23 H2          0.4522    8.1033   -3.6369 H         1 <0>         0.1308
     24 H3          0.0597    9.2840   -5.7607 H         1 <0>         0.1439
     25 H4          0.5917   11.8471   -1.5811 H         1 <0>         0.1457
     26 H5          3.0261    5.3702   -1.7046 H         1 <0>         0.1446
     27 H6         -1.1858    5.1797   -1.0599 H         1 <0>         0.1544
     28 H7          1.8055    3.3043   -2.0598 H         1 <0>         0.1024
     29 H8          0.0485    3.2247   -1.7864 H         1 <0>         0.1302
     30 H9          3.2870    3.1816   -0.1348 H         1 <0>         0.4349
     31 H10         2.6024    4.5358    0.5458 H         1 <0>         0.4158
     32 H11         0.7103   12.1096   -6.5155 H         1 <0>         0.3941
     33 O4         -0.0110    0.9628    0.0073 O.co2     1 <0>        -0.6956
     34 N1          2.5594    3.5194    0.4930 N.4       1 <0>        -0.6288
     35 H12         2.7168    3.1284    1.4293 H         1 <0>         0.4405
@<TRIPOS>BOND
     1    1    6 ar
     2    1    2 ar
     3    1   23 1
     4    2    3 ar
     5    2   24 1
     6    3    4 ar
     7    3   22 1
     8    4    5 ar
     9    4   21 1
    10    5    6 ar
    11    5   25 1
    12    6    7 1
    13    7    8 1
    14    8   13 ar
    15    8    9 ar
    16    9   10 ar
    17    9   20 1
    18   10   11 ar
    19   10   26 1
    20   11   12 ar
    21   11   15 1
    22   12   13 ar
    23   12   27 1
    24   13   14 1
    25   15   16 1
    26   15   28 1
    27   15   29 1
    28   16   17 1
    29   16   18 1
    30   16   34 1
    31   18   19 2
    32   18   33 1
    33   22   32 1
    34   30   34 1
    35   31   34 1
    36   34   35 1
@<TRIPOS>MOLECULE
ZINC13643206
   37    38     0     0     0
SMALL
USER_CHARGES
2-[3,5-dibromo-4-(cyclohexylmethoxy)phenyl]acetic acid
@<TRIPOS>ATOM
      1 C1         -0.0126    1.0758    0.0080 C.ar      1 <0>        -0.0592
      2 C2          1.1756    1.7827    0.0004 C.ar      1 <0>        -0.0212
      3 C3          1.1606    3.1652    0.0075 C.ar      1 <0>        -0.0590
      4 C4         -0.0432    3.8446    0.0217 C.ar      1 <0>        -0.1002
      5 C5         -1.2374    3.1376    0.0293 C.ar      1 <0>         0.1293
      6 C6         -1.2194    1.7500    0.0173 C.ar      1 <0>        -0.1000
      7 Br1        -2.8440    0.7824    0.0197 Br        1 <0>        -0.0405
      8 O1         -2.4226    3.8031    0.0433 O.3       1 <0>        -0.3154
      9 C7         -2.9999    4.1267   -1.2232 C.3       1 <0>         0.0679
     10 C8         -4.3206    4.8684   -1.0071 C.3       1 <0>        -0.0785
     11 C9         -5.3257    3.9337   -0.3311 C.3       1 <0>        -0.1112
     12 C10        -6.6464    4.6754   -0.1150 C.3       1 <0>        -0.1192
     13 C11        -7.2023    5.1311   -1.4657 C.3       1 <0>        -0.1205
     14 C12        -6.1971    6.0658   -2.1417 C.3       1 <0>        -0.1158
     15 C13        -4.8765    5.3241   -2.3578 C.3       1 <0>        -0.1138
     16 Br2        -0.0627    5.7354    0.0315 Br        1 <0>        -0.0412
     17 C14         2.4896    1.0449   -0.0151 C.3       1 <0>        -0.1327
     18 C15         2.9146    0.8057   -1.4410 C.2       1 <0>         0.4660
     19 O2          2.2216    1.1944   -2.3512 O.co2     1 <0>        -0.6290
     20 H1          0.0021   -0.0041    0.0020 H         1 <0>         0.1387
     21 H2          2.0903    3.7148    0.0016 H         1 <0>         0.1387
     22 H3         -2.3139    4.7620   -1.7835 H         1 <0>         0.0559
     23 H4         -3.1854    3.2099   -1.7828 H         1 <0>         0.0565
     24 H5         -4.1494    5.7380   -0.3726 H         1 <0>         0.0799
     25 H6         -5.4969    3.0641   -0.9656 H         1 <0>         0.0604
     26 H7         -4.9297    3.6090    0.6311 H         1 <0>         0.0720
     27 H8         -6.4752    5.5449    0.5195 H         1 <0>         0.0604
     28 H9         -7.3624    4.0095    0.3666 H         1 <0>         0.0592
     29 H10        -8.1431    5.6594   -1.3117 H         1 <0>         0.0579
     30 H11        -7.3735    4.2615   -2.1002 H         1 <0>         0.0606
     31 H12        -6.0259    6.9353   -1.5072 H         1 <0>         0.0617
     32 H13        -6.5931    6.3904   -3.1039 H         1 <0>         0.0612
     33 H14        -4.1604    5.9900   -2.8394 H         1 <0>         0.0644
     34 H15        -5.0477    4.4545   -2.9923 H         1 <0>         0.0647
     35 H16         3.2468    1.6406    0.4946 H         1 <0>         0.0836
     36 H17         2.3753    0.0886    0.4953 H         1 <0>         0.0836
     37 O3          4.0629    0.1607   -1.6998 O.co2     1 <0>        -0.7655
@<TRIPOS>BOND
     1    1    6 ar
     2    1    2 ar
     3    1   20 1
     4    2    3 ar
     5    2   17 1
     6    3    4 ar
     7    3   21 1
     8    4    5 ar
     9    4   16 1
    10    5    6 ar
    11    5    8 1
    12    6    7 1
    13    8    9 1
    14    9   10 1
    15    9   22 1
    16    9   23 1
    17   10   15 1
    18   10   11 1
    19   10   24 1
    20   11   12 1
    21   11   25 1
    22   11   26 1
    23   12   13 1
    24   12   27 1
    25   12   28 1
    26   13   14 1
    27   13   29 1
    28   13   30 1
    29   14   15 1
    30   14   31 1
    31   14   32 1
    32   15   33 1
    33   15   34 1
    34   17   18 1
    35   17   35 1
    36   17   36 1
    37   18   19 2
    38   18   37 1
@<TRIPOS>MOLECULE
ZINC03065713
   47    47     0     0     0
SMALL
USER_CHARGES

@<TRIPOS>ATOM
      1 C1         -0.0187    1.5258    0.0104 C.3       1 <0>        -0.1553
      2 C2          0.0021   -0.0041    0.0020 C.3       1 <0>        -0.1264
      3 C3         -1.4333   -0.5336    0.0129 C.3       1 <0>        -0.1208
      4 C4         -1.4126   -2.0635    0.0045 C.3       1 <0>        -0.1219
      5 C5         -2.8479   -2.5931    0.0153 C.3       1 <0>        -0.1128
      6 C6         -2.8272   -4.1229    0.0069 C.3       1 <0>        -0.0943
      7 C7         -4.2410   -4.6445    0.0176 C.ar      1 <0>        -0.0298
      8 C8         -4.8773   -4.8839    1.2232 C.ar      1 <0>        -0.1278
      9 C9         -6.1707   -5.3616    1.2413 C.ar      1 <0>        -0.0478
     10 C10        -6.8396   -5.6038    0.0373 C.ar      1 <0>        -0.1926
     11 C11        -6.1899   -5.3589   -1.1767 C.ar      1 <0>        -0.0707
     12 C12        -4.8983   -4.8763   -1.1781 C.ar      1 <0>        -0.1303
     13 C13        -8.2200   -6.1141    0.0477 C.2       1 <0>         0.4104
     14 O1         -8.7801   -6.3256    1.1021 O.2       1 <0>        -0.4440
     15 C14        -8.9372   -6.3737   -1.2520 C.3       1 <0>        -0.1995
     16 C15       -10.3458   -6.8956   -0.9617 C.3       1 <0>        -0.0026
     17 N1        -11.0449   -7.1487   -2.2287 N.4       1 <0>        -0.3872
     18 C16       -10.3697   -8.2343   -2.9522 C.3       1 <0>        -0.0547
     19 C17       -12.4350   -7.5350   -1.9522 C.3       1 <0>        -0.0471
     20 H1          1.0039    1.9031    0.0027 H         1 <0>         0.0555
     21 H2         -0.5459    1.8868   -0.8726 H         1 <0>         0.0534
     22 H3         -0.5289    1.8773    0.9072 H         1 <0>         0.0538
     23 H4          0.5123   -0.3556   -0.8948 H         1 <0>         0.0611
     24 H5          0.5293   -0.3651    0.8851 H         1 <0>         0.0615
     25 H6         -1.9435   -0.1821    0.9097 H         1 <0>         0.0614
     26 H7         -1.9605   -0.1726   -0.8702 H         1 <0>         0.0608
     27 H8         -0.9024   -2.4150   -0.8923 H         1 <0>         0.0638
     28 H9         -0.8854   -2.4246    0.8875 H         1 <0>         0.0644
     29 H10        -3.3581   -2.2415    0.9121 H         1 <0>         0.0650
     30 H11        -3.3751   -2.2320   -0.8677 H         1 <0>         0.0641
     31 H12        -2.3170   -4.4744   -0.8899 H         1 <0>         0.0799
     32 H13        -2.3000   -4.4840    0.8900 H         1 <0>         0.0806
     33 H14        -4.3593   -4.6964    2.1521 H         1 <0>         0.1348
     34 H15        -6.6656   -5.5486    2.1828 H         1 <0>         0.1364
     35 H16        -6.6999   -5.5439   -2.1106 H         1 <0>         0.1276
     36 H17        -4.3967   -4.6826   -2.1148 H         1 <0>         0.1331
     37 H18        -9.0034   -5.4469   -1.8218 H         1 <0>         0.1233
     38 H19        -8.3862   -7.1164   -1.8289 H         1 <0>         0.1227
     39 H20       -10.2796   -7.8224   -0.3918 H         1 <0>         0.1374
     40 H21       -10.8968   -6.1529   -0.3848 H         1 <0>         0.1386
     41 H22       -10.3813   -9.1386   -2.3439 H         1 <0>         0.1241
     42 H23       -10.8884   -8.4220   -3.8923 H         1 <0>         0.1272
     43 H24        -9.3383   -7.9476   -3.1574 H         1 <0>         0.1233
     44 H25       -12.9360   -6.7296   -1.4153 H         1 <0>         0.1247
     45 H26       -12.9538   -7.7228   -2.8922 H         1 <0>         0.1264
     46 H27       -12.4466   -8.4394   -1.3438 H         1 <0>         0.1233
     47 H28       -11.0342   -6.3115   -2.7918 H         1 <0>         0.4271
@<TRIPOS>BOND
     1    1    2 1
     2    1   20 1
     3    1   21 1
     4    1   22 1
     5    2    3 1
     6    2   23 1
     7    2   24 1
     8    3    4 1
     9    3   25 1
    10    3   26 1
    11    4    5 1
    12    4   27 1
    13    4   28 1
    14    5    6 1
    15    5   29 1
    16    5   30 1
    17    6    7 1
    18    6   31 1
    19    6   32 1
    20    7   12 ar
    21    7    8 ar
    22    8    9 ar
    23    8   33 1
    24    9   10 ar
    25    9   34 1
    26   10   11 ar
    27   10   13 1
    28   11   12 ar
    29   11   35 1
    30   12   36 1
    31   13   14 2
    32   13   15 1
    33   15   16 1
    34   15   37 1
    35   15   38 1
    36   16   17 1
    37   16   39 1
    38   16   40 1
    39   17   18 1
    40   17   19 1
    41   17   47 1
    42   18   41 1
    43   18   42 1
    44   18   43 1
    45   19   44 1
    46   19   45 1
    47   19   46 1
@<TRIPOS>MOLECULE
ZINC14968935
   51    52     0     0     0
SMALL
USER_CHARGES
1-(4-hexylphenyl)-3-morpholino-propan-1-one
@<TRIPOS>ATOM
      1 C1         -9.0183    6.2319    4.4049 C.3       1 <0>        -0.1560
      2 C2         -8.5795    5.9908    2.9591 C.3       1 <0>        -0.1265
      3 C3         -7.2442    5.2439    2.9492 C.3       1 <0>        -0.1219
      4 C4         -6.8055    5.0028    1.5034 C.3       1 <0>        -0.1213
      5 C5         -5.4702    4.2558    1.4935 C.3       1 <0>        -0.1144
      6 C6         -5.0314    4.0147    0.0478 C.3       1 <0>        -0.0893
      7 C7         -3.7162    3.2791    0.0380 C.ar      1 <0>        -0.0456
      8 C8         -3.7017    1.8951    0.0304 C.ar      1 <0>        -0.1311
      9 C9         -2.5024    1.2147    0.0205 C.ar      1 <0>        -0.0569
     10 C10        -1.2987    1.9268    0.0187 C.ar      1 <0>        -0.1779
     11 C11        -1.3218    3.3250    0.0322 C.ar      1 <0>        -0.0682
     12 C12        -2.5293    3.9909    0.0362 C.ar      1 <0>        -0.1317
     13 C13        -0.0144    1.2083    0.0087 C.2       1 <0>         0.3993
     14 O1          0.0021   -0.0041    0.0020 O.2       1 <0>        -0.4531
     15 C14         1.2803    1.9795    0.0005 C.3       1 <0>        -0.1645
     16 C15         2.4566    1.0012   -0.0160 C.3       1 <0>         0.0625
     17 N1          3.7186    1.7530   -0.0240 N.3       1 <0>        -0.5373
     18 C16         3.8777    2.5021   -1.2790 C.3       1 <0>         0.0104
     19 C17         5.1732    3.3158   -1.2206 C.3       1 <0>         0.0614
     20 O2          6.2725    2.4353   -0.9725 O.3       1 <0>        -0.3849
     21 C18         6.1507    1.6903    0.2422 C.3       1 <0>         0.0616
     22 C19         4.8651    0.8601    0.1986 C.3       1 <0>         0.0162
     23 H1         -9.9783    6.7689    4.4120 H         1 <0>         0.0541
     24 H2         -8.2576    6.8339    4.9234 H         1 <0>         0.0539
     25 H3         -9.1345    5.2662    4.9187 H         1 <0>         0.0538
     26 H4         -9.3402    5.3888    2.4406 H         1 <0>         0.0609
     27 H5         -8.4633    6.9565    2.4453 H         1 <0>         0.0609
     28 H6         -6.4835    5.8460    3.4677 H         1 <0>         0.0616
     29 H7         -7.3604    4.2783    3.4630 H         1 <0>         0.0615
     30 H8         -7.5663    4.4008    0.9849 H         1 <0>         0.0629
     31 H9         -6.6893    5.9685    0.9896 H         1 <0>         0.0630
     32 H10        -4.7095    4.8578    2.0120 H         1 <0>         0.0649
     33 H11        -5.5864    3.2901    2.0073 H         1 <0>         0.0647
     34 H12        -5.7921    3.4126   -0.4707 H         1 <0>         0.0765
     35 H13        -4.9153    4.9803   -0.4660 H         1 <0>         0.0769
     36 H14        -4.6321    1.3467    0.0318 H         1 <0>         0.1286
     37 H15        -2.4926    0.1348    0.0139 H         1 <0>         0.1330
     38 H16        -0.3964    3.8819    0.0350 H         1 <0>         0.1322
     39 H17        -2.5489    5.0707    0.0419 H         1 <0>         0.1290
     40 H18         1.3214    2.6175   -0.8947 H         1 <0>         0.1004
     41 H19         1.3386    2.6078    0.9015 H         1 <0>         0.1108
     42 H20         2.4155    0.3632    0.8792 H         1 <0>         0.0846
     43 H21         2.3984    0.3729   -0.9170 H         1 <0>         0.0438
     44 H22         3.9223    1.7981   -2.1231 H         1 <0>         0.0448
     45 H23         3.0220    3.1804   -1.4122 H         1 <0>         0.0885
     46 H24         5.3246    3.8334   -2.1793 H         1 <0>         0.0999
     47 H25         5.1045    4.0569   -0.4107 H         1 <0>         0.0613
     48 H26         7.0176    1.0219    0.3509 H         1 <0>         0.1007
     49 H27         6.1130    2.3836    1.0954 H         1 <0>         0.0615
     50 H28         4.7365    0.3294    1.1535 H         1 <0>         0.0891
     51 H29         4.9257    0.1296   -0.6216 H         1 <0>         0.0452
@<TRIPOS>BOND
     1    1    2 1
     2    1   23 1
     3    1   24 1
     4    1   25 1
     5    2    3 1
     6    2   26 1
     7    2   27 1
     8    3    4 1
     9    3   28 1
    10    3   29 1
    11    4    5 1
    12    4   30 1
    13    4   31 1
    14    5    6 1
    15    5   32 1
    16    5   33 1
    17    6    7 1
    18    6   34 1
    19    6   35 1
    20    7   12 ar
    21    7    8 ar
    22    8    9 ar
    23    8   36 1
    24    9   10 ar
    25    9   37 1
    26   10   11 ar
    27   10   13 1
    28   11   12 ar
    29   11   38 1
    30   12   39 1
    31   13   14 2
    32   13   15 1
    33   15   16 1
    34   15   40 1
    35   15   41 1
    36   16   17 1
    37   16   42 1
    38   16   43 1
    39   17   22 1
    40   17   18 1
    41   18   19 1
    42   18   44 1
    43   18   45 1
    44   19   20 1
    45   19   46 1
    46   19   47 1
    47   20   21 1
    48   21   22 1
    49   21   48 1
    50   21   49 1
    51   22   50 1
    52   22   51 1
@<TRIPOS>MOLECULE
ZINC13829389
   36    36     0     0     0
SMALL
USER_CHARGES

@<TRIPOS>ATOM
      1 C1         -0.0187    1.5258    0.0104 C.3       1 <0>        -0.1546
      2 C2          0.0021   -0.0041    0.0020 C.3       1 <0>        -0.1259
      3 C3          0.7421   -0.5109    1.2415 C.3       1 <0>        -0.1214
      4 C4          0.7628   -2.0407    1.2331 C.3       1 <0>        -0.1208
      5 C5          1.5028   -2.5476    2.4727 C.3       1 <0>        -0.1139
      6 C6          1.5236   -4.0774    2.4642 C.3       1 <0>        -0.0874
      7 C7          2.2524   -4.5766    3.6851 C.ar      1 <0>        -0.0484
      8 C8          3.6200   -4.7820    3.6348 C.ar      1 <0>        -0.1305
      9 C9          4.2934   -5.2388    4.7486 C.ar      1 <0>        -0.0588
     10 C10         3.5919   -5.4940    5.9288 C.ar      1 <0>        -0.1692
     11 C11         2.2119   -5.2846    5.9725 C.ar      1 <0>        -0.0691
     12 C12         1.5519   -4.8222    4.8531 C.ar      1 <0>        -0.1318
     13 C13         4.3068   -5.9842    7.1263 C.2       1 <0>         0.4212
     14 O1          5.5086   -6.1661    7.0851 O.2       1 <0>        -0.4585
     15 C14         3.5653   -6.2518    8.3667 C.2       1 <0>        -0.2384
     16 C15         4.2094   -6.6935    9.4457 C.2       1 <0>        -0.0877
     17 H1          1.0039    1.9031    0.0027 H         1 <0>         0.0535
     18 H2         -0.5459    1.8868   -0.8726 H         1 <0>         0.0537
     19 H3         -0.5289    1.8773    0.9072 H         1 <0>         0.0534
     20 H4         -1.0205   -0.3814    0.0098 H         1 <0>         0.0606
     21 H5          0.5123   -0.3556   -0.8948 H         1 <0>         0.0606
     22 H6          1.7647   -0.1336    1.2338 H         1 <0>         0.0613
     23 H7          0.2319   -0.1594    2.1383 H         1 <0>         0.0612
     24 H8         -0.2598   -2.4180    1.2409 H         1 <0>         0.0626
     25 H9          1.2730   -2.3923    0.3363 H         1 <0>         0.0626
     26 H10         2.5254   -2.1703    2.4649 H         1 <0>         0.0643
     27 H11         0.9926   -2.1961    3.3695 H         1 <0>         0.0644
     28 H12         0.5010   -4.4547    2.4720 H         1 <0>         0.0759
     29 H13         2.0337   -4.4289    1.5675 H         1 <0>         0.0758
     30 H14         4.1613   -4.5846    2.7213 H         1 <0>         0.1286
     31 H15         5.3607   -5.3990    4.7079 H         1 <0>         0.1332
     32 H16         1.6633   -5.4804    6.8820 H         1 <0>         0.1322
     33 H17         0.4854   -4.6556    4.8868 H         1 <0>         0.1288
     34 H18         2.4981   -6.0903    8.4033 H         1 <0>         0.1320
     35 H19         5.2767   -6.8549    9.4090 H         1 <0>         0.1134
     36 H20         3.6645   -6.8901   10.3571 H         1 <0>         0.1170
@<TRIPOS>BOND
     1    1    2 1
     2    1   17 1
     3    1   18 1
     4    1   19 1
     5    2    3 1
     6    2   20 1
     7    2   21 1
     8    3    4 1
     9    3   22 1
    10    3   23 1
    11    4    5 1
    12    4   24 1
    13    4   25 1
    14    5    6 1
    15    5   26 1
    16    5   27 1
    17    6    7 1
    18    6   28 1
    19    6   29 1
    20    7   12 ar
    21    7    8 ar
    22    8    9 ar
    23    8   30 1
    24    9   10 ar
    25    9   31 1
    26   10   11 ar
    27   10   13 1
    28   11   12 ar
    29   11   32 1
    30   12   33 1
    31   13   14 2
    32   13   15 1
    33   15   16 2
    34   15   34 1
    35   16   35 1
    36   16   36 1
@<TRIPOS>MOLECULE
ZINC04217553
   32    33     0     0     0
SMALL
USER_CHARGES
3-[4-(4-hydroxy-3-iodo-phenoxy)-3,5-diiodo-phenyl]propanoic acid
@<TRIPOS>ATOM
      1 C1          2.2201    3.8257   -2.3751 C.ar      1 <0>        -0.1563
      2 C2          2.7630    4.1691   -3.5982 C.ar      1 <0>        -0.0955
      3 C3          3.9519    4.8805   -3.6540 C.ar      1 <0>         0.1056
      4 C4          4.5940    5.2521   -2.4811 C.ar      1 <0>        -0.0937
      5 C5          4.0484    4.9133   -1.2581 C.ar      1 <0>        -0.0922
      6 C6          2.8588    4.2015   -1.2025 C.ar      1 <0>         0.1280
      7 O1          2.3219    3.8675    0.0011 O.3       1 <0>        -0.2394
      8 C7          1.1555    3.1701    0.0081 C.ar      1 <0>         0.1218
      9 C8          1.1751    1.7824    0.0004 C.ar      1 <0>        -0.1055
     10 C9         -0.0126    1.0758    0.0080 C.ar      1 <0>        -0.0587
     11 C10        -1.2196    1.7501    0.0174 C.ar      1 <0>        -0.0460
     12 C11        -1.2421    3.1326    0.0307 C.ar      1 <0>        -0.0584
     13 C12        -0.0575    3.8443    0.0233 C.ar      1 <0>        -0.1053
     14 I1         -0.0928    5.9390    0.0355 I         1 <0>        -0.0135
     15 C13        -2.5131    0.9769    0.0188 C.3       1 <0>        -0.0675
     16 C14        -2.9443    0.7068    1.4617 C.3       1 <0>        -0.1519
     17 C15        -4.2377   -0.0664    1.4632 C.2       1 <0>         0.4601
     18 O2         -4.7610   -0.3704    0.4174 O.co2     1 <0>        -0.6396
     19 I2          3.0034    0.7597   -0.0218 I         1 <0>        -0.0145
     20 I3          6.3906    6.3263   -2.5654 I         1 <0>        -0.0200
     21 O3          4.4891    5.2136   -4.8581 O.3       1 <0>        -0.4841
     22 H1          1.2964    3.2678   -2.3318 H         1 <0>         0.1347
     23 H2          2.2636    3.8796   -4.5110 H         1 <0>         0.1415
     24 H3          4.5481    5.2021   -0.3452 H         1 <0>         0.1432
     25 H4          0.0021   -0.0041    0.0020 H         1 <0>         0.1455
     26 H5         -2.1863    3.6567    0.0426 H         1 <0>         0.1455
     27 H6         -3.2839    1.5573   -0.4882 H         1 <0>         0.0820
     28 H7         -2.3706    0.0295   -0.5012 H         1 <0>         0.0819
     29 H8         -2.1734    0.1265    1.9687 H         1 <0>         0.0667
     30 H9         -3.0867    1.6542    1.9817 H         1 <0>         0.0667
     31 H10         5.0974    4.5516   -5.2141 H         1 <0>         0.3898
     32 O4         -4.8085   -0.4175    2.6262 O.co2     1 <0>        -0.7708
@<TRIPOS>BOND
     1    1    6 ar
     2    1    2 ar
     3    1   22 1
     4    2    3 ar
     5    2   23 1
     6    3    4 ar
     7    3   21 1
     8    4    5 ar
     9    4   20 1
    10    5    6 ar
    11    5   24 1
    12    6    7 1
    13    7    8 1
    14    8   13 ar
    15    8    9 ar
    16    9   10 ar
    17    9   19 1
    18   10   11 ar
    19   10   25 1
    20   11   12 ar
    21   11   15 1
    22   12   13 ar
    23   12   26 1
    24   13   14 1
    25   15   16 1
    26   15   27 1
    27   15   28 1
    28   16   17 1
    29   16   29 1
    30   16   30 1
    31   17   18 2
    32   17   32 1
    33   21   31 1
@<TRIPOS>MOLECULE
ZINC14969063
   38    38     0     0     0
SMALL
USER_CHARGES
3-bromo-1-(4-hexylphenyl)propan-1-one
@<TRIPOS>ATOM
      1 C1         -9.0183    6.2319    4.4049 C.3       1 <0>        -0.1547
      2 C2         -8.5795    5.9908    2.9591 C.3       1 <0>        -0.1259
      3 C3         -7.2442    5.2439    2.9492 C.3       1 <0>        -0.1213
      4 C4         -6.8055    5.0028    1.5034 C.3       1 <0>        -0.1209
      5 C5         -5.4702    4.2558    1.4935 C.3       1 <0>        -0.1138
      6 C6         -5.0314    4.0147    0.0478 C.3       1 <0>        -0.0887
      7 C7         -3.7162    3.2791    0.0380 C.ar      1 <0>        -0.0440
      8 C8         -3.7017    1.8951    0.0304 C.ar      1 <0>        -0.1309
      9 C9         -2.5024    1.2147    0.0205 C.ar      1 <0>        -0.0547
     10 C10        -1.2987    1.9268    0.0187 C.ar      1 <0>        -0.1795
     11 C11        -1.3218    3.3250    0.0322 C.ar      1 <0>        -0.0681
     12 C12        -2.5293    3.9909    0.0362 C.ar      1 <0>        -0.1310
     13 C13        -0.0144    1.2083    0.0087 C.2       1 <0>         0.4005
     14 O1          0.0021   -0.0041    0.0020 O.2       1 <0>        -0.4494
     15 C14         1.2803    1.9795    0.0005 C.3       1 <0>        -0.1579
     16 C15         2.4566    1.0012   -0.0160 C.3       1 <0>        -0.0727
     17 Br1         4.1456    2.0073   -0.0267 Br        1 <0>        -0.1538
     18 H1         -9.1335    5.2750    4.9140 H         1 <0>         0.0535
     19 H2         -8.2645    6.8284    4.9187 H         1 <0>         0.0535
     20 H3         -9.9696    6.7640    4.4119 H         1 <0>         0.0538
     21 H4         -8.4644    6.9477    2.4500 H         1 <0>         0.0607
     22 H5         -9.3333    5.3942    2.4453 H         1 <0>         0.0606
     23 H6         -7.3594    4.2870    3.4583 H         1 <0>         0.0613
     24 H7         -6.4904    5.8404    3.4630 H         1 <0>         0.0613
     25 H8         -6.6903    5.9596    0.9943 H         1 <0>         0.0628
     26 H9         -7.5593    4.4062    0.9896 H         1 <0>         0.0628
     27 H10        -5.5854    3.2990    2.0026 H         1 <0>         0.0644
     28 H11        -4.7164    4.8524    2.0073 H         1 <0>         0.0646
     29 H12        -4.9163    4.9716   -0.4614 H         1 <0>         0.0768
     30 H13        -5.7852    3.4182   -0.4660 H         1 <0>         0.0765
     31 H14        -4.6321    1.3467    0.0318 H         1 <0>         0.1296
     32 H15        -2.4926    0.1348    0.0139 H         1 <0>         0.1341
     33 H16        -0.3964    3.8819    0.0350 H         1 <0>         0.1327
     34 H17        -2.5489    5.0707    0.0419 H         1 <0>         0.1300
     35 H18         1.3177    2.5595   -0.8133 H         1 <0>         0.1006
     36 H19         1.3381    2.6021    0.8933 H         1 <0>         0.1126
     37 H20         2.4158    0.3691    0.8710 H         1 <0>         0.1075
     38 H21         2.3988    0.3786   -0.9088 H         1 <0>         0.1071
@<TRIPOS>BOND
     1    1    2 1
     2    1   18 1
     3    1   19 1
     4    1   20 1
     5    2    3 1
     6    2   21 1
     7    2   22 1
     8    3    4 1
     9    3   23 1
    10    3   24 1
    11    4    5 1
    12    4   25 1
    13    4   26 1
    14    5    6 1
    15    5   27 1
    16    5   28 1
    17    6    7 1
    18    6   29 1
    19    6   30 1
    20    7   12 ar
    21    7    8 ar
    22    8    9 ar
    23    8   31 1
    24    9   10 ar
    25    9   32 1
    26   10   11 ar
    27   10   13 1
    28   11   12 ar
    29   11   33 1
    30   12   34 1
    31   13   14 2
    32   13   15 1
    33   15   16 1
    34   15   35 1
    35   15   36 1
    36   16   17 1
    37   16   37 1
    38   16   38 1
@<TRIPOS>MOLECULE
ZINC04217580
   29    30     0     0     0
SMALL
USER_CHARGES
2-[4-(4-hydroxy-3-iodo-phenoxy)-3,5-diiodo-phenyl]acetic acid
@<TRIPOS>ATOM
      1 C1          2.2201    3.8257   -2.3751 C.ar      1 <0>        -0.1567
      2 C2          2.7630    4.1691   -3.5982 C.ar      1 <0>        -0.0956
      3 C3          3.9519    4.8805   -3.6540 C.ar      1 <0>         0.1022
      4 C4          4.5940    5.2521   -2.4811 C.ar      1 <0>        -0.0928
      5 C5          4.0484    4.9133   -1.2581 C.ar      1 <0>        -0.0942
      6 C6          2.8588    4.2015   -1.2025 C.ar      1 <0>         0.1312
      7 O1          2.3219    3.8675    0.0011 O.3       1 <0>        -0.2378
      8 C7          1.1555    3.1701    0.0081 C.ar      1 <0>         0.1154
      9 C8          1.1751    1.7824    0.0004 C.ar      1 <0>        -0.1024
     10 C9         -0.0126    1.0758    0.0080 C.ar      1 <0>        -0.0530
     11 C10        -1.2196    1.7501    0.0174 C.ar      1 <0>        -0.0106
     12 C11        -1.2421    3.1326    0.0307 C.ar      1 <0>        -0.0526
     13 C12        -0.0575    3.8443    0.0233 C.ar      1 <0>        -0.1022
     14 I1         -0.0928    5.9390    0.0355 I         1 <0>        -0.0204
     15 C13        -2.5131    0.9769    0.0188 C.3       1 <0>        -0.1355
     16 C14        -2.9378    0.7109    1.4400 C.2       1 <0>         0.4661
     17 O2         -2.2597    1.1085    2.3576 O.co2     1 <0>        -0.6272
     18 I2          3.0034    0.7597   -0.0218 I         1 <0>        -0.0214
     19 I3          6.3906    6.3263   -2.5654 I         1 <0>        -0.0226
     20 O3          4.4891    5.2136   -4.8581 O.3       1 <0>        -0.4845
     21 H1          1.2964    3.2678   -2.3318 H         1 <0>         0.1352
     22 H2          2.2636    3.8796   -4.5110 H         1 <0>         0.1404
     23 H3          4.5481    5.2021   -0.3452 H         1 <0>         0.1428
     24 H4          0.0021   -0.0041    0.0020 H         1 <0>         0.1400
     25 H5         -2.1863    3.6567    0.0426 H         1 <0>         0.1401
     26 H6         -3.2839    1.5573   -0.4882 H         1 <0>         0.0853
     27 H7         -2.3706    0.0295   -0.5012 H         1 <0>         0.0852
     28 H8          5.0974    4.5516   -5.2141 H         1 <0>         0.3885
     29 O4         -4.0694    0.0323    1.6866 O.co2     1 <0>        -0.7626
@<TRIPOS>BOND
     1    1    6 ar
     2    1    2 ar
     3    1   21 1
     4    2    3 ar
     5    2   22 1
     6    3    4 ar
     7    3   20 1
     8    4    5 ar
     9    4   19 1
    10    5    6 ar
    11    5   23 1
    12    6    7 1
    13    7    8 1
    14    8   13 ar
    15    8    9 ar
    16    9   10 ar
    17    9   18 1
    18   10   11 ar
    19   10   24 1
    20   11   12 ar
    21   11   15 1
    22   12   13 ar
    23   12   25 1
    24   13   14 1
    25   15   16 1
    26   15   26 1
    27   15   27 1
    28   16   17 2
    29   16   29 1
    30   20   28 1
@<TRIPOS>MOLECULE
ZINC03831000
   35    36     0     0     0
SMALL
USER_CHARGES
2-amino-3-[4-(4-hydroxy-3-iodo-phenoxy)-3,5-diiodo-phenyl]-propanoic acid
@<TRIPOS>ATOM
      1 C1         -1.1082   -0.6335   -2.3672 C.ar      1 <0>        -0.1604
      2 C2         -1.6743   -0.9640   -3.5834 C.ar      1 <0>        -0.0973
      3 C3         -2.8643   -1.6746   -3.6242 C.ar      1 <0>         0.1156
      4 C4         -3.4844   -2.0581   -2.4433 C.ar      1 <0>        -0.0941
      5 C5         -2.9156   -1.7322   -1.2272 C.ar      1 <0>        -0.0853
      6 C6         -1.7246   -1.0216   -1.1868 C.ar      1 <0>         0.1196
      7 O1         -1.1647   -0.7008    0.0099 O.3       1 <0>        -0.2410
      8 C7          0.0021   -0.0041    0.0020 C.ar      1 <0>         0.1504
      9 C8         -0.0167    1.3837    0.0096 C.ar      1 <0>        -0.1102
     10 C9          1.1713    2.0896    0.0021 C.ar      1 <0>        -0.0811
     11 C10         2.3780    1.4146   -0.0126 C.ar      1 <0>        -0.0959
     12 C11         2.3997    0.0322   -0.0207 C.ar      1 <0>        -0.0431
     13 C12         1.2148   -0.6789   -0.0132 C.ar      1 <0>        -0.1073
     14 I1          1.2489   -2.7736   -0.0255 I         1 <0>         0.0129
     15 C13         3.6718    2.1872   -0.0198 C.3       1 <0>        -0.0844
     16 C14         4.0968    2.4569   -1.4647 C.3       1 <0>        -0.0136
     17 H1          4.1503    1.5144   -2.0096 H         1 <0>         0.1414
     18 C15         5.4497    3.1206   -1.4748 C.2       1 <0>         0.4555
     19 O2          5.5347    4.3169   -1.6212 O.co2     1 <0>        -0.6115
     20 I2         -1.8445    2.4074    0.0239 I         1 <0>         0.0086
     21 I3         -5.2830   -3.1305   -2.5048 I         1 <0>        -0.0069
     22 O3         -3.4241   -1.9953   -4.8213 O.3       1 <0>        -0.4823
     23 H2         -0.1835   -0.0765   -2.3356 H         1 <0>         0.1286
     24 H3         -1.1920   -0.6653   -4.5024 H         1 <0>         0.1429
     25 H4         -3.3981   -2.0302   -0.3082 H         1 <0>         0.1462
     26 H5          1.1573    3.1695    0.0077 H         1 <0>         0.1447
     27 H6          3.3437   -0.4925   -0.0325 H         1 <0>         0.1546
     28 H7          3.5322    3.1347    0.5007 H         1 <0>         0.1029
     29 H8          4.4446    1.6064    0.4838 H         1 <0>         0.1306
     30 H9          2.2123    2.8904   -2.1712 H         1 <0>         0.4147
     31 H10         3.0456    4.2202   -1.6206 H         1 <0>         0.4353
     32 H11        -4.0388   -1.3296   -5.1590 H         1 <0>         0.3939
     33 O4          6.5604    2.3827   -1.3213 O.co2     1 <0>        -0.6953
     34 N1          3.1246    3.3418   -2.1304 N.4       1 <0>        -0.6288
     35 H12         3.4450    3.5368   -3.0862 H         1 <0>         0.4403
@<TRIPOS>BOND
     1    1    6 ar
     2    1    2 ar
     3    1   23 1
     4    2    3 ar
     5    2   24 1
     6    3    4 ar
     7    3   22 1
     8    4    5 ar
     9    4   21 1
    10    5    6 ar
    11    5   25 1
    12    6    7 1
    13    7    8 1
    14    8   13 ar
    15    8    9 ar
    16    9   10 ar
    17    9   20 1
    18   10   11 ar
    19   10   26 1
    20   11   12 ar
    21   11   15 1
    22   12   13 ar
    23   12   27 1
    24   13   14 1
    25   15   16 1
    26   15   28 1
    27   15   29 1
    28   16   17 1
    29   16   18 1
    30   16   34 1
    31   18   19 2
    32   18   33 1
    33   22   32 1
    34   30   34 1
    35   31   34 1
    36   34   35 1
@<TRIPOS>MOLECULE
ZINC03830212
   61    63     0     0     0
SMALL
USER_CHARGES
(2-butylbenzofuran-3-yl)-[4-(2-diethylaminoethoxy)-3,5-diiodo-phenyl]-methanone
@<TRIPOS>ATOM
      1 C1         -4.1677    4.6447    4.0546 C.3       1 <0>        -0.1559
      2 C2         -2.9795    4.1958    4.9076 C.3       1 <0>        -0.1215
      3 C3         -2.2245    3.0795    4.1832 C.3       1 <0>        -0.1217
      4 C4         -1.0363    2.6306    5.0361 C.3       1 <0>        -0.0556
      5 C5         -0.2927    1.5310    4.3226 C.2       1 <0>         0.1031
      6 C6          0.7390    1.7197    3.4530 C.2       1 <0>        -0.2632
      7 C7          1.1431    0.3689    3.0136 C.ar      1 <0>        -0.0982
      8 C8          2.1157   -0.1196    2.1476 C.ar      1 <0>        -0.0789
      9 C9          2.2335   -1.4791    1.9520 C.ar      1 <0>        -0.1205
     10 C10         1.3877   -2.3551    2.6156 C.ar      1 <0>        -0.0885
     11 C11         0.4203   -1.8818    3.4760 C.ar      1 <0>        -0.0979
     12 C12         0.2862   -0.5146    3.6855 C.ar      1 <0>         0.0534
     13 O1         -0.5429    0.2233    4.4527 O.3       1 <0>        -0.1754
     14 C13         1.3271    3.0012    3.0377 C.2       1 <0>         0.4789
     15 O2          0.9433    3.5452    2.0190 O.2       1 <0>        -0.4115
     16 C14         2.3833    3.6285    3.8565 C.ar      1 <0>        -0.1423
     17 C15         2.9023    2.9553    4.9660 C.ar      1 <0>         0.0014
     18 C16         3.8914    3.5418    5.7244 C.ar      1 <0>        -0.1300
     19 C17         4.3655    4.8065    5.3942 C.ar      1 <0>         0.1789
     20 C18         3.8481    5.4816    4.2943 C.ar      1 <0>        -0.1306
     21 C19         2.8628    4.8995    3.5275 C.ar      1 <0>         0.0029
     22 I1          4.5683    7.3863    3.8021 I         1 <0>        -0.0105
     23 O3          5.3362    5.3834    6.1473 O.3       1 <0>        -0.3308
     24 C20         4.9106    6.1869    7.2496 C.3       1 <0>         0.0219
     25 C21         6.1355    6.7485    7.9743 C.3       1 <0>        -0.0014
     26 C22         6.0477    8.8560    6.7855 C.3       1 <0>        -0.0236
     27 C23         5.8232    9.6517    8.0729 C.3       1 <0>        -0.1842
     28 C24         8.1576    8.0399    7.6484 C.3       1 <0>        -0.0132
     29 C25         9.0268    8.6709    6.5589 C.3       1 <0>        -0.1896
     30 I2          4.6769    2.5302    7.3823 I         1 <0>         0.0118
     31 H1         -3.8070    5.0137    3.0946 H         1 <0>         0.0557
     32 H2         -4.8371    3.8002    3.8910 H         1 <0>         0.0574
     33 H3         -4.7056    5.4399    4.5707 H         1 <0>         0.0582
     34 H4         -3.3403    3.8267    5.8677 H         1 <0>         0.0666
     35 H5         -2.3101    5.0403    5.0713 H         1 <0>         0.0616
     36 H6         -2.8939    2.2350    4.0195 H         1 <0>         0.0747
     37 H7         -1.8638    3.4485    3.2231 H         1 <0>         0.0717
     38 H8         -0.3669    3.4751    5.1998 H         1 <0>         0.0938
     39 H9         -1.3971    2.2615    5.9962 H         1 <0>         0.0985
     40 H10         2.7746    0.5624    1.6307 H         1 <0>         0.1258
     41 H11         2.9870   -1.8632    1.2803 H         1 <0>         0.1358
     42 H12         1.4876   -3.4186    2.4564 H         1 <0>         0.1419
     43 H13        -0.2334   -2.5732    3.9869 H         1 <0>         0.1384
     44 H14         2.5311    1.9750    5.2260 H         1 <0>         0.1552
     45 H15         2.4616    5.4243    2.6731 H         1 <0>         0.1598
     46 H16         4.2961    7.0095    6.8838 H         1 <0>         0.0851
     47 H17         4.3279    5.5772    7.9401 H         1 <0>         0.1097
     48 H18         5.8148    7.2875    8.8658 H         1 <0>         0.1566
     49 H19         6.7945    5.9295    8.2624 H         1 <0>         0.1467
     50 H20         6.5703    9.4791    6.0597 H         1 <0>         0.1322
     51 H21         5.0854    8.5497    6.3753 H         1 <0>         0.1222
     52 H22         6.7760   10.0446    8.4280 H         1 <0>         0.0855
     53 H23         5.1406   10.4781    7.8749 H         1 <0>         0.1082
     54 H24         5.3932    8.9994    8.8329 H         1 <0>         0.0802
     55 H25         8.0090    8.7572    8.4556 H         1 <0>         0.1366
     56 H26         8.6530    7.1510    8.0390 H         1 <0>         0.1317
     57 H27        10.0246    8.8607    6.9545 H         1 <0>         0.1088
     58 H28         9.0959    7.9908    5.7099 H         1 <0>         0.0802
     59 H29         8.5791    9.6109    6.2359 H         1 <0>         0.0800
     60 N1          6.8605    7.6515    7.0557 N.4       1 <0>        -0.3989
     61 H30         7.0320    7.1595    6.1709 H         1 <0>         0.4328
@<TRIPOS>BOND
     1    1    2 1
     2    1   31 1
     3    1   32 1
     4    1   33 1
     5    2    3 1
     6    2   34 1
     7    2   35 1
     8    3    4 1
     9    3   36 1
    10    3   37 1
    11    4    5 1
    12    4   38 1
    13    4   39 1
    14    5   13 1
    15    5    6 2
    16    6    7 1
    17    6   14 1
    18    7   12 ar
    19    7    8 ar
    20    8    9 ar
    21    8   40 1
    22    9   10 ar
    23    9   41 1
    24   10   11 ar
    25   10   42 1
    26   11   12 ar
    27   11   43 1
    28   12   13 1
    29   14   15 2
    30   14   16 1
    31   16   21 ar
    32   16   17 ar
    33   17   18 ar
    34   17   44 1
    35   18   19 ar
    36   18   30 1
    37   19   20 ar
    38   19   23 1
    39   20   21 ar
    40   20   22 1
    41   21   45 1
    42   23   24 1
    43   24   25 1
    44   24   46 1
    45   24   47 1
    46   25   48 1
    47   25   49 1
    48   25   60 1
    49   26   27 1
    50   26   50 1
    51   26   51 1
    52   26   60 1
    53   27   52 1
    54   27   53 1
    55   27   54 1
    56   28   29 1
    57   28   55 1
    58   28   56 1
    59   28   60 1
    60   29   57 1
    61   29   58 1
    62   29   59 1
    63   60   61 1
