@<TRIPOS>MOLECULE
ZINC01554888
   43    46     0     0     0
SMALL
USER_CHARGES
2-benzylsulfanyl-4,5-diphenyl-1H-imidazole
@<TRIPOS>ATOM
      1 C1         -0.0167    1.3781    0.0096 C.ar      1 <0>        -0.1104
      2 C2          1.1709    2.0855    0.0021 C.ar      1 <0>        -0.1199
      3 C3          2.3773    1.4107   -0.0141 C.ar      1 <0>        -0.0988
      4 C4          2.3960    0.0285   -0.0217 C.ar      1 <0>        -0.0857
      5 C5          1.2084   -0.6789   -0.0136 C.ar      1 <0>        -0.0988
      6 C6          0.0021   -0.0041    0.0020 C.ar      1 <0>        -0.1199
      7 C7          3.7112   -0.7071   -0.0392 C.3       1 <0>        -0.0513
      8 S1          4.2203   -0.9919   -1.7526 S.3       1 <0>        -0.0124
      9 C8          5.7400   -1.8420   -1.4830 C.2       1 <0>         0.2004
     10 N1          6.5660   -2.3103   -2.4594 N.pl3     1 <0>        -0.5473
     11 H1          6.4206   -2.2363   -3.4460 H         1 <0>         0.4319
     12 C9          7.6433   -2.9072   -1.8310 C.2       1 <0>         0.0418
     13 C10         7.4194   -2.7823   -0.4739 C.2       1 <0>         0.0731
     14 N2          6.2523   -2.1291   -0.3097 N.2       1 <0>        -0.4706
     15 C11         8.3036   -3.2767    0.6066 C.ar      1 <0>        -0.0068
     16 C12         9.0087   -4.4692    0.4440 C.ar      1 <0>        -0.0995
     17 C13         9.8349   -4.9218    1.4521 C.ar      1 <0>        -0.1195
     18 C14         9.9562   -4.2011    2.6269 C.ar      1 <0>        -0.1159
     19 C15         9.2554   -3.0203    2.7962 C.ar      1 <0>        -0.1215
     20 C16         8.4301   -2.5546    1.7933 C.ar      1 <0>        -0.0921
     21 C17         8.7989   -3.5547   -2.4809 C.ar      1 <0>        -0.0226
     22 C18        10.0949   -3.2973   -2.0265 C.ar      1 <0>        -0.0857
     23 C19        11.1698   -3.9110   -2.6349 C.ar      1 <0>        -0.1149
     24 C20        10.9681   -4.7705   -3.7006 C.ar      1 <0>        -0.1106
     25 C21         9.6878   -5.0253   -4.1599 C.ar      1 <0>        -0.1167
     26 C22         8.6029   -4.4237   -3.5573 C.ar      1 <0>        -0.1098
     27 H2         -0.9592    1.9054    0.0170 H         1 <0>         0.1247
     28 H3          1.1563    3.1654    0.0081 H         1 <0>         0.1260
     29 H4          3.3051    1.9634   -0.0207 H         1 <0>         0.1260
     30 H5          1.2231   -1.7587   -0.0199 H         1 <0>         0.1259
     31 H6         -0.9258   -0.5567    0.0079 H         1 <0>         0.1260
     32 H7          4.4679   -0.1107    0.4703 H         1 <0>         0.1056
     33 H8          3.5990   -1.6641    0.4703 H         1 <0>         0.1058
     34 H9          8.9113   -5.0349   -0.4708 H         1 <0>         0.1220
     35 H10        10.3845   -5.8428    1.3258 H         1 <0>         0.1236
     36 H11        10.6009   -4.5615    3.4148 H         1 <0>         0.1223
     37 H12         9.3542   -2.4621    3.7155 H         1 <0>         0.1239
     38 H13         7.8836   -1.6327    1.9267 H         1 <0>         0.1247
     39 H14        10.2541   -2.6233   -1.1979 H         1 <0>         0.1266
     40 H15        12.1718   -3.7165   -2.2819 H         1 <0>         0.1282
     41 H16        11.8139   -5.2450   -4.1758 H         1 <0>         0.1257
     42 H17         9.5378   -5.6972   -4.9921 H         1 <0>         0.1265
     43 H18         7.6042   -4.6240   -3.9164 H         1 <0>         0.1201
@<TRIPOS>BOND
     1    1    6 ar
     2    1    2 ar
     3    1   27 1
     4    2    3 ar
     5    2   28 1
     6    3    4 ar
     7    3   29 1
     8    4    5 ar
     9    4    7 1
    10    5    6 ar
    11    5   30 1
    12    6   31 1
    13    7    8 1
    14    7   32 1
    15    7   33 1
    16    8    9 1
    17    9   14 2
    18    9   10 1
    19   10   11 1
    20   10   12 1
    21   12   13 2
    22   12   21 1
    23   13   14 1
    24   13   15 1
    25   15   20 ar
    26   15   16 ar
    27   16   17 ar
    28   16   34 1
    29   17   18 ar
    30   17   35 1
    31   18   19 ar
    32   18   36 1
    33   19   20 ar
    34   19   37 1
    35   20   38 1
    36   21   26 ar
    37   21   22 ar
    38   22   23 ar
    39   22   39 1
    40   23   24 ar
    41   23   40 1
    42   24   25 ar
    43   24   41 1
    44   25   26 ar
    45   25   42 1
    46   26   43 1
@<TRIPOS>MOLECULE
ZINC01554888
   44    47     0     0     0
SMALL
USER_CHARGES
2-benzylsulfanyl-4,5-diphenyl-1H-imidazole
@<TRIPOS>ATOM
      1 C1         -0.0167    1.3781    0.0096 C.ar      1 <0>        -0.0901
      2 C2          1.1709    2.0855    0.0021 C.ar      1 <0>        -0.1160
      3 C3          2.3773    1.4107   -0.0141 C.ar      1 <0>        -0.0919
      4 C4          2.3960    0.0285   -0.0217 C.ar      1 <0>        -0.1085
      5 C5          1.2084   -0.6789   -0.0136 C.ar      1 <0>        -0.0918
      6 C6          0.0021   -0.0041    0.0020 C.ar      1 <0>        -0.1159
      7 C7          3.7112   -0.7071   -0.0392 C.3       1 <0>        -0.0965
      8 S1          4.2203   -0.9919   -1.7526 S.3       1 <0>         0.0978
      9 C8          5.7400   -1.8420   -1.4830 C.cat     1 <0>         0.2732
     10 N1          6.5660   -2.3103   -2.4594 N.pl3     1 <0>        -0.4991
     11 H1          6.4206   -2.2363   -3.4460 H         1 <0>         0.4732
     12 C9          7.6433   -2.9072   -1.8310 C.2       1 <0>         0.1322
     13 C10         7.4194   -2.7823   -0.4739 C.2       1 <0>         0.1039
     14 C11         8.3036   -3.2767    0.6066 C.ar      1 <0>        -0.0656
     15 C12         9.0087   -4.4692    0.4440 C.ar      1 <0>        -0.0753
     16 C13         9.8349   -4.9218    1.4521 C.ar      1 <0>        -0.1100
     17 C14         9.9562   -4.2011    2.6269 C.ar      1 <0>        -0.0843
     18 C15         9.2554   -3.0203    2.7962 C.ar      1 <0>        -0.1111
     19 C16         8.4301   -2.5546    1.7933 C.ar      1 <0>        -0.0982
     20 C17         8.7989   -3.5547   -2.4809 C.ar      1 <0>        -0.0725
     21 C18        10.0949   -3.2973   -2.0265 C.ar      1 <0>        -0.0713
     22 C19        11.1698   -3.9110   -2.6349 C.ar      1 <0>        -0.1128
     23 C20        10.9681   -4.7705   -3.7006 C.ar      1 <0>        -0.0813
     24 C21         9.6878   -5.0253   -4.1599 C.ar      1 <0>        -0.1135
     25 C22         8.6029   -4.4237   -3.5573 C.ar      1 <0>        -0.0900
     26 H2         -0.9592    1.9054    0.0170 H         1 <0>         0.1336
     27 H3          1.1563    3.1654    0.0081 H         1 <0>         0.1340
     28 H4          3.3051    1.9634   -0.0207 H         1 <0>         0.1291
     29 H5          1.2231   -1.7587   -0.0199 H         1 <0>         0.1291
     30 H6         -0.9258   -0.5567    0.0079 H         1 <0>         0.1340
     31 H7          4.4679   -0.1107    0.4703 H         1 <0>         0.1156
     32 H8          3.5990   -1.6641    0.4703 H         1 <0>         0.1159
     33 H9          8.9113   -5.0349   -0.4708 H         1 <0>         0.1334
     34 H10        10.3845   -5.8428    1.3258 H         1 <0>         0.1383
     35 H11        10.6009   -4.5615    3.4148 H         1 <0>         0.1369
     36 H12         9.3542   -2.4621    3.7155 H         1 <0>         0.1373
     37 H13         7.8836   -1.6327    1.9267 H         1 <0>         0.1231
     38 H14        10.2541   -2.6233   -1.1979 H         1 <0>         0.1320
     39 H15        12.1718   -3.7165   -2.2819 H         1 <0>         0.1386
     40 H16        11.8139   -5.2450   -4.1758 H         1 <0>         0.1370
     41 H17         9.5378   -5.6972   -4.9921 H         1 <0>         0.1379
     42 H18         7.6042   -4.6240   -3.9164 H         1 <0>         0.1274
     43 N2          6.2520   -2.1289   -0.3090 N.pl3     1 <0>        -0.4900
     44 H19         5.8284   -1.8921    0.5958 H         1 <0>         0.4722
@<TRIPOS>BOND
     1    1    6 ar
     2    1    2 ar
     3    1   26 1
     4    2    3 ar
     5    2   27 1
     6    3    4 ar
     7    3   28 1
     8    4    5 ar
     9    4    7 1
    10    5    6 ar
    11    5   29 1
    12    6   30 1
    13    7    8 1
    14    7   31 1
    15    7   32 1
    16    8    9 1
    17    9   10 1
    18    9   43 2
    19   10   11 1
    20   10   12 1
    21   12   13 2
    22   12   20 1
    23   13   14 1
    24   13   43 1
    25   14   19 ar
    26   14   15 ar
    27   15   16 ar
    28   15   33 1
    29   16   17 ar
    30   16   34 1
    31   17   18 ar
    32   17   35 1
    33   18   19 ar
    34   18   36 1
    35   19   37 1
    36   20   25 ar
    37   20   21 ar
    38   21   22 ar
    39   21   38 1
    40   22   23 ar
    41   22   39 1
    42   23   24 ar
    43   23   40 1
    44   24   25 ar
    45   24   41 1
    46   25   42 1
    47   43   44 1
@<TRIPOS>MOLECULE
ZINC01510083
   36    38     0     0     0
SMALL
USER_CHARGES
2-ethylsulfanyl-4,5-diphenyl-1H-imidazole
@<TRIPOS>ATOM
      1 C1          0.8068   -6.2052   -0.7740 C.3       1 <0>        -0.1426
      2 C2          0.3286   -4.8329   -0.2956 C.3       1 <0>        -0.0962
      3 S1          1.2086   -3.5373   -1.2029 S.3       1 <0>        -0.0265
      4 C3          0.4838   -2.1066   -0.4733 C.2       1 <0>         0.2040
      5 N1          0.7839   -0.8180   -0.7967 N.pl3     1 <0>        -0.5477
      6 H1          1.4457   -0.5170   -1.4832 H         1 <0>         0.4320
      7 C4          0.0021   -0.0041    0.0020 C.2       1 <0>         0.0416
      8 C5         -0.7607   -0.8467    0.7864 C.2       1 <0>         0.0724
      9 N2         -0.4347   -2.1137    0.4636 N.2       1 <0>        -0.4706
     10 C6         -1.7579   -0.4323    1.8003 C.ar      1 <0>        -0.0066
     11 C7         -1.5425    0.7128    2.5671 C.ar      1 <0>        -0.0997
     12 C8         -2.4774    1.0963    3.5066 C.ar      1 <0>        -0.1194
     13 C9         -3.6212    0.3416    3.6965 C.ar      1 <0>        -0.1161
     14 C10        -3.8382   -0.7979    2.9424 C.ar      1 <0>        -0.1214
     15 C11        -2.9133   -1.1888    1.9961 C.ar      1 <0>        -0.0924
     16 C12        -0.0179    1.4713    0.0101 C.ar      1 <0>        -0.0228
     17 C13        -1.2354    2.1567    0.0196 C.ar      1 <0>        -0.0857
     18 C14        -1.2464    3.5358    0.0340 C.ar      1 <0>        -0.1150
     19 C15        -0.0555    4.2406    0.0259 C.ar      1 <0>        -0.1106
     20 C16         1.1541    3.5685    0.0103 C.ar      1 <0>        -0.1168
     21 C17         1.1805    2.1896    0.0025 C.ar      1 <0>        -0.1095
     22 H2          0.2768   -6.9854   -0.2276 H         1 <0>         0.0804
     23 H3          0.6064   -6.3084   -1.8404 H         1 <0>         0.0661
     24 H4          1.8778   -6.2996   -0.5947 H         1 <0>         0.0661
     25 H5          0.5289   -4.7297    0.7709 H         1 <0>         0.0965
     26 H6         -0.7425   -4.7385   -0.4748 H         1 <0>         0.0962
     27 H7         -0.6478    1.3003    2.4228 H         1 <0>         0.1221
     28 H8         -2.3137    1.9850    4.0981 H         1 <0>         0.1237
     29 H9         -4.3479    0.6433    4.4363 H         1 <0>         0.1224
     30 H10        -4.7332   -1.3827    3.0950 H         1 <0>         0.1240
     31 H11        -3.0837   -2.0785    1.4080 H         1 <0>         0.1246
     32 H12        -2.1656    1.6079    0.0210 H         1 <0>         0.1266
     33 H13        -2.1867    4.0670    0.0465 H         1 <0>         0.1283
     34 H14        -0.0701    5.3205    0.0322 H         1 <0>         0.1258
     35 H15         2.0796    4.1250    0.0044 H         1 <0>         0.1266
     36 H16         2.1252    1.6663   -0.0090 H         1 <0>         0.1202
@<TRIPOS>BOND
     1    1    2 1
     2    1   22 1
     3    1   23 1
     4    1   24 1
     5    2    3 1
     6    2   25 1
     7    2   26 1
     8    3    4 1
     9    4    9 2
    10    4    5 1
    11    5    6 1
    12    5    7 1
    13    7    8 2
    14    7   16 1
    15    8    9 1
    16    8   10 1
    17   10   15 ar
    18   10   11 ar
    19   11   12 ar
    20   11   27 1
    21   12   13 ar
    22   12   28 1
    23   13   14 ar
    24   13   29 1
    25   14   15 ar
    26   14   30 1
    27   15   31 1
    28   16   21 ar
    29   16   17 ar
    30   17   18 ar
    31   17   32 1
    32   18   19 ar
    33   18   33 1
    34   19   20 ar
    35   19   34 1
    36   20   21 ar
    37   20   35 1
    38   21   36 1
