@<TRIPOS>MOLECULE
ZINC03807172
   71    73     0     0     0
SMALL
USER_CHARGES

@<TRIPOS>ATOM
      1 C1          0.9385   -1.7701    0.1611 C.3       1 <0>        -0.1485
      2 C2          0.2089   -2.6475    1.1803 C.3       1 <0>        -0.0921
      3 H1          0.2893   -3.6931    0.8828 H         1 <0>         0.0674
      4 C3         -1.2666   -2.2452    1.2359 C.3       1 <0>        -0.1301
      5 C4         -1.3743   -0.7664    1.6209 C.3       1 <0>         0.1066
      6 N1         -0.6421   -0.5499    2.8762 N.am      1 <0>        -0.5960
      7 C5          0.7591   -0.9839    2.9606 C.3       1 <0>         0.0788
      8 H2          1.3682   -0.3864    2.2822 H         1 <0>         0.0615
      9 C6          0.8427   -2.4601    2.5606 C.3       1 <0>        -0.1124
     10 C7          1.2574   -0.8109    4.3722 C.2       1 <0>         0.5048
     11 O1          0.6399   -1.3029    5.3013 O.co2     1 <0>        -0.6486
     12 O2          2.2780   -0.1789    4.5852 O.co2     1 <0>        -0.7077
     13 C8         -1.2442    0.0360    3.9301 C.2       1 <0>         0.4662
     14 O3         -0.6565    0.1347    4.9864 O.2       1 <0>        -0.4237
     15 C9         -2.6475    0.5685    3.7959 C.3       1 <0>         0.1413
     16 H3         -3.2576   -0.1492    3.2475 H         1 <0>         0.0995
     17 C10        -2.6185    1.8974    3.0381 C.3       1 <0>        -0.1163
     18 C11        -4.0510    2.3655    2.7744 C.3       1 <0>        -0.1370
     19 C12        -4.0220    3.6943    2.0166 C.3       1 <0>         0.0907
     20 N2         -5.3937    4.1426    1.7641 N.pl3     1 <0>        -0.6904
     21 C13        -5.6181    5.3150    1.0961 C.cat     1 <0>         0.7396
     22 N3         -6.8652    5.7225    0.8666 N.pl3     1 <0>        -0.7983
     23 N4         -4.5894    6.0490    0.6752 N.pl3     1 <0>        -0.7927
     24 N5         -3.2196    0.7785    5.1281 N.pl3     1 <0>        -1.0973
     25 S1         -4.1335   -0.4088    5.8333 S.o2      1 <0>         2.6831
     26 O4         -3.3907   -1.6148    5.7192 O.2       1 <0>        -0.9257
     27 O5         -4.5676    0.1029    7.0859 O.2       1 <0>        -0.9569
     28 C14        -5.5776   -0.6113    4.8443 C.ar      1 <0>        -0.7427
     29 C15        -5.7736   -1.7832    4.1411 C.ar      1 <0>         0.0208
     30 C16        -6.9075   -1.9406    3.3657 C.ar      1 <0>        -0.1843
     31 C17        -7.8454   -0.9286    3.2939 C.ar      1 <0>        -0.0247
     32 C18        -7.6570    0.2497    3.9962 C.ar      1 <0>        -0.1780
     33 C19        -6.5220    0.4068    4.7769 C.ar      1 <0>         0.3092
     34 N6         -6.3034    1.5875    5.4951 N.pl3     1 <0>        -0.7471
     35 C20        -7.4164    2.5312    5.6665 C.3       1 <0>         0.1214
     36 C21        -8.1197    2.6779    4.3108 C.3       1 <0>        -0.1017
     37 H4         -7.3994    3.0000    3.5587 H         1 <0>         0.0599
     38 C22        -8.7012    1.3305    3.8995 C.3       1 <0>        -0.0677
     39 C23        -9.2402    3.7136    4.4240 C.3       1 <0>        -0.1512
     40 H5          1.9893   -2.0568    0.1210 H         1 <0>         0.0548
     41 H6          0.4876   -1.9039   -0.8222 H         1 <0>         0.0474
     42 H7          0.8582   -0.7245    0.4584 H         1 <0>         0.0583
     43 H8         -1.7232   -2.4009    0.2585 H         1 <0>         0.0662
     44 H9         -1.7817   -2.8532    1.9796 H         1 <0>         0.0686
     45 H10        -0.9392   -0.1511    0.8333 H         1 <0>         0.0624
     46 H11        -2.4223   -0.5000    1.7585 H         1 <0>         0.0666
     47 H12         0.3077   -3.0660    3.2919 H         1 <0>         0.0708
     48 H13         1.8875   -2.7687    2.5262 H         1 <0>         0.0656
     49 H14        -2.0961    2.6448    3.6352 H         1 <0>         0.0895
     50 H15        -2.0996    1.7631    2.0889 H         1 <0>         0.0927
     51 H16        -4.5734    1.6181    2.1773 H         1 <0>         0.0854
     52 H17        -4.5699    2.4998    3.7235 H         1 <0>         0.0850
     53 H18        -3.4996    4.4418    2.6137 H         1 <0>         0.0965
     54 H19        -3.5031    3.5601    1.0675 H         1 <0>         0.0969
     55 H20        -6.1428    3.6080    2.0707 H         1 <0>         0.4327
     56 H21        -7.6143    5.1880    1.1731 H         1 <0>         0.4391
     57 H22        -3.6812    5.7522    0.8423 H         1 <0>         0.4415
     58 H23        -4.7485    6.8804    0.2015 H         1 <0>         0.4392
     59 H24        -3.0631    1.6130    5.5971 H         1 <0>         0.4177
     60 H25        -5.0420   -2.5758    4.1964 H         1 <0>         0.1452
     61 H26        -7.0602   -2.8567    2.8144 H         1 <0>         0.1315
     62 H27        -8.7294   -1.0570    2.6870 H         1 <0>         0.1275
     63 H28        -5.4314    1.7798    5.8740 H         1 <0>         0.4020
     64 H29        -8.1176    2.1446    6.4061 H         1 <0>         0.0714
     65 H30        -7.0334    3.4989    5.9903 H         1 <0>         0.0864
     66 H31        -9.0704    1.3842    2.8753 H         1 <0>         0.0771
     67 H32        -9.5300    1.0914    4.5659 H         1 <0>         0.0773
     68 H33        -8.8185    4.6743    4.7194 H         1 <0>         0.0590
     69 H34        -9.7386    3.8165    3.4601 H         1 <0>         0.0600
     70 H35        -9.9618    3.3877    5.1732 H         1 <0>         0.0664
     71 H36        -7.0243    6.5539    0.3929 H         1 <0>         0.4396
@<TRIPOS>BOND
     1    1    2 1
     2    1   40 1
     3    1   41 1
     4    1   42 1
     5    2    3 1
     6    2    9 1
     7    2    4 1
     8    4    5 1
     9    4   43 1
    10    4   44 1
    11    5    6 1
    12    5   45 1
    13    5   46 1
    14    6    7 1
    15    6   13 am
    16    7    8 1
    17    7    9 1
    18    7   10 1
    19    9   47 1
    20    9   48 1
    21   10   11 2
    22   10   12 1
    23   13   14 2
    24   13   15 1
    25   15   16 1
    26   15   17 1
    27   15   24 1
    28   17   18 1
    29   17   49 1
    30   17   50 1
    31   18   19 1
    32   18   51 1
    33   18   52 1
    34   19   20 1
    35   19   53 1
    36   19   54 1
    37   20   21 1
    38   20   55 1
    39   21   22 2
    40   21   23 1
    41   22   56 1
    42   22   71 1
    43   23   57 1
    44   23   58 1
    45   24   25 1
    46   24   59 1
    47   25   26 2
    48   25   27 2
    49   25   28 1
    50   28   33 ar
    51   28   29 ar
    52   29   30 ar
    53   29   60 1
    54   30   31 ar
    55   30   61 1
    56   31   32 ar
    57   31   62 1
    58   32   38 1
    59   32   33 ar
    60   33   34 1
    61   34   35 1
    62   34   63 1
    63   35   36 1
    64   35   64 1
    65   35   65 1
    66   36   37 1
    67   36   38 1
    68   36   39 1
    69   38   66 1
    70   38   67 1
    71   39   68 1
    72   39   69 1
    73   39   70 1
@<TRIPOS>MOLECULE
ZINC03917722
   71    73     0     0     0
SMALL
USER_CHARGES

@<TRIPOS>ATOM
      1 C1          1.0040   -1.4893    0.2091 C.3       1 <0>        -0.1484
      2 C2          0.2597   -2.4151    1.1733 C.3       1 <0>        -0.0921
      3 H1          0.3366   -3.4438    0.8212 H         1 <0>         0.0674
      4 C3         -1.2139   -2.0068    1.2369 C.3       1 <0>        -0.1301
      5 C4         -1.3165   -0.5499    1.6992 C.3       1 <0>         0.1068
      6 N1         -0.5949   -0.4055    2.9709 N.am      1 <0>        -0.5960
      7 C5          0.8028   -0.8523    3.0448 C.3       1 <0>         0.0787
      8 H2          1.4218   -0.2235    2.4049 H         1 <0>         0.0615
      9 C6          0.8814   -2.3056    2.5674 C.3       1 <0>        -0.1124
     10 C7          1.2888   -0.7580    4.4682 C.2       1 <0>         0.5051
     11 O1          0.6607   -1.2965    5.3637 O.co2     1 <0>        -0.6489
     12 O2          2.3101   -0.1432    4.7242 O.co2     1 <0>        -0.7077
     13 C8         -1.2034    0.1273    4.0491 C.2       1 <0>         0.4664
     14 O3         -0.6265    0.1624    5.1153 O.2       1 <0>        -0.4246
     15 C9         -2.6005    0.6793    3.9297 C.3       1 <0>         0.1423
     16 H3         -3.2080    0.0036    3.3276 H         1 <0>         0.0992
     17 C10        -2.5503    2.0539    3.2596 C.3       1 <0>        -0.1151
     18 C11        -3.9751    2.5469    2.9995 C.3       1 <0>        -0.1388
     19 C12        -3.9249    3.9214    2.3294 C.3       1 <0>         0.0907
     20 N2         -5.2892    4.3935    2.0804 N.pl3     1 <0>        -0.6907
     21 C13        -5.4948    5.6077    1.4851 C.cat     1 <0>         0.7398
     22 N3         -6.7352    6.0369    1.2587 N.pl3     1 <0>        -0.7984
     23 N4         -4.4546    6.3608    1.1317 N.pl3     1 <0>        -0.7926
     24 N5         -3.1904    0.8080    5.2645 N.pl3     1 <0>        -1.0930
     25 S1         -4.1318   -0.4101    5.8747 S.o2      1 <0>         2.6870
     26 O4         -3.4145   -1.6195    5.6691 O.2       1 <0>        -0.9265
     27 O5         -4.5588    0.0128    7.1623 O.2       1 <0>        -0.9623
     28 C14        -5.5767   -0.5047    4.8708 C.ar      1 <0>        -0.7431
     29 C15        -5.8178   -1.6334    4.1130 C.ar      1 <0>         0.0215
     30 C16        -6.9520   -1.7058    3.3256 C.ar      1 <0>        -0.1843
     31 C17        -7.8434   -0.6506    3.2934 C.ar      1 <0>        -0.0243
     32 C18        -7.6087    0.4855    4.0491 C.ar      1 <0>        -0.1799
     33 C19        -6.4764    0.5550    4.8464 C.ar      1 <0>         0.3101
     34 N6         -6.2208    1.6841    5.6323 N.pl3     1 <0>        -0.7523
     35 C20        -6.9948    2.9090    5.3890 C.3       1 <0>         0.1292
     36 C21        -8.4673    2.5090    5.2284 C.3       1 <0>        -0.1179
     37 H4         -8.7966    1.9652    6.1138 H         1 <0>         0.0877
     38 C22        -8.5977    1.6194    3.9865 C.3       1 <0>        -0.0603
     39 C23        -9.3230    3.7648    5.0505 C.3       1 <0>        -0.1432
     40 H5          2.0534   -1.7802    0.1633 H         1 <0>         0.0547
     41 H6          0.5616   -1.5675   -0.7840 H         1 <0>         0.0474
     42 H7          0.9272   -0.4605    0.5610 H         1 <0>         0.0583
     43 H8         -1.6622   -2.1072    0.2484 H         1 <0>         0.0661
     44 H9         -1.7396   -2.6503    1.9424 H         1 <0>         0.0688
     45 H10        -0.8703    0.1036    0.9496 H         1 <0>         0.0623
     46 H11        -2.3641   -0.2846    1.8414 H         1 <0>         0.0666
     47 H12         0.3360   -2.9462    3.2604 H         1 <0>         0.0708
     48 H13         1.9247   -2.6187    2.5261 H         1 <0>         0.0655
     49 H14        -2.0357    2.7582    3.9133 H         1 <0>         0.0889
     50 H15        -2.0139    1.9776    2.3137 H         1 <0>         0.0918
     51 H16        -4.4896    1.8426    2.3458 H         1 <0>         0.0846
     52 H17        -4.5115    2.6231    3.9454 H         1 <0>         0.0884
     53 H18        -3.4103    4.6257    2.9831 H         1 <0>         0.0965
     54 H19        -3.3885    3.8451    1.3836 H         1 <0>         0.0965
     55 H20        -6.0467    3.8450    2.3378 H         1 <0>         0.4331
     56 H21        -7.4928    5.4884    1.5160 H         1 <0>         0.4391
     57 H22        -3.5513    6.0483    1.2966 H         1 <0>         0.4415
     58 H23        -4.6004    7.2219    0.7096 H         1 <0>         0.4393
     59 H24        -3.0297    1.6068    5.7908 H         1 <0>         0.4185
     60 H25        -5.1212   -2.4584    4.1351 H         1 <0>         0.1452
     61 H26        -7.1414   -2.5893    2.7339 H         1 <0>         0.1315
     62 H27        -8.7272   -0.7122    2.6757 H         1 <0>         0.1273
     63 H28        -5.5438    1.6584    6.3265 H         1 <0>         0.4111
     64 H29        -6.8868    3.5880    6.2348 H         1 <0>         0.0877
     65 H30        -6.6425    3.3935    4.4784 H         1 <0>         0.0494
     66 H31        -8.4158    2.2069    3.0866 H         1 <0>         0.0659
     67 H32        -9.6088    1.2140    3.9501 H         1 <0>         0.0785
     68 H33        -8.9953    4.3050    4.1623 H         1 <0>         0.0488
     69 H34       -10.3687    3.4788    4.9366 H         1 <0>         0.0641
     70 H35        -9.2148    4.4053    5.9258 H         1 <0>         0.0616
     71 H36        -6.8810    6.8979    0.8365 H         1 <0>         0.4396
@<TRIPOS>BOND
     1    1    2 1
     2    1   40 1
     3    1   41 1
     4    1   42 1
     5    2    3 1
     6    2    9 1
     7    2    4 1
     8    4    5 1
     9    4   43 1
    10    4   44 1
    11    5    6 1
    12    5   45 1
    13    5   46 1
    14    6    7 1
    15    6   13 am
    16    7    8 1
    17    7    9 1
    18    7   10 1
    19    9   47 1
    20    9   48 1
    21   10   11 2
    22   10   12 1
    23   13   14 2
    24   13   15 1
    25   15   16 1
    26   15   17 1
    27   15   24 1
    28   17   18 1
    29   17   49 1
    30   17   50 1
    31   18   19 1
    32   18   51 1
    33   18   52 1
    34   19   20 1
    35   19   53 1
    36   19   54 1
    37   20   21 1
    38   20   55 1
    39   21   22 2
    40   21   23 1
    41   22   56 1
    42   22   71 1
    43   23   57 1
    44   23   58 1
    45   24   25 1
    46   24   59 1
    47   25   26 2
    48   25   27 2
    49   25   28 1
    50   28   33 ar
    51   28   29 ar
    52   29   30 ar
    53   29   60 1
    54   30   31 ar
    55   30   61 1
    56   31   32 ar
    57   31   62 1
    58   32   38 1
    59   32   33 ar
    60   33   34 1
    61   34   35 1
    62   34   63 1
    63   35   36 1
    64   35   64 1
    65   35   65 1
    66   36   37 1
    67   36   38 1
    68   36   39 1
    69   38   66 1
    70   38   67 1
    71   39   68 1
    72   39   69 1
    73   39   70 1
@<TRIPOS>MOLECULE
ZINC03807246
   69    72     0     0     0
SMALL
USER_CHARGES

@<TRIPOS>ATOM
      1 C1         -1.4468    1.0204    1.5598 C.ar      1 <0>        -0.0881
      2 C2         -0.3637    1.8925    1.4651 C.ar      1 <0>        -0.1181
      3 C3          0.8927    1.4262    1.2278 C.ar      1 <0>        -0.0900
      4 C4          1.1047    0.0452    1.0760 C.ar      1 <0>        -0.0797
      5 C5          2.3875   -0.4736    0.8307 C.ar      1 <0>         0.0262
      6 C6          2.5549   -1.8168    0.6895 C.ar      1 <0>        -0.6802
      7 C7          1.4718   -2.6889    0.7846 C.ar      1 <0>        -0.0526
      8 C8          0.2154   -2.2225    1.0214 C.ar      1 <0>        -0.1132
      9 C9          0.0034   -0.8415    1.1728 C.ar      1 <0>        -0.0113
     10 C10        -1.2794   -0.3227    1.4182 C.ar      1 <0>        -0.1213
     11 S1          4.1649   -2.4631    0.3814 S.o2      1 <0>         2.6992
     12 O1          3.9829   -3.7195   -0.2570 O.2       1 <0>        -0.9555
     13 O2          4.9188   -1.4119   -0.2067 O.2       1 <0>        -0.9466
     14 N1          4.8569   -2.7758    1.8530 N.pl3     1 <0>        -1.1073
     15 C11         4.2874   -3.8049    2.7264 C.3       1 <0>         0.1000
     16 C12         5.2796   -4.1529    3.8059 C.2       1 <0>         0.5210
     17 O3          6.3564   -3.5961    3.8422 O.2       1 <0>        -0.5181
     18 N2          4.9704   -5.0829    4.7311 N.am      1 <0>        -0.7101
     19 C13         5.9349   -5.4212    5.7806 C.3       1 <0>         0.1339
     20 H1          6.9457   -5.3661    5.3765 H         1 <0>         0.1200
     21 C14         5.6637   -6.8402    6.2843 C.3       1 <0>        -0.1006
     22 C15         5.9436   -7.8272    5.1805 C.ar      1 <0>        -0.0118
     23 C16         4.9340   -8.1867    4.3055 C.ar      1 <0>        -0.1089
     24 C17         5.1837   -9.0901    3.2931 C.ar      1 <0>        -0.0513
     25 C18         6.4577   -9.6411    3.1524 C.ar      1 <0>        -0.1581
     26 C19         7.4717   -9.2742    4.0377 C.ar      1 <0>        -0.0513
     27 C20         7.2105   -8.3658    5.0428 C.ar      1 <0>        -0.1097
     28 C21         6.7323  -10.6110    2.0691 C.cat     1 <0>         0.6003
     29 N3          7.9491  -11.1351    1.9374 N.pl3     1 <0>        -0.7617
     30 N4          5.7625  -10.9596    1.2261 N.pl3     1 <0>        -0.7609
     31 C22         5.7967   -4.4477    6.9226 C.2       1 <0>         0.5048
     32 O4          4.7594   -3.8388    7.0782 O.2       1 <0>        -0.5232
     33 N5          6.8258   -4.2538    7.7710 N.am      1 <0>        -0.6053
     34 C23         8.1249   -4.8969    7.5315 C.3       1 <0>         0.1030
     35 C24         9.2160   -3.8216    7.5376 C.3       1 <0>        -0.1381
     36 C25         9.1384   -3.0292    8.8446 C.3       1 <0>        -0.1219
     37 C26         7.7772   -2.3367    8.9433 C.3       1 <0>        -0.1374
     38 C27         6.6716   -3.3904    8.9498 C.3       1 <0>         0.1098
     39 H2         -2.4330    1.4161    1.7529 H         1 <0>         0.1312
     40 H3         -0.5239    2.9542    1.5813 H         1 <0>         0.1317
     41 H4          1.7223    2.1139    1.1562 H         1 <0>         0.1355
     42 H5          3.2360    0.1901    0.7541 H         1 <0>         0.1473
     43 H6          1.6320   -3.7506    0.6683 H         1 <0>         0.1377
     44 H7         -0.6144   -2.9101    1.0922 H         1 <0>         0.1372
     45 H8         -2.1280   -0.9865    1.4944 H         1 <0>         0.1341
     46 H9          5.6393   -2.2776    2.1368 H         1 <0>         0.4304
     47 H10         3.3716   -3.4286    3.1822 H         1 <0>         0.1037
     48 H11         4.0618   -4.6953    2.1395 H         1 <0>         0.1122
     49 H12         4.1091   -5.5283    4.7021 H         1 <0>         0.4077
     50 H13         6.3108   -7.0536    7.1352 H         1 <0>         0.1102
     51 H14         4.6211   -6.9239    6.5908 H         1 <0>         0.1049
     52 H15         3.9482   -7.7594    4.4155 H         1 <0>         0.1479
     53 H16         4.3946   -9.3705    2.6111 H         1 <0>         0.1406
     54 H17         8.4599   -9.6975    3.9342 H         1 <0>         0.1397
     55 H18         7.9956   -8.0779    5.7263 H         1 <0>         0.1495
     56 H19         8.6556  -10.8812    2.5516 H         1 <0>         0.4441
     57 H20         4.8760  -10.5777    1.3220 H         1 <0>         0.4444
     58 H21         5.9424  -11.5953    0.5159 H         1 <0>         0.4343
     59 H22         8.3237   -5.6236    8.3192 H         1 <0>         0.0758
     60 H23         8.1115   -5.3983    6.5638 H         1 <0>         0.0802
     61 H24        10.1943   -4.2954    7.4570 H         1 <0>         0.0789
     62 H25         9.0671   -3.1474    6.6941 H         1 <0>         0.0710
     63 H26         9.2627   -3.7078    9.6886 H         1 <0>         0.0666
     64 H27         9.9294   -2.2794    8.8623 H         1 <0>         0.0702
     65 H28         7.7314   -1.7538    9.8632 H         1 <0>         0.0799
     66 H29         7.6419   -1.6766    8.0866 H         1 <0>         0.0676
     67 H30         5.6996   -2.8981    8.9176 H         1 <0>         0.0938
     68 H31         6.7492   -3.9915    9.8557 H         1 <0>         0.0720
     69 H32         8.1291  -11.7709    1.2273 H         1 <0>         0.4342
@<TRIPOS>BOND
     1    1   10 ar
     2    1    2 ar
     3    1   39 1
     4    2    3 ar
     5    2   40 1
     6    3    4 ar
     7    3   41 1
     8    4    9 ar
     9    4    5 ar
    10    5    6 ar
    11    5   42 1
    12    6    7 ar
    13    6   11 1
    14    7    8 ar
    15    7   43 1
    16    8    9 ar
    17    8   44 1
    18    9   10 ar
    19   10   45 1
    20   11   12 2
    21   11   13 2
    22   11   14 1
    23   14   15 1
    24   14   46 1
    25   15   16 1
    26   15   47 1
    27   15   48 1
    28   16   17 2
    29   16   18 am
    30   18   19 1
    31   18   49 1
    32   19   20 1
    33   19   21 1
    34   19   31 1
    35   21   22 1
    36   21   50 1
    37   21   51 1
    38   22   27 ar
    39   22   23 ar
    40   23   24 ar
    41   23   52 1
    42   24   25 ar
    43   24   53 1
    44   25   26 ar
    45   25   28 1
    46   26   27 ar
    47   26   54 1
    48   27   55 1
    49   28   29 2
    50   28   30 1
    51   29   56 1
    52   29   69 1
    53   30   57 1
    54   30   58 1
    55   31   32 2
    56   31   33 am
    57   33   38 1
    58   33   34 1
    59   34   35 1
    60   34   59 1
    61   34   60 1
    62   35   36 1
    63   35   61 1
    64   35   62 1
    65   36   37 1
    66   36   63 1
    67   36   64 1
    68   37   38 1
    69   37   65 1
    70   37   66 1
    71   38   67 1
    72   38   68 1
