@<TRIPOS>MOLECULE
ZINC03807172
   71    73     0     0     0
SMALL
USER_CHARGES

@<TRIPOS>ATOM
      1 C1          0.9385   -1.7701    0.1611 C.3       1 <0>        -0.1485
      2 C2          0.2089   -2.6475    1.1803 C.3       1 <0>        -0.0921
      3 H1          0.2893   -3.6931    0.8828 H         1 <0>         0.0674
      4 C3         -1.2666   -2.2452    1.2359 C.3       1 <0>        -0.1301
      5 C4         -1.3743   -0.7664    1.6209 C.3       1 <0>         0.1066
      6 N1         -0.6421   -0.5499    2.8762 N.am      1 <0>        -0.5960
      7 C5          0.7591   -0.9839    2.9606 C.3       1 <0>         0.0788
      8 H2          1.3682   -0.3864    2.2822 H         1 <0>         0.0615
      9 C6          0.8427   -2.4601    2.5606 C.3       1 <0>        -0.1124
     10 C7          1.2574   -0.8109    4.3722 C.2       1 <0>         0.5048
     11 O1          0.6399   -1.3029    5.3013 O.co2     1 <0>        -0.6486
     12 O2          2.2780   -0.1789    4.5852 O.co2     1 <0>        -0.7077
     13 C8         -1.2442    0.0360    3.9301 C.2       1 <0>         0.4662
     14 O3         -0.6565    0.1347    4.9864 O.2       1 <0>        -0.4237
     15 C9         -2.6475    0.5685    3.7959 C.3       1 <0>         0.1413
     16 H3         -3.2576   -0.1492    3.2475 H         1 <0>         0.0995
     17 C10        -2.6185    1.8974    3.0381 C.3       1 <0>        -0.1163
     18 C11        -4.0510    2.3655    2.7744 C.3       1 <0>        -0.1370
     19 C12        -4.0220    3.6943    2.0166 C.3       1 <0>         0.0907
     20 N2         -5.3937    4.1426    1.7641 N.pl3     1 <0>        -0.6904
     21 C13        -5.6181    5.3150    1.0961 C.cat     1 <0>         0.7396
     22 N3         -6.8652    5.7225    0.8666 N.pl3     1 <0>        -0.7983
     23 N4         -4.5894    6.0490    0.6752 N.pl3     1 <0>        -0.7927
     24 N5         -3.2196    0.7785    5.1281 N.pl3     1 <0>        -1.0973
     25 S1         -4.1335   -0.4088    5.8333 S.o2      1 <0>         2.6831
     26 O4         -3.3907   -1.6148    5.7192 O.2       1 <0>        -0.9257
     27 O5         -4.5676    0.1029    7.0859 O.2       1 <0>        -0.9569
     28 C14        -5.5776   -0.6113    4.8443 C.ar      1 <0>        -0.7427
     29 C15        -5.7736   -1.7832    4.1411 C.ar      1 <0>         0.0208
     30 C16        -6.9075   -1.9406    3.3657 C.ar      1 <0>        -0.1843
     31 C17        -7.8454   -0.9286    3.2939 C.ar      1 <0>        -0.0247
     32 C18        -7.6570    0.2497    3.9962 C.ar      1 <0>        -0.1780
     33 C19        -6.5220    0.4068    4.7769 C.ar      1 <0>         0.3092
     34 N6         -6.3034    1.5875    5.4951 N.pl3     1 <0>        -0.7471
     35 C20        -7.4164    2.5312    5.6665 C.3       1 <0>         0.1214
     36 C21        -8.1197    2.6779    4.3108 C.3       1 <0>        -0.1017
     37 H4         -7.3994    3.0000    3.5587 H         1 <0>         0.0599
     38 C22        -8.7012    1.3305    3.8995 C.3       1 <0>        -0.0677
     39 C23        -9.2402    3.7136    4.4240 C.3       1 <0>        -0.1512
     40 H5          1.9893   -2.0568    0.1210 H         1 <0>         0.0548
     41 H6          0.4876   -1.9039   -0.8222 H         1 <0>         0.0474
     42 H7          0.8582   -0.7245    0.4584 H         1 <0>         0.0583
     43 H8         -1.7232   -2.4009    0.2585 H         1 <0>         0.0662
     44 H9         -1.7817   -2.8532    1.9796 H         1 <0>         0.0686
     45 H10        -0.9392   -0.1511    0.8333 H         1 <0>         0.0624
     46 H11        -2.4223   -0.5000    1.7585 H         1 <0>         0.0666
     47 H12         0.3077   -3.0660    3.2919 H         1 <0>         0.0708
     48 H13         1.8875   -2.7687    2.5262 H         1 <0>         0.0656
     49 H14        -2.0961    2.6448    3.6352 H         1 <0>         0.0895
     50 H15        -2.0996    1.7631    2.0889 H         1 <0>         0.0927
     51 H16        -4.5734    1.6181    2.1773 H         1 <0>         0.0854
     52 H17        -4.5699    2.4998    3.7235 H         1 <0>         0.0850
     53 H18        -3.4996    4.4418    2.6137 H         1 <0>         0.0965
     54 H19        -3.5031    3.5601    1.0675 H         1 <0>         0.0969
     55 H20        -6.1428    3.6080    2.0707 H         1 <0>         0.4327
     56 H21        -7.6143    5.1880    1.1731 H         1 <0>         0.4391
     57 H22        -3.6812    5.7522    0.8423 H         1 <0>         0.4415
     58 H23        -4.7485    6.8804    0.2015 H         1 <0>         0.4392
     59 H24        -3.0631    1.6130    5.5971 H         1 <0>         0.4177
     60 H25        -5.0420   -2.5758    4.1964 H         1 <0>         0.1452
     61 H26        -7.0602   -2.8567    2.8144 H         1 <0>         0.1315
     62 H27        -8.7294   -1.0570    2.6870 H         1 <0>         0.1275
     63 H28        -5.4314    1.7798    5.8740 H         1 <0>         0.4020
     64 H29        -8.1176    2.1446    6.4061 H         1 <0>         0.0714
     65 H30        -7.0334    3.4989    5.9903 H         1 <0>         0.0864
     66 H31        -9.0704    1.3842    2.8753 H         1 <0>         0.0771
     67 H32        -9.5300    1.0914    4.5659 H         1 <0>         0.0773
     68 H33        -8.8185    4.6743    4.7194 H         1 <0>         0.0590
     69 H34        -9.7386    3.8165    3.4601 H         1 <0>         0.0600
     70 H35        -9.9618    3.3877    5.1732 H         1 <0>         0.0664
     71 H36        -7.0243    6.5539    0.3929 H         1 <0>         0.4396
@<TRIPOS>BOND
     1    1    2 1
     2    1   40 1
     3    1   41 1
     4    1   42 1
     5    2    3 1
     6    2    9 1
     7    2    4 1
     8    4    5 1
     9    4   43 1
    10    4   44 1
    11    5    6 1
    12    5   45 1
    13    5   46 1
    14    6    7 1
    15    6   13 am
    16    7    8 1
    17    7    9 1
    18    7   10 1
    19    9   47 1
    20    9   48 1
    21   10   11 2
    22   10   12 1
    23   13   14 2
    24   13   15 1
    25   15   16 1
    26   15   17 1
    27   15   24 1
    28   17   18 1
    29   17   49 1
    30   17   50 1
    31   18   19 1
    32   18   51 1
    33   18   52 1
    34   19   20 1
    35   19   53 1
    36   19   54 1
    37   20   21 1
    38   20   55 1
    39   21   22 2
    40   21   23 1
    41   22   56 1
    42   22   71 1
    43   23   57 1
    44   23   58 1
    45   24   25 1
    46   24   59 1
    47   25   26 2
    48   25   27 2
    49   25   28 1
    50   28   33 ar
    51   28   29 ar
    52   29   30 ar
    53   29   60 1
    54   30   31 ar
    55   30   61 1
    56   31   32 ar
    57   31   62 1
    58   32   38 1
    59   32   33 ar
    60   33   34 1
    61   34   35 1
    62   34   63 1
    63   35   36 1
    64   35   64 1
    65   35   65 1
    66   36   37 1
    67   36   38 1
    68   36   39 1
    69   38   66 1
    70   38   67 1
    71   39   68 1
    72   39   69 1
    73   39   70 1
@<TRIPOS>MOLECULE
ZINC03917722
   71    73     0     0     0
SMALL
USER_CHARGES

@<TRIPOS>ATOM
      1 C1          1.0040   -1.4893    0.2091 C.3       1 <0>        -0.1484
      2 C2          0.2597   -2.4151    1.1733 C.3       1 <0>        -0.0921
      3 H1          0.3366   -3.4438    0.8212 H         1 <0>         0.0674
      4 C3         -1.2139   -2.0068    1.2369 C.3       1 <0>        -0.1301
      5 C4         -1.3165   -0.5499    1.6992 C.3       1 <0>         0.1068
      6 N1         -0.5949   -0.4055    2.9709 N.am      1 <0>        -0.5960
      7 C5          0.8028   -0.8523    3.0448 C.3       1 <0>         0.0787
      8 H2          1.4218   -0.2235    2.4049 H         1 <0>         0.0615
      9 C6          0.8814   -2.3056    2.5674 C.3       1 <0>        -0.1124
     10 C7          1.2888   -0.7580    4.4682 C.2       1 <0>         0.5051
     11 O1          0.6607   -1.2965    5.3637 O.co2     1 <0>        -0.6489
     12 O2          2.3101   -0.1432    4.7242 O.co2     1 <0>        -0.7077
     13 C8         -1.2034    0.1273    4.0491 C.2       1 <0>         0.4664
     14 O3         -0.6265    0.1624    5.1153 O.2       1 <0>        -0.4246
     15 C9         -2.6005    0.6793    3.9297 C.3       1 <0>         0.1423
     16 H3         -3.2080    0.0036    3.3276 H         1 <0>         0.0992
     17 C10        -2.5503    2.0539    3.2596 C.3       1 <0>        -0.1151
     18 C11        -3.9751    2.5469    2.9995 C.3       1 <0>        -0.1388
     19 C12        -3.9249    3.9214    2.3294 C.3       1 <0>         0.0907
     20 N2         -5.2892    4.3935    2.0804 N.pl3     1 <0>        -0.6907
     21 C13        -5.4948    5.6077    1.4851 C.cat     1 <0>         0.7398
     22 N3         -6.7352    6.0369    1.2587 N.pl3     1 <0>        -0.7984
     23 N4         -4.4546    6.3608    1.1317 N.pl3     1 <0>        -0.7926
     24 N5         -3.1904    0.8080    5.2645 N.pl3     1 <0>        -1.0930
     25 S1         -4.1318   -0.4101    5.8747 S.o2      1 <0>         2.6870
     26 O4         -3.4145   -1.6195    5.6691 O.2       1 <0>        -0.9265
     27 O5         -4.5588    0.0128    7.1623 O.2       1 <0>        -0.9623
     28 C14        -5.5767   -0.5047    4.8708 C.ar      1 <0>        -0.7431
     29 C15        -5.8178   -1.6334    4.1130 C.ar      1 <0>         0.0215
     30 C16        -6.9520   -1.7058    3.3256 C.ar      1 <0>        -0.1843
     31 C17        -7.8434   -0.6506    3.2934 C.ar      1 <0>        -0.0243
     32 C18        -7.6087    0.4855    4.0491 C.ar      1 <0>        -0.1799
     33 C19        -6.4764    0.5550    4.8464 C.ar      1 <0>         0.3101
     34 N6         -6.2208    1.6841    5.6323 N.pl3     1 <0>        -0.7523
     35 C20        -6.9948    2.9090    5.3890 C.3       1 <0>         0.1292
     36 C21        -8.4673    2.5090    5.2284 C.3       1 <0>        -0.1179
     37 H4         -8.7966    1.9652    6.1138 H         1 <0>         0.0877
     38 C22        -8.5977    1.6194    3.9865 C.3       1 <0>        -0.0603
     39 C23        -9.3230    3.7648    5.0505 C.3       1 <0>        -0.1432
     40 H5          2.0534   -1.7802    0.1633 H         1 <0>         0.0547
     41 H6          0.5616   -1.5675   -0.7840 H         1 <0>         0.0474
     42 H7          0.9272   -0.4605    0.5610 H         1 <0>         0.0583
     43 H8         -1.6622   -2.1072    0.2484 H         1 <0>         0.0661
     44 H9         -1.7396   -2.6503    1.9424 H         1 <0>         0.0688
     45 H10        -0.8703    0.1036    0.9496 H         1 <0>         0.0623
     46 H11        -2.3641   -0.2846    1.8414 H         1 <0>         0.0666
     47 H12         0.3360   -2.9462    3.2604 H         1 <0>         0.0708
     48 H13         1.9247   -2.6187    2.5261 H         1 <0>         0.0655
     49 H14        -2.0357    2.7582    3.9133 H         1 <0>         0.0889
     50 H15        -2.0139    1.9776    2.3137 H         1 <0>         0.0918
     51 H16        -4.4896    1.8426    2.3458 H         1 <0>         0.0846
     52 H17        -4.5115    2.6231    3.9454 H         1 <0>         0.0884
     53 H18        -3.4103    4.6257    2.9831 H         1 <0>         0.0965
     54 H19        -3.3885    3.8451    1.3836 H         1 <0>         0.0965
     55 H20        -6.0467    3.8450    2.3378 H         1 <0>         0.4331
     56 H21        -7.4928    5.4884    1.5160 H         1 <0>         0.4391
     57 H22        -3.5513    6.0483    1.2966 H         1 <0>         0.4415
     58 H23        -4.6004    7.2219    0.7096 H         1 <0>         0.4393
     59 H24        -3.0297    1.6068    5.7908 H         1 <0>         0.4185
     60 H25        -5.1212   -2.4584    4.1351 H         1 <0>         0.1452
     61 H26        -7.1414   -2.5893    2.7339 H         1 <0>         0.1315
     62 H27        -8.7272   -0.7122    2.6757 H         1 <0>         0.1273
     63 H28        -5.5438    1.6584    6.3265 H         1 <0>         0.4111
     64 H29        -6.8868    3.5880    6.2348 H         1 <0>         0.0877
     65 H30        -6.6425    3.3935    4.4784 H         1 <0>         0.0494
     66 H31        -8.4158    2.2069    3.0866 H         1 <0>         0.0659
     67 H32        -9.6088    1.2140    3.9501 H         1 <0>         0.0785
     68 H33        -8.9953    4.3050    4.1623 H         1 <0>         0.0488
     69 H34       -10.3687    3.4788    4.9366 H         1 <0>         0.0641
     70 H35        -9.2148    4.4053    5.9258 H         1 <0>         0.0616
     71 H36        -6.8810    6.8979    0.8365 H         1 <0>         0.4396
@<TRIPOS>BOND
     1    1    2 1
     2    1   40 1
     3    1   41 1
     4    1   42 1
     5    2    3 1
     6    2    9 1
     7    2    4 1
     8    4    5 1
     9    4   43 1
    10    4   44 1
    11    5    6 1
    12    5   45 1
    13    5   46 1
    14    6    7 1
    15    6   13 am
    16    7    8 1
    17    7    9 1
    18    7   10 1
    19    9   47 1
    20    9   48 1
    21   10   11 2
    22   10   12 1
    23   13   14 2
    24   13   15 1
    25   15   16 1
    26   15   17 1
    27   15   24 1
    28   17   18 1
    29   17   49 1
    30   17   50 1
    31   18   19 1
    32   18   51 1
    33   18   52 1
    34   19   20 1
    35   19   53 1
    36   19   54 1
    37   20   21 1
    38   20   55 1
    39   21   22 2
    40   21   23 1
    41   22   56 1
    42   22   71 1
    43   23   57 1
    44   23   58 1
    45   24   25 1
    46   24   59 1
    47   25   26 2
    48   25   27 2
    49   25   28 1
    50   28   33 ar
    51   28   29 ar
    52   29   30 ar
    53   29   60 1
    54   30   31 ar
    55   30   61 1
    56   31   32 ar
    57   31   62 1
    58   32   38 1
    59   32   33 ar
    60   33   34 1
    61   34   35 1
    62   34   63 1
    63   35   36 1
    64   35   64 1
    65   35   65 1
    66   36   37 1
    67   36   38 1
    68   36   39 1
    69   38   66 1
    70   38   67 1
    71   39   68 1
    72   39   69 1
    73   39   70 1
@<TRIPOS>MOLECULE
ZINC12466741
   71    73     0     0     0
SMALL
USER_CHARGES

@<TRIPOS>ATOM
      1 C1          1.0035   -1.4906    0.2091 C.3       1 <0>        -0.1485
      2 C2          0.2591   -2.4162    1.1735 C.3       1 <0>        -0.0921
      3 H1          0.3359   -3.4449    0.8215 H         1 <0>         0.0675
      4 C3         -1.2144   -2.0077    1.2370 C.3       1 <0>        -0.1302
      5 C4         -1.3168   -0.5508    1.6991 C.3       1 <0>         0.1067
      6 N1         -0.5952   -0.4062    2.9708 N.am      1 <0>        -0.5958
      7 C5          0.8024   -0.8532    3.0447 C.3       1 <0>         0.0787
      8 H2          1.4215   -0.2245    2.4047 H         1 <0>         0.0616
      9 C6          0.8809   -2.3065    2.5676 C.3       1 <0>        -0.1124
     10 C7          1.2884   -0.7587    4.4681 C.2       1 <0>         0.5050
     11 O1          0.6603   -1.2970    5.3637 O.co2     1 <0>        -0.6489
     12 O2          2.3098   -0.1440    4.7240 O.co2     1 <0>        -0.7076
     13 C8         -1.2037    0.1268    4.0488 C.2       1 <0>         0.4662
     14 O3         -0.6268    0.1621    5.1151 O.2       1 <0>        -0.4243
     15 C9         -2.6008    0.6790    3.9294 C.3       1 <0>         0.1422
     16 H3         -3.2083    0.0031    3.3275 H         1 <0>         0.0995
     17 C10        -2.5504    2.0533    3.2589 C.3       1 <0>        -0.1153
     18 C11        -3.9752    2.5464    2.9989 C.3       1 <0>        -0.1408
     19 C12        -3.9249    3.9208    2.3284 C.3       1 <0>         0.0803
     20 N2         -5.2891    4.3929    2.0794 N.pl3     1 <0>        -0.6538
     21 C13        -5.4850    5.5499    1.5118 C.cat     1 <0>         0.7366
     22 N3         -4.4112    6.3270    1.1469 N.pl3     1 <0>        -0.8111
     23 N4         -6.7653    5.9929    1.2781 N.pl3     1 <0>        -0.8178
     24 N5         -3.1906    0.8081    5.2641 N.pl3     1 <0>        -1.0932
     25 S1         -4.1320   -0.4099    5.8747 S.o2      1 <0>         2.6869
     26 O4         -3.4148   -1.6193    5.6695 O.2       1 <0>        -0.9261
     27 O5         -4.5590    0.0135    7.1622 O.2       1 <0>        -0.9619
     28 C14        -5.5769   -0.5047    4.8708 C.ar      1 <0>        -0.7430
     29 C15        -5.8179   -1.6336    4.1133 C.ar      1 <0>         0.0216
     30 C16        -6.9521   -1.7063    3.3259 C.ar      1 <0>        -0.1840
     31 C17        -7.8436   -0.6511    3.2935 C.ar      1 <0>        -0.0242
     32 C18        -7.6089    0.4852    4.0490 C.ar      1 <0>        -0.1802
     33 C19        -6.4767    0.5549    4.8462 C.ar      1 <0>         0.3094
     34 N6         -6.2211    1.6841    5.6319 N.pl3     1 <0>        -0.7526
     35 C20        -6.9952    2.9089    5.3884 C.3       1 <0>         0.1294
     36 C21        -8.4677    2.5089    5.2279 C.3       1 <0>        -0.1180
     37 H4         -8.7970    1.9652    6.1134 H         1 <0>         0.0881
     38 C22        -8.5980    1.6190    3.9862 C.3       1 <0>        -0.0606
     39 C23        -9.3235    3.7646    5.0497 C.3       1 <0>        -0.1435
     40 H5          2.0529   -1.7816    0.1634 H         1 <0>         0.0548
     41 H6          0.5611   -1.5689   -0.7840 H         1 <0>         0.0475
     42 H7          0.9268   -0.4618    0.5609 H         1 <0>         0.0583
     43 H8         -1.6627   -2.1082    0.2486 H         1 <0>         0.0662
     44 H9         -1.7402   -2.6510    1.9426 H         1 <0>         0.0688
     45 H10        -0.8706    0.1026    0.9494 H         1 <0>         0.0624
     46 H11        -2.3644   -0.2853    1.8412 H         1 <0>         0.0664
     47 H12         0.3354   -2.9470    3.2606 H         1 <0>         0.0708
     48 H13         1.9241   -2.6197    2.5263 H         1 <0>         0.0656
     49 H14        -2.0358    2.7577    3.9124 H         1 <0>         0.0899
     50 H15        -2.0141    1.9768    2.3131 H         1 <0>         0.0927
     51 H16        -4.4899    1.8420    2.3454 H         1 <0>         0.0863
     52 H17        -4.5115    2.6230    3.9447 H         1 <0>         0.0896
     53 H18        -3.4102    4.6252    2.9819 H         1 <0>         0.1047
     54 H19        -3.3885    3.8442    1.3826 H         1 <0>         0.1048
     55 H20        -3.5079    6.0144    1.3118 H         1 <0>         0.4392
     56 H21        -4.5570    7.1880    0.7245 H         1 <0>         0.4372
     57 H22        -7.5229    5.4446    1.5356 H         1 <0>         0.4365
     58 H23        -6.9110    6.8539    0.8557 H         1 <0>         0.4377
     59 H24        -3.0298    1.6069    5.7903 H         1 <0>         0.4186
     60 H25        -5.1213   -2.4586    4.1355 H         1 <0>         0.1454
     61 H26        -7.1415   -2.5898    2.7343 H         1 <0>         0.1317
     62 H27        -8.7274   -0.7129    2.6758 H         1 <0>         0.1276
     63 H28        -5.5442    1.6586    6.3262 H         1 <0>         0.4113
     64 H29        -6.8873    3.5881    6.2341 H         1 <0>         0.0883
     65 H30        -6.6429    3.3933    4.4777 H         1 <0>         0.0475
     66 H31        -8.4162    2.2063    3.0861 H         1 <0>         0.0656
     67 H32        -9.6091    1.2135    3.9498 H         1 <0>         0.0790
     68 H33        -8.9958    4.3046    4.1614 H         1 <0>         0.0489
     69 H34       -10.3691    3.4785    4.9359 H         1 <0>         0.0645
     70 H35        -9.2153    4.4052    5.9249 H         1 <0>         0.0619
     71 H36        -6.0467    3.8446    2.3369 H         1 <0>         0.4364
@<TRIPOS>BOND
     1    1    2 1
     2    1   40 1
     3    1   41 1
     4    1   42 1
     5    2    3 1
     6    2    9 1
     7    2    4 1
     8    4    5 1
     9    4   43 1
    10    4   44 1
    11    5    6 1
    12    5   45 1
    13    5   46 1
    14    6    7 1
    15    6   13 am
    16    7    8 1
    17    7    9 1
    18    7   10 1
    19    9   47 1
    20    9   48 1
    21   10   11 2
    22   10   12 1
    23   13   14 2
    24   13   15 1
    25   15   16 1
    26   15   17 1
    27   15   24 1
    28   17   18 1
    29   17   49 1
    30   17   50 1
    31   18   19 1
    32   18   51 1
    33   18   52 1
    34   19   20 1
    35   19   53 1
    36   19   54 1
    37   20   21 2
    38   20   71 1
    39   21   22 1
    40   21   23 1
    41   22   55 1
    42   22   56 1
    43   23   57 1
    44   23   58 1
    45   24   25 1
    46   24   59 1
    47   25   26 2
    48   25   27 2
    49   25   28 1
    50   28   33 ar
    51   28   29 ar
    52   29   30 ar
    53   29   60 1
    54   30   31 ar
    55   30   61 1
    56   31   32 ar
    57   31   62 1
    58   32   38 1
    59   32   33 ar
    60   33   34 1
    61   34   35 1
    62   34   63 1
    63   35   36 1
    64   35   64 1
    65   35   65 1
    66   36   37 1
    67   36   38 1
    68   36   39 1
    69   38   66 1
    70   38   67 1
    71   39   68 1
    72   39   69 1
    73   39   70 1
@<TRIPOS>MOLECULE
ZINC12466745
   71    73     0     0     0
SMALL
USER_CHARGES

@<TRIPOS>ATOM
      1 C1          0.9384   -1.7702    0.1612 C.3       1 <0>        -0.1485
      2 C2          0.2088   -2.6476    1.1804 C.3       1 <0>        -0.0921
      3 H1          0.2891   -3.6931    0.8829 H         1 <0>         0.0675
      4 C3         -1.2667   -2.2452    1.2360 C.3       1 <0>        -0.1301
      5 C4         -1.3743   -0.7663    1.6210 C.3       1 <0>         0.1065
      6 N1         -0.6421   -0.5500    2.8763 N.am      1 <0>        -0.5960
      7 C5          0.7590   -0.9841    2.9607 C.3       1 <0>         0.0787
      8 H2          1.3681   -0.3866    2.2824 H         1 <0>         0.0616
      9 C6          0.8425   -2.4602    2.5608 C.3       1 <0>        -0.1124
     10 C7          1.2573   -0.8111    4.3724 C.2       1 <0>         0.5048
     11 O1          0.6397   -1.3031    5.3014 O.co2     1 <0>        -0.6486
     12 O2          2.2779   -0.1792    4.5855 O.co2     1 <0>        -0.7074
     13 C8         -1.2442    0.0359    3.9302 C.2       1 <0>         0.4661
     14 O3         -0.6566    0.1345    4.9865 O.2       1 <0>        -0.4232
     15 C9         -2.6475    0.5686    3.7960 C.3       1 <0>         0.1411
     16 H3         -3.2577   -0.1491    3.2476 H         1 <0>         0.0998
     17 C10        -2.6184    1.8974    3.0382 C.3       1 <0>        -0.1165
     18 C11        -4.0509    2.3657    2.7745 C.3       1 <0>        -0.1391
     19 C12        -4.0217    3.6945    2.0167 C.3       1 <0>         0.0803
     20 N2         -5.3934    4.1429    1.7643 N.pl3     1 <0>        -0.6535
     21 C13        -5.6071    5.2601    1.1277 C.cat     1 <0>         0.7363
     22 N3         -4.5453    6.0177    0.6933 N.pl3     1 <0>        -0.8113
     23 N4         -6.8943    5.6809    0.8908 N.pl3     1 <0>        -0.8177
     24 N5         -3.2196    0.7786    5.1282 N.pl3     1 <0>        -1.0976
     25 S1         -4.1336   -0.4087    5.8334 S.o2      1 <0>         2.6829
     26 O4         -3.3908   -1.6147    5.7193 O.2       1 <0>        -0.9253
     27 O5         -4.5677    0.1030    7.0860 O.2       1 <0>        -0.9565
     28 C14        -5.5777   -0.6111    4.8443 C.ar      1 <0>        -0.7427
     29 C15        -5.7737   -1.7830    4.1411 C.ar      1 <0>         0.0209
     30 C16        -6.9076   -1.9403    3.3657 C.ar      1 <0>        -0.1840
     31 C17        -7.8455   -0.9282    3.2939 C.ar      1 <0>        -0.0246
     32 C18        -7.6570    0.2501    3.9962 C.ar      1 <0>        -0.1782
     33 C19        -6.5220    0.4071    4.7769 C.ar      1 <0>         0.3085
     34 N6         -6.3034    1.5878    5.4951 N.pl3     1 <0>        -0.7475
     35 C20        -7.4163    2.5315    5.6665 C.3       1 <0>         0.1211
     36 C21        -8.1196    2.6783    4.3108 C.3       1 <0>        -0.1012
     37 H4         -7.3993    3.0004    3.5587 H         1 <0>         0.0580
     38 C22        -8.7011    1.3310    3.8995 C.3       1 <0>        -0.0681
     39 C23        -9.2400    3.7140    4.4240 C.3       1 <0>        -0.1517
     40 H5          1.9892   -2.0570    0.1211 H         1 <0>         0.0549
     41 H6          0.4875   -1.9039   -0.8221 H         1 <0>         0.0475
     42 H7          0.8583   -0.7246    0.4585 H         1 <0>         0.0583
     43 H8         -1.7233   -2.4008    0.2585 H         1 <0>         0.0662
     44 H9         -1.7819   -2.8531    1.9797 H         1 <0>         0.0687
     45 H10        -0.9391   -0.1511    0.8334 H         1 <0>         0.0625
     46 H11        -2.4223   -0.4999    1.7586 H         1 <0>         0.0664
     47 H12         0.3075   -3.0662    3.2920 H         1 <0>         0.0708
     48 H13         1.8873   -2.7689    2.5264 H         1 <0>         0.0657
     49 H14        -2.0959    2.6448    3.6354 H         1 <0>         0.0904
     50 H15        -2.0995    1.7631    2.0891 H         1 <0>         0.0936
     51 H16        -4.5733    1.6183    2.1774 H         1 <0>         0.0871
     52 H17        -4.5697    2.5000    3.7236 H         1 <0>         0.0863
     53 H18        -3.4993    4.4419    2.6139 H         1 <0>         0.1048
     54 H19        -3.5028    3.5603    1.0676 H         1 <0>         0.1052
     55 H20        -3.6371    5.7208    0.8605 H         1 <0>         0.4391
     56 H21        -4.7043    6.8491    0.2196 H         1 <0>         0.4371
     57 H22        -7.6434    5.1463    1.1973 H         1 <0>         0.4365
     58 H23        -7.0533    6.5123    0.4171 H         1 <0>         0.4377
     59 H24        -3.0630    1.6131    5.5973 H         1 <0>         0.4178
     60 H25        -5.0422   -2.5756    4.1964 H         1 <0>         0.1454
     61 H26        -7.0604   -2.8563    2.8144 H         1 <0>         0.1317
     62 H27        -8.7295   -1.0566    2.6869 H         1 <0>         0.1278
     63 H28        -5.4313    1.7800    5.8740 H         1 <0>         0.4020
     64 H29        -8.1175    2.1450    6.4061 H         1 <0>         0.0719
     65 H30        -7.0333    3.4992    5.9903 H         1 <0>         0.0866
     66 H31        -9.0703    1.3847    2.8753 H         1 <0>         0.0774
     67 H32        -9.5300    1.0919    4.5658 H         1 <0>         0.0778
     68 H33        -8.8182    4.6747    4.7194 H         1 <0>         0.0593
     69 H34        -9.7384    3.8170    3.4601 H         1 <0>         0.0604
     70 H35        -9.9616    3.3882    5.1732 H         1 <0>         0.0668
     71 H36        -6.1425    3.6084    2.0708 H         1 <0>         0.4359
@<TRIPOS>BOND
     1    1    2 1
     2    1   40 1
     3    1   41 1
     4    1   42 1
     5    2    3 1
     6    2    9 1
     7    2    4 1
     8    4    5 1
     9    4   43 1
    10    4   44 1
    11    5    6 1
    12    5   45 1
    13    5   46 1
    14    6    7 1
    15    6   13 am
    16    7    8 1
    17    7    9 1
    18    7   10 1
    19    9   47 1
    20    9   48 1
    21   10   11 2
    22   10   12 1
    23   13   14 2
    24   13   15 1
    25   15   16 1
    26   15   17 1
    27   15   24 1
    28   17   18 1
    29   17   49 1
    30   17   50 1
    31   18   19 1
    32   18   51 1
    33   18   52 1
    34   19   20 1
    35   19   53 1
    36   19   54 1
    37   20   21 2
    38   20   71 1
    39   21   22 1
    40   21   23 1
    41   22   55 1
    42   22   56 1
    43   23   57 1
    44   23   58 1
    45   24   25 1
    46   24   59 1
    47   25   26 2
    48   25   27 2
    49   25   28 1
    50   28   33 ar
    51   28   29 ar
    52   29   30 ar
    53   29   60 1
    54   30   31 ar
    55   30   61 1
    56   31   32 ar
    57   31   62 1
    58   32   38 1
    59   32   33 ar
    60   33   34 1
    61   34   35 1
    62   34   63 1
    63   35   36 1
    64   35   64 1
    65   35   65 1
    66   36   37 1
    67   36   38 1
    68   36   39 1
    69   38   66 1
    70   38   67 1
    71   39   68 1
    72   39   69 1
    73   39   70 1
@<TRIPOS>MOLECULE
ZINC13761967
   71    73     0     0     0
SMALL
USER_CHARGES

@<TRIPOS>ATOM
      1 C1         -0.6527    1.4420    1.3178 C.3       1 <0>        -0.1433
      2 C2         -0.3777   -0.0559    1.1703 C.3       1 <0>        -0.0951
      3 H1          0.4655   -0.2056    0.4960 H         1 <0>         0.0674
      4 C3         -1.6171   -0.7478    0.5982 C.3       1 <0>        -0.1239
      5 C4         -1.3265   -2.2413    0.4195 C.3       1 <0>         0.0974
      6 N1         -0.8669   -2.7904    1.7024 N.am      1 <0>        -0.5929
      7 C5          0.2623   -2.1432    2.3841 C.3       1 <0>         0.0747
      8 H2          1.1679   -2.2688    1.7906 H         1 <0>         0.0552
      9 C6         -0.0465   -0.6509    2.5408 C.3       1 <0>        -0.1057
     10 C7          0.4575   -2.7669    3.7419 C.2       1 <0>         0.5238
     11 O1          1.4944   -3.3545    3.9995 O.co2     1 <0>        -0.6926
     12 O2         -0.4213   -2.6841    4.5829 O.co2     1 <0>        -0.6840
     13 C8         -1.4701   -3.8672    2.2440 C.2       1 <0>         0.4706
     14 O3         -1.0318   -4.3597    3.2619 O.2       1 <0>        -0.4297
     15 C9         -2.6890   -4.4592    1.5846 C.3       1 <0>         0.1392
     16 H3         -2.4675   -4.6764    0.5397 H         1 <0>         0.1107
     17 C10        -3.8467   -3.4620    1.6638 C.3       1 <0>        -0.1211
     18 C11        -5.0619   -4.0319    0.9295 C.3       1 <0>        -0.1390
     19 C12        -6.2196   -3.0347    1.0087 C.3       1 <0>         0.0806
     20 N2         -7.3832   -3.5805    0.3056 N.pl3     1 <0>        -0.6526
     21 C13        -8.4898   -2.8942    0.2464 C.cat     1 <0>         0.7363
     22 N3         -8.5650   -1.6582    0.8437 N.pl3     1 <0>        -0.8130
     23 N4         -9.5818   -3.4064   -0.4134 N.pl3     1 <0>        -0.8178
     24 N5         -3.0633   -5.6975    2.2722 N.pl3     1 <0>        -1.1006
     25 S1         -2.5703   -7.1597    1.6712 S.o2      1 <0>         2.6958
     26 O4         -3.0872   -8.1534    2.5457 O.2       1 <0>        -0.9622
     27 O5         -2.8584   -7.1450    0.2798 O.2       1 <0>        -0.9702
     28 C14        -0.8157   -7.2200    1.8216 C.ar      1 <0>        -0.7542
     29 C15        -0.0265   -7.2415    0.6890 C.ar      1 <0>         0.0023
     30 C16         1.3502   -7.2891    0.8087 C.ar      1 <0>        -0.1933
     31 C17         1.9377   -7.3174    2.0590 C.ar      1 <0>        -0.0200
     32 C18         1.1536   -7.2974    3.2000 C.ar      1 <0>        -0.1449
     33 C19        -0.2266   -7.2401    3.0807 C.ar      1 <0>         0.3492
     34 N6         -1.0437   -7.2036    4.2159 N.pl3     1 <0>        -0.7229
     35 C20        -0.4561   -7.5212    5.5246 C.3       1 <0>         0.1293
     36 C21         0.8865   -6.7857    5.6268 C.3       1 <0>        -0.1139
     37 H4          0.7299   -5.7174    5.4776 H         1 <0>         0.1089
     38 C22         1.8261   -7.3349    4.5469 C.3       1 <0>        -0.0616
     39 C23         1.4987   -7.0260    7.0082 C.3       1 <0>        -0.1388
     40 H5          0.2301    1.9350    1.7248 H         1 <0>         0.0551
     41 H6         -0.8881    1.8660    0.3417 H         1 <0>         0.0491
     42 H7         -1.4959    1.5919    1.9921 H         1 <0>         0.0513
     43 H8         -2.4545   -0.6197    1.2842 H         1 <0>         0.0626
     44 H9         -1.8665   -0.3076   -0.3673 H         1 <0>         0.0662
     45 H10        -2.2352   -2.7554    0.1064 H         1 <0>         0.0745
     46 H11        -0.5504   -2.3749   -0.3341 H         1 <0>         0.0641
     47 H12         0.8222   -0.1417    2.9582 H         1 <0>         0.0629
     48 H13        -0.8988   -0.5237    3.2083 H         1 <0>         0.0685
     49 H14        -4.1032   -3.2853    2.7084 H         1 <0>         0.0895
     50 H15        -3.5491   -2.5221    1.1988 H         1 <0>         0.0971
     51 H16        -4.8054   -4.2086   -0.1150 H         1 <0>         0.0906
     52 H17        -5.3595   -4.9718    1.3945 H         1 <0>         0.0877
     53 H18        -6.4762   -2.8581    2.0533 H         1 <0>         0.1034
     54 H19        -5.9220   -2.0949    0.5438 H         1 <0>         0.1036
     55 H20        -7.7945   -1.2969    1.3092 H         1 <0>         0.4386
     56 H21        -9.3884   -1.1475    0.7996 H         1 <0>         0.4366
     57 H22        -9.5287   -4.2784   -0.8349 H         1 <0>         0.4378
     58 H23       -10.4053   -2.8957   -0.4575 H         1 <0>         0.4370
     59 H24        -3.5999   -5.6609    3.0794 H         1 <0>         0.4181
     60 H25        -0.4838   -7.2217   -0.2893 H         1 <0>         0.1311
     61 H26         1.9677   -7.3045   -0.0771 H         1 <0>         0.1225
     62 H27         3.0134   -7.3556    2.1466 H         1 <0>         0.1242
     63 H28        -1.9826   -6.9720    4.1403 H         1 <0>         0.3930
     64 H29        -1.1222   -7.1858    6.3195 H         1 <0>         0.0794
     65 H30        -0.2952   -8.5962    5.6058 H         1 <0>         0.0595
     66 H31         2.1041   -8.3623    4.7823 H         1 <0>         0.0658
     67 H32         2.7252   -6.7193    4.5180 H         1 <0>         0.0785
     68 H33         1.6587   -8.0943    7.1539 H         1 <0>         0.0493
     69 H34         2.4523   -6.5028    7.0790 H         1 <0>         0.0597
     70 H35         0.8213   -6.6521    7.7759 H         1 <0>         0.0549
     71 H36        -7.3302   -4.4525   -0.1158 H         1 <0>         0.4401
@<TRIPOS>BOND
     1    1    2 1
     2    1   40 1
     3    1   41 1
     4    1   42 1
     5    2    3 1
     6    2    9 1
     7    2    4 1
     8    4    5 1
     9    4   43 1
    10    4   44 1
    11    5    6 1
    12    5   45 1
    13    5   46 1
    14    6    7 1
    15    6   13 am
    16    7    8 1
    17    7    9 1
    18    7   10 1
    19    9   47 1
    20    9   48 1
    21   10   11 2
    22   10   12 1
    23   13   14 2
    24   13   15 1
    25   15   16 1
    26   15   17 1
    27   15   24 1
    28   17   18 1
    29   17   49 1
    30   17   50 1
    31   18   19 1
    32   18   51 1
    33   18   52 1
    34   19   20 1
    35   19   53 1
    36   19   54 1
    37   20   21 2
    38   20   71 1
    39   21   22 1
    40   21   23 1
    41   22   55 1
    42   22   56 1
    43   23   57 1
    44   23   58 1
    45   24   25 1
    46   24   59 1
    47   25   26 2
    48   25   27 2
    49   25   28 1
    50   28   33 ar
    51   28   29 ar
    52   29   30 ar
    53   29   60 1
    54   30   31 ar
    55   30   61 1
    56   31   32 ar
    57   31   62 1
    58   32   38 1
    59   32   33 ar
    60   33   34 1
    61   34   35 1
    62   34   63 1
    63   35   36 1
    64   35   64 1
    65   35   65 1
    66   36   37 1
    67   36   38 1
    68   36   39 1
    69   38   66 1
    70   38   67 1
    71   39   68 1
    72   39   69 1
    73   39   70 1
@<TRIPOS>MOLECULE
ZINC13761969
   71    73     0     0     0
SMALL
USER_CHARGES

@<TRIPOS>ATOM
      1 C1         -0.8428    1.4764    1.5620 C.3       1 <0>        -0.1432
      2 C2         -0.5283   -0.0075    1.3617 C.3       1 <0>        -0.0951
      3 H1          0.2879   -0.1125    0.6469 H         1 <0>         0.0673
      4 C3         -1.7701   -0.7241    0.8264 C.3       1 <0>        -0.1239
      5 C4         -1.4415   -2.2023    0.5944 C.3       1 <0>         0.0977
      6 N1         -0.9077   -2.7692    1.8403 N.am      1 <0>        -0.5936
      7 C5          0.2305   -2.1036    2.4887 C.3       1 <0>         0.0749
      8 H2          1.1119   -2.1845    1.8525 H         1 <0>         0.0551
      9 C6         -0.1172   -0.6266    2.6995 C.3       1 <0>        -0.1057
     10 C7          0.5061   -2.7556    3.8191 C.2       1 <0>         0.5243
     11 O1          1.5711   -3.3162    4.0142 O.co2     1 <0>        -0.6941
     12 O2         -0.3359   -2.7225    4.7003 O.co2     1 <0>        -0.6839
     13 C8         -1.4520   -3.8785    2.3785 C.2       1 <0>         0.4705
     14 O3         -0.9535   -4.3823    3.3627 O.2       1 <0>        -0.4276
     15 C9         -2.6799   -4.4929    1.7574 C.3       1 <0>         0.1400
     16 H3         -2.4989   -4.6746    0.6980 H         1 <0>         0.1099
     17 C10        -3.8641   -3.5373    1.9159 C.3       1 <0>        -0.1208
     18 C11        -5.0923   -4.1273    1.2199 C.3       1 <0>        -0.1389
     19 C12        -6.2766   -3.1716    1.3785 C.3       1 <0>         0.0806
     20 N2         -7.4526   -3.7366    0.7120 N.pl3     1 <0>        -0.6526
     21 C13        -8.5821   -3.0862    0.7212 C.cat     1 <0>         0.7363
     22 N3         -8.6699   -1.8700    1.3562 N.pl3     1 <0>        -0.8130
     23 N4         -9.6857   -3.6163    0.0958 N.pl3     1 <0>        -0.8178
     24 N5         -2.9828   -5.7610    2.4256 N.pl3     1 <0>        -1.0959
     25 S1         -2.4751   -7.1897    1.7598 S.o2      1 <0>         2.6997
     26 O4         -2.9207   -8.2231    2.6274 O.2       1 <0>        -0.9688
     27 O5         -2.8282   -7.1448    0.3841 O.2       1 <0>        -0.9703
     28 C14        -0.7144   -7.1995    1.8276 C.ar      1 <0>        -0.7562
     29 C15         0.0212   -7.1899    0.6593 C.ar      1 <0>         0.0018
     30 C16         1.4028   -7.1973    0.7143 C.ar      1 <0>        -0.1937
     31 C17         2.0488   -7.2130    1.9355 C.ar      1 <0>        -0.0216
     32 C18         1.3189   -7.2222    3.1120 C.ar      1 <0>        -0.1431
     33 C19        -0.0665   -7.2111    3.0577 C.ar      1 <0>         0.3500
     34 N6         -0.8303   -7.2232    4.2299 N.pl3     1 <0>        -0.7297
     35 C20        -0.1699   -6.9377    5.5110 C.3       1 <0>         0.1250
     36 C21         1.1458   -7.7261    5.5462 C.3       1 <0>        -0.1053
     37 H4          0.9402   -8.7865    5.3993 H         1 <0>         0.0687
     38 C22         2.0546   -7.2345    4.4259 C.3       1 <0>        -0.0705
     39 C23         1.8312   -7.5195    6.8985 C.3       1 <0>        -0.1435
     40 H5          0.0417    1.9871    1.9427 H         1 <0>         0.0551
     41 H6         -1.1351    1.9177    0.6091 H         1 <0>         0.0491
     42 H7         -1.6589    1.5816    2.2767 H         1 <0>         0.0513
     43 H8         -2.5793   -0.6408    1.5520 H         1 <0>         0.0625
     44 H9         -2.0764   -0.2674   -0.1147 H         1 <0>         0.0660
     45 H10        -2.3469   -2.7373    0.3080 H         1 <0>         0.0743
     46 H11        -0.6965   -2.2912   -0.1962 H         1 <0>         0.0638
     47 H12         0.7532   -0.1006    3.0917 H         1 <0>         0.0629
     48 H13        -0.9421   -0.5443    3.4073 H         1 <0>         0.0685
     49 H14        -4.0790   -3.3976    2.9753 H         1 <0>         0.0893
     50 H15        -3.6180   -2.5758    1.4652 H         1 <0>         0.0968
     51 H16        -4.8775   -4.2670    0.1605 H         1 <0>         0.0904
     52 H17        -5.3384   -5.0887    1.6706 H         1 <0>         0.0875
     53 H18        -6.4914   -3.0319    2.4379 H         1 <0>         0.1034
     54 H19        -6.0305   -2.2102    0.9278 H         1 <0>         0.1036
     55 H20        -7.8912   -1.4959    1.7975 H         1 <0>         0.4386
     56 H21        -9.5105   -1.3859    1.3630 H         1 <0>         0.4366
     57 H22        -9.6238   -4.4744   -0.3523 H         1 <0>         0.4378
     58 H23       -10.5263   -3.1323    0.1026 H         1 <0>         0.4369
     59 H24        -3.4807   -5.7637    3.2580 H         1 <0>         0.4187
     60 H25        -0.4818   -7.1770   -0.2963 H         1 <0>         0.1307
     61 H26         1.9783   -7.1913   -0.1996 H         1 <0>         0.1222
     62 H27         3.1282   -7.2184    1.9726 H         1 <0>         0.1238
     63 H28        -1.7803   -7.4165    4.1974 H         1 <0>         0.3966
     64 H29         0.0370   -5.8705    5.5899 H         1 <0>         0.0910
     65 H30        -0.8108   -7.2521    6.3348 H         1 <0>         0.0738
     66 H31         2.9261   -7.8842    4.3448 H         1 <0>         0.0698
     67 H32         2.3841   -6.2231    4.6639 H         1 <0>         0.0910
     68 H33         1.1762   -7.8717    7.6954 H         1 <0>         0.0542
     69 H34         2.7656   -8.0802    6.9217 H         1 <0>         0.0562
     70 H35         2.0400   -6.4593    7.0417 H         1 <0>         0.0643
     71 H36        -7.3906   -4.5947    0.2640 H         1 <0>         0.4401
@<TRIPOS>BOND
     1    1    2 1
     2    1   40 1
     3    1   41 1
     4    1   42 1
     5    2    3 1
     6    2    9 1
     7    2    4 1
     8    4    5 1
     9    4   43 1
    10    4   44 1
    11    5    6 1
    12    5   45 1
    13    5   46 1
    14    6    7 1
    15    6   13 am
    16    7    8 1
    17    7    9 1
    18    7   10 1
    19    9   47 1
    20    9   48 1
    21   10   11 2
    22   10   12 1
    23   13   14 2
    24   13   15 1
    25   15   16 1
    26   15   17 1
    27   15   24 1
    28   17   18 1
    29   17   49 1
    30   17   50 1
    31   18   19 1
    32   18   51 1
    33   18   52 1
    34   19   20 1
    35   19   53 1
    36   19   54 1
    37   20   21 2
    38   20   71 1
    39   21   22 1
    40   21   23 1
    41   22   55 1
    42   22   56 1
    43   23   57 1
    44   23   58 1
    45   24   25 1
    46   24   59 1
    47   25   26 2
    48   25   27 2
    49   25   28 1
    50   28   33 ar
    51   28   29 ar
    52   29   30 ar
    53   29   60 1
    54   30   31 ar
    55   30   61 1
    56   31   32 ar
    57   31   62 1
    58   32   38 1
    59   32   33 ar
    60   33   34 1
    61   34   35 1
    62   34   63 1
    63   35   36 1
    64   35   64 1
    65   35   65 1
    66   36   37 1
    67   36   38 1
    68   36   39 1
    69   38   66 1
    70   38   67 1
    71   39   68 1
    72   39   69 1
    73   39   70 1
@<TRIPOS>MOLECULE
ZINC01439372
   22    23     0     0     0
SMALL
USER_CHARGES
1H-indole-5-carboxamidine
@<TRIPOS>ATOM
      1 C1          2.2495    2.7327   -0.0044 C.ar      1 <0>        -0.0571
      2 C2          1.0804    2.0296    0.0024 C.ar      1 <0>        -0.1120
      3 C3         -0.1404    2.6997    0.0169 C.ar      1 <0>         0.1454
      4 C4         -0.1617    4.1081    0.0239 C.ar      1 <0>        -0.1179
      5 C5         -1.5761    4.4916    0.0387 C.2       1 <0>        -0.1893
      6 C6         -2.2895    3.3549    0.0346 C.2       1 <0>         0.0695
      7 N1         -1.4485    2.2754    0.0269 N.pl3     1 <0>        -0.5794
      8 H1         -1.7329    1.3480    0.0244 H         1 <0>         0.4291
      9 C7          1.0342    4.8226    0.0165 C.ar      1 <0>         0.0093
     10 C8          2.2412    4.1329    0.0020 C.ar      1 <0>        -0.1886
     11 C9          3.5188    4.8795   -0.0061 C.cat     1 <0>         0.6038
     12 N2          4.7157    4.1966   -0.0204 N.pl3     1 <0>        -0.7852
     13 H2          3.1910    2.2039   -0.0149 H         1 <0>         0.1379
     14 H3          1.1016    0.9499   -0.0031 H         1 <0>         0.1434
     15 H4         -1.9694    5.4974    0.0472 H         1 <0>         0.1621
     16 H5         -3.3681    3.3002    0.0395 H         1 <0>         0.1867
     17 H6          1.0238    5.9025    0.0214 H         1 <0>         0.1369
     18 H7          4.2973    6.7611   -0.0040 H         1 <0>         0.4422
     19 H8          4.7207    3.2267   -0.0251 H         1 <0>         0.4418
     20 H9          5.5532    4.6861   -0.0257 H         1 <0>         0.4294
     21 N3          3.4440    6.2020    0.0010 N.pl3     1 <0>        -0.7665
     22 H10         2.5273    6.6644    0.0116 H         1 <0>         0.4584
@<TRIPOS>BOND
     1    1   10 ar
     2    1    2 ar
     3    1   13 1
     4    2    3 ar
     5    2   14 1
     6    3    7 1
     7    3    4 ar
     8    4    5 1
     9    4    9 ar
    10    5    6 2
    11    5   15 1
    12    6    7 1
    13    6   16 1
    14    7    8 1
    15    9   10 ar
    16    9   17 1
    17   10   11 1
    18   11   12 1
    19   11   21 2
    20   12   19 1
    21   12   20 1
    22   18   21 1
    23   21   22 1
@<TRIPOS>MOLECULE
ZINC03777328
   64    65     0     0     0
SMALL
USER_CHARGES
N-(1-formyl-4-guanidino-butyl)-1-(2-methylamino-3-phenyl-propanoyl)-pyrrolidine-2-carboxamide
@<TRIPOS>ATOM
      1 C1         -1.1006   11.6463   -1.5224 C.3       1 <0>        -0.0461
      2 C2         -0.9630   11.2349    0.8596 C.3       1 <0>         0.0169
      3 H1         -1.8685   11.8411    0.8348 H         1 <0>         0.1593
      4 C3         -0.1070   11.6456    2.0594 C.3       1 <0>        -0.0917
      5 C4          0.1631   13.1271    2.0002 C.ar      1 <0>        -0.1306
      6 C5          1.2821   13.5998    1.3406 C.ar      1 <0>        -0.1429
      7 C6          1.5270   14.9590    1.2817 C.ar      1 <0>        -0.1028
      8 C7          0.6589   15.8448    1.8922 C.ar      1 <0>        -0.0988
      9 C8         -0.4574   15.3717    2.5563 C.ar      1 <0>        -0.1020
     10 C9         -0.7053   14.0129    2.6102 C.ar      1 <0>        -0.1030
     11 C10        -1.3357    9.7799    0.9830 C.2       1 <0>         0.5339
     12 O1         -0.6480    8.9310    0.4564 O.2       1 <0>        -0.5146
     13 N1         -2.4332    9.4221    1.6787 N.am      1 <0>        -0.5806
     14 C11        -3.3535   10.3459    2.3665 C.3       1 <0>         0.0813
     15 C12        -4.0211    9.4904    3.4720 C.3       1 <0>        -0.1308
     16 C13        -4.1772    8.1228    2.7560 C.3       1 <0>        -0.1285
     17 C14        -2.9104    8.0459    1.8779 C.3       1 <0>         0.1215
     18 H2         -2.1435    7.4566    2.3804 H         1 <0>         0.1120
     19 C15        -3.2460    7.4222    0.5477 C.2       1 <0>         0.5198
     20 O2         -3.1031    8.0595   -0.4742 O.2       1 <0>        -0.5250
     21 N2         -3.7051    6.1561    0.4937 N.am      1 <0>        -0.7157
     22 C16        -4.0313    5.5498   -0.7994 C.3       1 <0>         0.0934
     23 H3         -3.3938    5.8829   -1.4941 H         1 <0>         0.1097
     24 C17        -3.9188    4.0277   -0.6920 C.3       1 <0>        -0.1228
     25 C18        -2.4636    3.6418   -0.4196 C.3       1 <0>        -0.1314
     26 C19        -2.3512    2.1198   -0.3120 C.3       1 <0>         0.0917
     27 N3         -0.9577    1.7502   -0.0513 N.pl3     1 <0>        -0.7015
     28 C20        -0.6115    0.4267    0.0849 C.cat     1 <0>         0.7402
     29 N4          0.6971    0.0796    0.3240 N.pl3     1 <0>        -0.8052
     30 C21        -5.4384    5.9233   -1.1887 C.2       1 <0>         0.3242
     31 O3         -6.1004    6.6237   -0.4610 O.2       1 <0>        -0.4336
     32 H4         -1.7933   10.8080   -1.5941 H         1 <0>         0.1248
     33 H5         -1.6614   12.5704   -1.3827 H         1 <0>         0.1257
     34 H6         -0.5140   11.7124   -2.4389 H         1 <0>         0.1325
     35 H7         -0.6374   11.4096    2.9820 H         1 <0>         0.1230
     36 H8          0.8379   11.1028    2.0345 H         1 <0>         0.1070
     37 H9          1.9630   12.9075    0.8678 H         1 <0>         0.1239
     38 H10         2.3990   15.3287    0.7626 H         1 <0>         0.1351
     39 H11         0.8526   16.9065    1.8500 H         1 <0>         0.1355
     40 H12        -1.1357   16.0637    3.0331 H         1 <0>         0.1356
     41 H13        -1.5773   13.6432    3.1294 H         1 <0>         0.1298
     42 H14        -2.7994   11.1733    2.8098 H         1 <0>         0.0903
     43 H15        -4.1047   10.7206    1.6713 H         1 <0>         0.0881
     44 H16        -3.3726    9.4033    4.3438 H         1 <0>         0.0897
     45 H17        -4.9924    9.8998    3.7496 H         1 <0>         0.1035
     46 H18        -5.0756    8.1109    2.1388 H         1 <0>         0.0942
     47 H19        -4.1946    7.3082    3.4801 H         1 <0>         0.1022
     48 H20        -3.8194    5.6464    1.3110 H         1 <0>         0.4059
     49 H21        -4.2467    3.5723   -1.6264 H         1 <0>         0.1024
     50 H22        -4.5476    3.6737    0.1251 H         1 <0>         0.0872
     51 H23        -2.1357    4.0972    0.5149 H         1 <0>         0.0828
     52 H24        -1.8348    3.9957   -1.2365 H         1 <0>         0.0868
     53 H25        -2.6790    1.6643   -1.2465 H         1 <0>         0.0960
     54 H26        -2.9800    1.7658    0.5049 H         1 <0>         0.0946
     55 H27        -0.2787    2.4390    0.0213 H         1 <0>         0.4328
     56 H28        -1.3784   -1.4601    0.0685 H         1 <0>         0.4538
     57 H29         1.3761    0.7684    0.3966 H         1 <0>         0.4401
     58 H30         0.9414   -0.8543    0.4201 H         1 <0>         0.4409
     59 H31        -5.8548    5.5646   -2.1184 H         1 <0>         0.1125
     60 N5         -0.1904   11.4419   -0.3798 N.4       1 <0>        -0.5078
     61 H32         0.4084   12.2689   -0.2715 H         1 <0>         0.4350
     62 H33         0.3945   10.6166   -0.5561 H         1 <0>         0.4390
     63 N6         -1.5851   -0.4656   -0.0249 N.pl3     1 <0>        -0.7942
     64 H34        -2.5475   -0.1559   -0.2040 H         1 <0>         0.4551
@<TRIPOS>BOND
     1    1   32 1
     2    1   33 1
     3    1   34 1
     4    1   60 1
     5    2    3 1
     6    2    4 1
     7    2   11 1
     8    2   60 1
     9    4    5 1
    10    4   35 1
    11    4   36 1
    12    5   10 ar
    13    5    6 ar
    14    6    7 ar
    15    6   37 1
    16    7    8 ar
    17    7   38 1
    18    8    9 ar
    19    8   39 1
    20    9   10 ar
    21    9   40 1
    22   10   41 1
    23   11   12 2
    24   11   13 am
    25   13   17 1
    26   13   14 1
    27   14   15 1
    28   14   42 1
    29   14   43 1
    30   15   16 1
    31   15   44 1
    32   15   45 1
    33   16   17 1
    34   16   46 1
    35   16   47 1
    36   17   18 1
    37   17   19 1
    38   19   20 2
    39   19   21 am
    40   21   22 1
    41   21   48 1
    42   22   23 1
    43   22   24 1
    44   22   30 1
    45   24   25 1
    46   24   49 1
    47   24   50 1
    48   25   26 1
    49   25   51 1
    50   25   52 1
    51   26   27 1
    52   26   53 1
    53   26   54 1
    54   27   28 1
    55   27   55 1
    56   28   29 1
    57   28   63 2
    58   29   57 1
    59   29   58 1
    60   30   31 2
    61   30   59 1
    62   56   63 1
    63   60   61 1
    64   60   62 1
    65   63   64 1
@<TRIPOS>MOLECULE
ZINC03807246
   69    72     0     0     0
SMALL
USER_CHARGES

@<TRIPOS>ATOM
      1 C1         -1.4468    1.0204    1.5598 C.ar      1 <0>        -0.0881
      2 C2         -0.3637    1.8925    1.4651 C.ar      1 <0>        -0.1181
      3 C3          0.8927    1.4262    1.2278 C.ar      1 <0>        -0.0900
      4 C4          1.1047    0.0452    1.0760 C.ar      1 <0>        -0.0797
      5 C5          2.3875   -0.4736    0.8307 C.ar      1 <0>         0.0262
      6 C6          2.5549   -1.8168    0.6895 C.ar      1 <0>        -0.6802
      7 C7          1.4718   -2.6889    0.7846 C.ar      1 <0>        -0.0526
      8 C8          0.2154   -2.2225    1.0214 C.ar      1 <0>        -0.1132
      9 C9          0.0034   -0.8415    1.1728 C.ar      1 <0>        -0.0113
     10 C10        -1.2794   -0.3227    1.4182 C.ar      1 <0>        -0.1213
     11 S1          4.1649   -2.4631    0.3814 S.o2      1 <0>         2.6992
     12 O1          3.9829   -3.7195   -0.2570 O.2       1 <0>        -0.9555
     13 O2          4.9188   -1.4119   -0.2067 O.2       1 <0>        -0.9466
     14 N1          4.8569   -2.7758    1.8530 N.pl3     1 <0>        -1.1073
     15 C11         4.2874   -3.8049    2.7264 C.3       1 <0>         0.1000
     16 C12         5.2796   -4.1529    3.8059 C.2       1 <0>         0.5210
     17 O3          6.3564   -3.5961    3.8422 O.2       1 <0>        -0.5181
     18 N2          4.9704   -5.0829    4.7311 N.am      1 <0>        -0.7101
     19 C13         5.9349   -5.4212    5.7806 C.3       1 <0>         0.1339
     20 H1          6.9457   -5.3661    5.3765 H         1 <0>         0.1200
     21 C14         5.6637   -6.8402    6.2843 C.3       1 <0>        -0.1006
     22 C15         5.9436   -7.8272    5.1805 C.ar      1 <0>        -0.0118
     23 C16         4.9340   -8.1867    4.3055 C.ar      1 <0>        -0.1089
     24 C17         5.1837   -9.0901    3.2931 C.ar      1 <0>        -0.0513
     25 C18         6.4577   -9.6411    3.1524 C.ar      1 <0>        -0.1581
     26 C19         7.4717   -9.2742    4.0377 C.ar      1 <0>        -0.0513
     27 C20         7.2105   -8.3658    5.0428 C.ar      1 <0>        -0.1097
     28 C21         6.7323  -10.6110    2.0691 C.cat     1 <0>         0.6003
     29 N3          7.9491  -11.1351    1.9374 N.pl3     1 <0>        -0.7617
     30 N4          5.7625  -10.9596    1.2261 N.pl3     1 <0>        -0.7609
     31 C22         5.7967   -4.4477    6.9226 C.2       1 <0>         0.5048
     32 O4          4.7594   -3.8388    7.0782 O.2       1 <0>        -0.5232
     33 N5          6.8258   -4.2538    7.7710 N.am      1 <0>        -0.6053
     34 C23         8.1249   -4.8969    7.5315 C.3       1 <0>         0.1030
     35 C24         9.2160   -3.8216    7.5376 C.3       1 <0>        -0.1381
     36 C25         9.1384   -3.0292    8.8446 C.3       1 <0>        -0.1219
     37 C26         7.7772   -2.3367    8.9433 C.3       1 <0>        -0.1374
     38 C27         6.6716   -3.3904    8.9498 C.3       1 <0>         0.1098
     39 H2         -2.4330    1.4161    1.7529 H         1 <0>         0.1312
     40 H3         -0.5239    2.9542    1.5813 H         1 <0>         0.1317
     41 H4          1.7223    2.1139    1.1562 H         1 <0>         0.1355
     42 H5          3.2360    0.1901    0.7541 H         1 <0>         0.1473
     43 H6          1.6320   -3.7506    0.6683 H         1 <0>         0.1377
     44 H7         -0.6144   -2.9101    1.0922 H         1 <0>         0.1372
     45 H8         -2.1280   -0.9865    1.4944 H         1 <0>         0.1341
     46 H9          5.6393   -2.2776    2.1368 H         1 <0>         0.4304
     47 H10         3.3716   -3.4286    3.1822 H         1 <0>         0.1037
     48 H11         4.0618   -4.6953    2.1395 H         1 <0>         0.1122
     49 H12         4.1091   -5.5283    4.7021 H         1 <0>         0.4077
     50 H13         6.3108   -7.0536    7.1352 H         1 <0>         0.1102
     51 H14         4.6211   -6.9239    6.5908 H         1 <0>         0.1049
     52 H15         3.9482   -7.7594    4.4155 H         1 <0>         0.1479
     53 H16         4.3946   -9.3705    2.6111 H         1 <0>         0.1406
     54 H17         8.4599   -9.6975    3.9342 H         1 <0>         0.1397
     55 H18         7.9956   -8.0779    5.7263 H         1 <0>         0.1495
     56 H19         8.6556  -10.8812    2.5516 H         1 <0>         0.4441
     57 H20         4.8760  -10.5777    1.3220 H         1 <0>         0.4444
     58 H21         5.9424  -11.5953    0.5159 H         1 <0>         0.4343
     59 H22         8.3237   -5.6236    8.3192 H         1 <0>         0.0758
     60 H23         8.1115   -5.3983    6.5638 H         1 <0>         0.0802
     61 H24        10.1943   -4.2954    7.4570 H         1 <0>         0.0789
     62 H25         9.0671   -3.1474    6.6941 H         1 <0>         0.0710
     63 H26         9.2627   -3.7078    9.6886 H         1 <0>         0.0666
     64 H27         9.9294   -2.2794    8.8623 H         1 <0>         0.0702
     65 H28         7.7314   -1.7538    9.8632 H         1 <0>         0.0799
     66 H29         7.6419   -1.6766    8.0866 H         1 <0>         0.0676
     67 H30         5.6996   -2.8981    8.9176 H         1 <0>         0.0938
     68 H31         6.7492   -3.9915    9.8557 H         1 <0>         0.0720
     69 H32         8.1291  -11.7709    1.2273 H         1 <0>         0.4342
@<TRIPOS>BOND
     1    1   10 ar
     2    1    2 ar
     3    1   39 1
     4    2    3 ar
     5    2   40 1
     6    3    4 ar
     7    3   41 1
     8    4    9 ar
     9    4    5 ar
    10    5    6 ar
    11    5   42 1
    12    6    7 ar
    13    6   11 1
    14    7    8 ar
    15    7   43 1
    16    8    9 ar
    17    8   44 1
    18    9   10 ar
    19   10   45 1
    20   11   12 2
    21   11   13 2
    22   11   14 1
    23   14   15 1
    24   14   46 1
    25   15   16 1
    26   15   47 1
    27   15   48 1
    28   16   17 2
    29   16   18 am
    30   18   19 1
    31   18   49 1
    32   19   20 1
    33   19   21 1
    34   19   31 1
    35   21   22 1
    36   21   50 1
    37   21   51 1
    38   22   27 ar
    39   22   23 ar
    40   23   24 ar
    41   23   52 1
    42   24   25 ar
    43   24   53 1
    44   25   26 ar
    45   25   28 1
    46   26   27 ar
    47   26   54 1
    48   27   55 1
    49   28   29 2
    50   28   30 1
    51   29   56 1
    52   29   69 1
    53   30   57 1
    54   30   58 1
    55   31   32 2
    56   31   33 am
    57   33   38 1
    58   33   34 1
    59   34   35 1
    60   34   59 1
    61   34   60 1
    62   35   36 1
    63   35   61 1
    64   35   62 1
    65   36   37 1
    66   36   63 1
    67   36   64 1
    68   37   38 1
    69   37   65 1
    70   37   66 1
    71   38   67 1
    72   38   68 1
