@<TRIPOS>MOLECULE
ZINC13603651
   22    23     0     0     0
SMALL
USER_CHARGES
6-amino-4-oxo-1H-quinoline-2-carboxylic acid
@<TRIPOS>ATOM
      1 C1          1.1542    3.1832    0.0081 C.ar      1 <0>        -0.1291
      2 C2         -0.0388    3.8689    0.0223 C.ar      1 <0>        -0.1317
      3 C3         -1.2432    3.1696    0.0296 C.ar      1 <0>         0.1519
      4 C4         -1.2273    1.7618    0.0174 C.ar      1 <0>        -0.1578
      5 C5         -0.0126    1.0758    0.0080 C.ar      1 <0>        -0.1105
      6 C6          1.1726    1.7883    0.0005 C.ar      1 <0>         0.1619
      7 N1          2.3939    1.1081   -0.0144 N.pl3     1 <0>        -0.8845
      8 C7         -2.5114    1.0417    0.0313 C.2       1 <0>         0.4155
      9 O1         -2.5492   -0.1771    0.0255 O.2       1 <0>        -0.5196
     10 C8         -3.7045    1.8115    0.0473 C.2       1 <0>        -0.3047
     11 C9         -3.6358    3.1674    0.0535 C.2       1 <0>         0.1802
     12 N2         -2.4469    3.8364    0.0448 N.pl3     1 <0>        -0.5835
     13 H1         -2.4501    4.8064    0.0497 H         1 <0>         0.4245
     14 C10        -4.8955    3.9474    0.0698 C.2       1 <0>         0.4879
     15 O2         -5.9651    3.3731    0.0778 O.co2     1 <0>        -0.5934
     16 H2          2.0854    3.7303    0.0025 H         1 <0>         0.1254
     17 H3         -0.0411    4.9489    0.0281 H         1 <0>         0.1327
     18 H4          0.0021   -0.0041    0.0020 H         1 <0>         0.1323
     19 H5          2.4089    0.1383   -0.0194 H         1 <0>         0.3963
     20 H6          3.2264    1.6061   -0.0196 H         1 <0>         0.3942
     21 H7         -4.6656    1.3189    0.0550 H         1 <0>         0.1530
     22 O3         -4.8540    5.2936    0.0758 O.co2     1 <0>        -0.7409
@<TRIPOS>BOND
     1    1    6 ar
     2    1    2 ar
     3    1   16 1
     4    2    3 ar
     5    2   17 1
     6    3   12 1
     7    3    4 ar
     8    4    5 ar
     9    4    8 1
    10    5    6 ar
    11    5   18 1
    12    6    7 1
    13    7   19 1
    14    7   20 1
    15    8    9 2
    16    8   10 1
    17   10   11 2
    18   10   21 1
    19   11   12 1
    20   11   14 1
    21   12   13 1
    22   14   15 2
    23   14   22 1
@<TRIPOS>MOLECULE
ZINC01903557
   33    35     0     0     0
SMALL
USER_CHARGES
2-hydroxyethylamino-nitro-BLAHdione
@<TRIPOS>ATOM
      1 C1         -0.6460   -6.0863   -2.4145 C.ar      1 <0>        -0.1329
      2 C2         -1.0443   -6.7940   -1.3166 C.ar      1 <0>        -0.0290
      3 C3         -1.4450   -6.1181   -0.1512 C.ar      1 <0>        -0.0809
      4 C4         -1.8624   -6.8012    1.0047 C.ar      1 <0>         0.0303
      5 C5         -2.2426   -6.1002    2.1128 C.ar      1 <0>        -0.0574
      6 C6         -2.2293   -4.7103    2.1357 C.ar      1 <0>         0.0270
      7 C7         -1.8239   -3.9990    1.0164 C.ar      1 <0>        -0.1366
      8 C8         -1.4270   -4.7077   -0.1405 C.ar      1 <0>         0.0335
      9 C9         -1.0126   -3.9921   -1.2865 C.ar      1 <0>        -0.1644
     10 C10        -0.6243   -4.6968   -2.4166 C.ar      1 <0>         0.0199
     11 C11        -1.0105   -2.5225   -1.2382 C.2       1 <0>         0.5473
     12 O1         -0.6607   -1.8860   -2.2137 O.2       1 <0>        -0.4923
     13 N1         -1.3898   -1.8777   -0.1186 N.am      1 <0>        -0.4073
     14 C12        -1.7912   -2.5292    0.9893 C.2       1 <0>         0.5842
     15 O2         -2.1283   -1.8987    1.9730 O.2       1 <0>        -0.4395
     16 N2         -1.3720   -0.5118   -0.1083 N.3       1 <0>        -0.4247
     17 C13         0.0021   -0.0041    0.0020 C.3       1 <0>         0.0331
     18 C14        -0.0187    1.5258    0.0104 C.3       1 <0>         0.0852
     19 O3         -0.6875    1.9866    1.1861 O.3       1 <0>        -0.5580
     20 N3         -2.6791   -6.8382    3.3194 N.pl3     1 <0>         0.0244
     21 O4         -3.0211   -6.2275    4.3163 O.2       1 <0>        -0.1409
     22 O5         -2.6965   -8.0560    3.3155 O.3       1 <0>        -0.1491
     23 H1         -0.3408   -6.6194   -3.3028 H         1 <0>         0.1516
     24 H2         -1.0510   -7.8737   -1.3437 H         1 <0>         0.1542
     25 H3         -1.8825   -7.8810    1.0159 H         1 <0>         0.1741
     26 H4         -2.5351   -4.1833    3.0274 H         1 <0>         0.1764
     27 H5         -0.3040   -4.1643   -3.2999 H         1 <0>         0.1550
     28 H6         -1.8311   -0.1380   -0.9254 H         1 <0>         0.3655
     29 H7          0.5883   -0.3548   -0.8473 H         1 <0>         0.0672
     30 H8          0.4501   -0.3665    0.9272 H         1 <0>         0.0902
     31 H9          1.0039    1.9031    0.0027 H         1 <0>         0.0622
     32 H10        -0.5459    1.8868   -0.8726 H         1 <0>         0.0513
     33 H11        -0.7381    2.9496    1.2579 H         1 <0>         0.3803
@<TRIPOS>BOND
     1    1   10 ar
     2    1    2 ar
     3    1   23 1
     4    2    3 ar
     5    2   24 1
     6    3    8 ar
     7    3    4 ar
     8    4    5 ar
     9    4   25 1
    10    5    6 ar
    11    5   20 1
    12    6    7 ar
    13    6   26 1
    14    7   14 1
    15    7    8 ar
    16    8    9 ar
    17    9   10 ar
    18    9   11 1
    19   10   27 1
    20   11   12 2
    21   11   13 am
    22   13   14 am
    23   13   16 1
    24   14   15 2
    25   16   17 1
    26   16   28 1
    27   17   18 1
    28   17   29 1
    29   17   30 1
    30   18   19 1
    31   18   31 1
    32   18   32 1
    33   19   33 1
    34   20   21 2
    35   20   22 1
