@<TRIPOS>MOLECULE
ZINC03872327
   63    65     0     0     0
SMALL
USER_CHARGES
N-(3-amino-3-imino-propyl)-4-[[4-[(4-formamido-1-methyl-pyrrole-2-carbonyl)amino]-1-methyl-pyrrole-2-carbonyl]amino]-1-methyl-pyrrole-2-carboxamide
@<TRIPOS>ATOM
      1 C1        -12.8897  -11.2873   -0.5657 C.3       1 <0>         0.0663
      2 N1        -13.2606   -9.8710   -0.6165 N.pl3     1 <0>        -0.4011
      3 C2        -14.5280   -9.3864   -0.6840 C.2       1 <0>        -0.0088
      4 C3        -14.4759   -8.0287   -0.7154 C.2       1 <0>         0.0529
      5 C4        -13.1260   -7.6516   -0.6718 C.2       1 <0>        -0.1340
      6 C5        -12.3829   -8.8112   -0.6045 C.2       1 <0>        -0.0483
      7 C6        -10.9205   -8.8994   -0.5388 C.2       1 <0>         0.5989
      8 O1        -10.3740   -9.9864   -0.5774 O.2       1 <0>        -0.5368
      9 N2        -10.1817   -7.7769   -0.4356 N.am      1 <0>        -0.6348
     10 C7         -8.7780   -7.8519   -0.4847 C.2       1 <0>         0.0660
     11 C8         -8.0173   -9.0201   -0.6369 C.2       1 <0>        -0.1310
     12 C9         -6.6905   -8.6436   -0.6343 C.2       1 <0>        -0.0512
     13 N3         -6.6447   -7.2766   -0.4839 N.pl3     1 <0>        -0.4015
     14 C10        -7.9160   -6.8045   -0.3990 C.2       1 <0>        -0.0035
     15 C11        -5.4268   -6.4641   -0.4296 C.3       1 <0>         0.0683
     16 C12        -5.5367   -9.5387   -0.7678 C.2       1 <0>         0.6031
     17 O2         -4.4133   -9.0763   -0.8453 O.2       1 <0>        -0.5424
     18 N4         -5.7200  -10.8735   -0.8047 N.am      1 <0>        -0.6351
     19 C13        -4.6088  -11.7358   -0.8208 C.2       1 <0>         0.0659
     20 C14        -3.2613  -11.3482   -0.8082 C.2       1 <0>        -0.1292
     21 C15        -2.5069  -12.5024   -0.8289 C.2       1 <0>        -0.0613
     22 N5         -3.3760  -13.5688   -0.8626 N.pl3     1 <0>        -0.3995
     23 C16        -4.6489  -13.0939   -0.8573 C.2       1 <0>         0.0025
     24 C17        -2.9921  -14.9821   -0.8982 C.3       1 <0>         0.0707
     25 C18        -1.0424  -12.5793   -0.8224 C.2       1 <0>         0.6041
     26 O3         -0.4891  -13.6572   -0.9368 O.2       1 <0>        -0.5393
     27 N6         -0.3091  -11.4562   -0.6897 N.am      1 <0>        -0.7237
     28 C19         1.1509  -11.5181   -0.7936 C.3       1 <0>         0.1067
     29 C20         1.7353  -10.1166   -0.6067 C.3       1 <0>        -0.1481
     30 C21         3.2372  -10.1802   -0.7135 C.cat     1 <0>         0.5537
     31 N7          3.9825   -9.0387   -0.5786 N.pl3     1 <0>        -0.7752
     32 N8        -15.5788   -7.1576   -0.7851 N.am      1 <0>        -0.6546
     33 C22       -15.3838   -5.8242   -0.8096 C.2       1 <0>         0.4925
     34 O4        -14.2576   -5.3751   -0.7715 O.2       1 <0>        -0.5409
     35 H1        -12.8352  -11.6853   -1.5790 H         1 <0>         0.0784
     36 H2        -11.9186  -11.3915   -0.0817 H         1 <0>         0.1062
     37 H3        -13.6393  -11.8390    0.0016 H         1 <0>         0.0837
     38 H4        -15.4287   -9.9819   -0.7083 H         1 <0>         0.1741
     39 H5        -12.7410   -6.6426   -0.6855 H         1 <0>         0.1689
     40 H6        -10.6180   -6.9173   -0.3276 H         1 <0>         0.4163
     41 H7         -8.3986  -10.0255   -0.7376 H         1 <0>         0.1695
     42 H8         -8.1955   -5.7680   -0.2808 H         1 <0>         0.1769
     43 H9         -5.2020   -6.0796   -1.4244 H         1 <0>         0.0776
     44 H10        -5.5764   -5.6306    0.2568 H         1 <0>         0.0839
     45 H11        -4.5961   -7.0774   -0.0808 H         1 <0>         0.1041
     46 H12        -6.6182  -11.2394   -0.8201 H         1 <0>         0.4173
     47 H13        -2.8850  -10.3361   -0.7845 H         1 <0>         0.1691
     48 H14        -5.5450  -13.6964   -0.8782 H         1 <0>         0.1785
     49 H15        -2.8013  -15.2809   -1.9289 H         1 <0>         0.0811
     50 H16        -2.0899  -15.1286   -0.3044 H         1 <0>         0.0974
     51 H17        -3.7996  -15.5884   -0.4878 H         1 <0>         0.0894
     52 H18        -0.7482  -10.6070   -0.5253 H         1 <0>         0.4139
     53 H19         1.5423  -12.1809   -0.0218 H         1 <0>         0.0870
     54 H20         1.4294  -11.8999   -1.7758 H         1 <0>         0.0859
     55 H21         1.3439   -9.4538   -1.3784 H         1 <0>         0.1480
     56 H22         1.4568   -9.7348    0.3756 H         1 <0>         0.1476
     57 H23         4.7835  -11.4556   -1.0174 H         1 <0>         0.4432
     58 H24         3.5436   -8.1894   -0.4142 H         1 <0>         0.4479
     59 H25         4.9492   -9.0795   -0.6474 H         1 <0>         0.4311
     60 H26       -16.4793   -7.5167   -0.8155 H         1 <0>         0.4128
     61 H27       -16.2301   -5.1557   -0.8676 H         1 <0>         0.1456
     62 N9          3.7711  -11.3607   -0.9371 N.pl3     1 <0>        -0.7534
     63 H28         3.1690  -12.1871   -1.0309 H         1 <0>         0.4664
@<TRIPOS>BOND
     1    1    2 1
     2    1   35 1
     3    1   36 1
     4    1   37 1
     5    2    6 1
     6    2    3 1
     7    3    4 2
     8    3   38 1
     9    4    5 1
    10    4   32 1
    11    5    6 2
    12    5   39 1
    13    6    7 1
    14    7    8 2
    15    7    9 am
    16    9   10 1
    17    9   40 1
    18   10   14 2
    19   10   11 1
    20   11   12 2
    21   11   41 1
    22   12   13 1
    23   12   16 1
    24   13   14 1
    25   13   15 1
    26   14   42 1
    27   15   43 1
    28   15   44 1
    29   15   45 1
    30   16   17 2
    31   16   18 am
    32   18   19 1
    33   18   46 1
    34   19   23 2
    35   19   20 1
    36   20   21 2
    37   20   47 1
    38   21   22 1
    39   21   25 1
    40   22   23 1
    41   22   24 1
    42   23   48 1
    43   24   49 1
    44   24   50 1
    45   24   51 1
    46   25   26 2
    47   25   27 am
    48   27   28 1
    49   27   52 1
    50   28   29 1
    51   28   53 1
    52   28   54 1
    53   29   30 1
    54   29   55 1
    55   29   56 1
    56   30   31 1
    57   30   62 2
    58   31   58 1
    59   31   59 1
    60   32   33 am
    61   32   60 1
    62   33   34 2
    63   33   61 1
    64   57   62 1
    65   62   63 1
@<TRIPOS>MOLECULE
ZINC35018256
   55    59     0     0     0
SMALL
NO_CHARGES

@<TRIPOS>ATOM
      1 C1         -0.0187    1.5258    0.0104 C.3       1 <0>        -0.1650
      2 C2          0.0021   -0.0041    0.0020 C.3       1 <0>        -0.1384
      3 C3         -1.4333   -0.5336    0.0129 C.3       1 <0>         0.1544
      4 C4         -1.4160   -2.0425   -0.0128 C.2       1 <0>        -0.0965
      5 C5         -1.1021   -2.7297    1.1701 C.2       1 <0>        -0.0133
      6 C6         -1.0686   -4.0869    1.1700 C.2       1 <0>        -0.0937
      7 N1         -1.0939   -4.7478   -0.0711 N.4       1 <0>        -0.2818
      8 C7         -1.6190   -4.1126   -1.1852 C.2       1 <0>         0.3228
      9 O1         -1.9961   -4.8200   -2.2630 O.3       1 <0>        -0.5560
     10 C8         -1.7463   -2.7447   -1.1648 C.2       1 <0>        -0.2414
     11 C9         -2.2538   -2.0551   -2.4027 C.3       1 <0>         0.1565
     12 O2         -1.9180   -0.6669   -2.3787 O.3       1 <0>        -0.3679
     13 C10        -2.1669   -0.0344   -1.2108 C.2       1 <0>         0.4751
     14 O3         -2.9424    0.8900   -1.1474 O.2       1 <0>        -0.4374
     15 C11        -1.7675   -6.0294    0.1826 C.3       1 <0>         0.0553
     16 C12        -1.3840   -6.3467    1.6166 C.ar      1 <0>        -0.1526
     17 C13        -0.9672   -5.1252    2.2002 C.ar      1 <0>         0.1224
     18 N2         -0.5765   -5.0702    3.4680 N.ar      1 <0>        -0.4138
     19 C14        -0.5504   -6.1537    4.2333 C.ar      1 <0>         0.0783
     20 C15        -0.1315   -6.0947    5.5808 C.2       1 <0>        -0.0402
     21 C16        -0.1128   -7.2211    6.3320 C.2       1 <0>        -0.1733
     22 C17        -0.5054   -8.4673    5.8031 C.2       1 <0>         0.3299
     23 C18        -0.9290   -8.5836    4.4824 C.2       1 <0>        -0.3674
     24 C19        -0.9630   -7.4466    3.6753 C.ar      1 <0>         0.0100
     25 C20        -1.3846   -7.4985    2.3291 C.ar      1 <0>        -0.1086
     26 C21        -1.3461   -9.9226    3.9309 C.3       1 <0>         0.0832
     27 N3         -2.7861  -10.1149    4.1487 N.4       1 <0>        -0.3845
     28 C22        -3.5363   -9.1222    3.3678 C.3       1 <0>        -0.0485
     29 C23        -3.1699  -11.4666    3.7203 C.3       1 <0>        -0.0445
     30 O4         -0.4701   -9.5525    6.5806 O.2       1 <0>        -0.6524
     31 O5         -2.1025   -0.0795    1.1910 O.3       1 <0>        -0.5303
     32 H1          1.0039    1.9031    0.0027 H         1 <0>         0.0715
     33 H2         -0.5459    1.8868   -0.8726 H         1 <0>         0.0577
     34 H3         -0.5289    1.8773    0.9072 H         1 <0>         0.0623
     35 H4          0.5123   -0.3556   -0.8948 H         1 <0>         0.0855
     36 H5          0.5293   -0.3651    0.8851 H         1 <0>         0.0910
     37 H6         -0.8887   -2.1817    2.0759 H         1 <0>         0.1563
     38 H7         -1.8050   -2.5181   -3.2815 H         1 <0>         0.1235
     39 H8         -3.3373   -2.1619   -2.4550 H         1 <0>         0.0771
     40 H9         -2.8480   -5.9213    0.0885 H         1 <0>         0.1330
     41 H10        -1.3967   -6.7994   -0.4940 H         1 <0>         0.1333
     42 H11         0.1731   -5.1523    6.0115 H         1 <0>         0.1319
     43 H12         0.2103   -7.1633    7.3609 H         1 <0>         0.1274
     44 H13        -1.6986   -8.4294    1.8805 H         1 <0>         0.1279
     45 H14        -1.1323   -9.9581    2.8627 H         1 <0>         0.1073
     46 H15        -0.7931  -10.7129    4.4386 H         1 <0>         0.1272
     47 H16        -3.2514   -8.1192    3.6857 H         1 <0>         0.1236
     48 H17        -3.3092   -9.2459    2.3089 H         1 <0>         0.1119
     49 H18        -4.6047   -9.2649    3.5294 H         1 <0>         0.1109
     50 H19        -2.6133  -12.2031    4.2997 H         1 <0>         0.1189
     51 H20        -4.2384  -11.6092    3.8819 H         1 <0>         0.1130
     52 H21        -2.9429  -11.5903    2.6614 H         1 <0>         0.1129
     53 H22        -2.1540    0.8831    1.2678 H         1 <0>         0.3883
     54 H23        -2.9962  -10.0003    5.1289 H         1 <0>         0.4267
     55 H24        -0.1383   -4.9834   -0.2934 H         1 <0>         0.4005
@<TRIPOS>BOND
     1    1    2 1
     2    1   32 1
     3    1   33 1
     4    1   34 1
     5    2    3 1
     6    2   35 1
     7    2   36 1
     8    3   13 1
     9    3    4 1
    10    3   31 1
    11    4   10 1
    12    4    5 2
    13    5    6 1
    14    5   37 1
    15    6   17 2
    16    6    7 1
    17    7    8 1
    18    7   15 1
    19    7   55 1
    20    8    9 1
    21    8   10 2
    22   10   11 1
    23   11   12 1
    24   11   38 1
    25   11   39 1
    26   12   13 1
    27   13   14 2
    28   15   16 1
    29   15   40 1
    30   15   41 1
    31   16   25 ar
    32   16   17 ar
    33   17   18 ar
    34   18   19 ar
    35   19   24 ar
    36   19   20 1
    37   20   21 2
    38   20   42 1
    39   21   22 1
    40   21   43 1
    41   22   23 1
    42   22   30 2
    43   23   24 2
    44   23   26 1
    45   24   25 ar
    46   25   44 1
    47   26   27 1
    48   26   45 1
    49   26   46 1
    50   27   28 1
    51   27   29 1
    52   27   54 1
    53   28   47 1
    54   28   48 1
    55   28   49 1
    56   29   50 1
    57   29   51 1
    58   29   52 1
    59   31   53 1
@<TRIPOS>MOLECULE
ZINC35018256
   54    58     0     0     0
SMALL
NO_CHARGES

@<TRIPOS>ATOM
      1 C1         -0.0187    1.5258    0.0104 C.3       1 <0>        -0.1656
      2 C2          0.0021   -0.0041    0.0020 C.3       1 <0>        -0.1416
      3 C3         -1.4333   -0.5336    0.0129 C.3       1 <0>         0.1280
      4 C4         -1.4160   -2.0425   -0.0128 C.2       1 <0>         0.1061
      5 C5         -1.1021   -2.7297    1.1701 C.2       1 <0>        -0.1485
      6 C6         -1.0686   -4.0869    1.1700 C.2       1 <0>         0.1603
      7 N1         -1.0939   -4.7478   -0.0711 N.4       1 <0>        -0.3480
      8 C7         -1.6190   -4.1126   -1.1852 C.2       1 <0>         0.4376
      9 O1         -1.9961   -4.8200   -2.2630 O.3       1 <0>        -0.4561
     10 C8         -1.7463   -2.7447   -1.1648 C.2       1 <0>        -0.2798
     11 C9         -2.2538   -2.0551   -2.4027 C.3       1 <0>         0.1482
     12 O2         -1.9180   -0.6669   -2.3787 O.3       1 <0>        -0.3553
     13 C10        -2.1669   -0.0344   -1.2108 C.2       1 <0>         0.4690
     14 O3         -2.9424    0.8900   -1.1474 O.2       1 <0>        -0.4105
     15 C11        -1.7675   -6.0294    0.1826 C.3       1 <0>         0.0552
     16 C12        -1.3840   -6.3467    1.6166 C.ar      1 <0>        -0.1517
     17 C13        -0.9672   -5.1252    2.2002 C.ar      1 <0>        -0.0114
     18 N2         -0.5765   -5.0702    3.4680 N.ar      1 <0>        -0.3636
     19 C14        -0.5504   -6.1537    4.2333 C.ar      1 <0>         0.0845
     20 C15        -0.1315   -6.0947    5.5808 C.2       1 <0>        -0.0356
     21 C16        -0.1128   -7.2211    6.3320 C.2       1 <0>        -0.1690
     22 C17        -0.5054   -8.4673    5.8031 C.2       1 <0>         0.3322
     23 C18        -0.9290   -8.5836    4.4824 C.2       1 <0>        -0.2054
     24 C19        -0.9630   -7.4466    3.6753 C.ar      1 <0>         0.0095
     25 C20        -1.3846   -7.4985    2.3291 C.ar      1 <0>        -0.0555
     26 C21        -1.3461   -9.9226    3.9309 C.3       1 <0>         0.1148
     27 N3         -2.7861  -10.1149    4.1487 N.3       1 <0>        -0.5429
     28 C22        -3.2759  -11.2931    3.4208 C.3       1 <0>         0.0226
     29 C23        -3.0929  -10.2162    5.5817 C.3       1 <0>         0.0334
     30 O4         -0.4701   -9.5525    6.5806 O.2       1 <0>        -0.5779
     31 O5         -2.1025   -0.0795    1.1910 O.3       1 <0>        -0.5199
     32 H1          1.0039    1.9031    0.0027 H         1 <0>         0.0804
     33 H2         -0.5459    1.8868   -0.8726 H         1 <0>         0.0619
     34 H3         -0.5289    1.8773    0.9072 H         1 <0>         0.0674
     35 H4          0.5123   -0.3556   -0.8948 H         1 <0>         0.0921
     36 H5          0.5293   -0.3651    0.8851 H         1 <0>         0.1010
     37 H6         -0.8887   -2.1817    2.0759 H         1 <0>         0.1897
     38 H7         -1.8050   -2.5181   -3.2815 H         1 <0>         0.1374
     39 H8         -3.3373   -2.1619   -2.4550 H         1 <0>         0.0965
     40 H9         -2.8480   -5.9213    0.0885 H         1 <0>         0.1491
     41 H10        -1.3967   -6.7994   -0.4940 H         1 <0>         0.1545
     42 H11         0.1731   -5.1523    6.0115 H         1 <0>         0.1383
     43 H12         0.2103   -7.1633    7.3609 H         1 <0>         0.1358
     44 H13        -1.6986   -8.4294    1.8805 H         1 <0>         0.1464
     45 H14        -1.1323   -9.9581    2.8627 H         1 <0>         0.0696
     46 H15        -0.7931  -10.7129    4.4386 H         1 <0>         0.0519
     47 H16        -2.7481  -12.1808    3.7694 H         1 <0>         0.0251
     48 H17        -4.3445  -11.4122    3.5995 H         1 <0>         0.0666
     49 H18        -3.0985  -11.1606    2.3536 H         1 <0>         0.0629
     50 H19        -2.7824   -9.3008    6.0854 H         1 <0>         0.0698
     51 H20        -4.1654  -10.3582    5.7145 H         1 <0>         0.0557
     52 H21        -2.5584  -11.0650    6.0086 H         1 <0>         0.0327
     53 H22        -2.1540    0.8831    1.2678 H         1 <0>         0.4034
     54 H23        -0.1383   -4.9834   -0.2934 H         1 <0>         0.4488
@<TRIPOS>BOND
     1    1    2 1
     2    1   32 1
     3    1   33 1
     4    1   34 1
     5    2    3 1
     6    2   35 1
     7    2   36 1
     8    3   13 1
     9    3    4 1
    10    3   31 1
    11    4   10 1
    12    4    5 2
    13    5    6 1
    14    5   37 1
    15    6   17 2
    16    6    7 1
    17    7    8 1
    18    7   15 1
    19    7   54 1
    20    8    9 1
    21    8   10 2
    22   10   11 1
    23   11   12 1
    24   11   38 1
    25   11   39 1
    26   12   13 1
    27   13   14 2
    28   15   16 1
    29   15   40 1
    30   15   41 1
    31   16   25 ar
    32   16   17 ar
    33   17   18 ar
    34   18   19 ar
    35   19   24 ar
    36   19   20 1
    37   20   21 2
    38   20   42 1
    39   21   22 1
    40   21   43 1
    41   22   23 1
    42   22   30 2
    43   23   24 2
    44   23   26 1
    45   24   25 ar
    46   25   44 1
    47   26   27 1
    48   26   45 1
    49   26   46 1
    50   27   28 1
    51   27   29 1
    52   28   47 1
    53   28   48 1
    54   28   49 1
    55   29   50 1
    56   29   51 1
    57   29   52 1
    58   31   53 1
@<TRIPOS>MOLECULE
ZINC35018256
   54    58     0     0     0
SMALL
USER_CHARGES

@<TRIPOS>ATOM
      1 C1         -0.0187    1.5258    0.0104 C.3       1 <0>        -0.1661
      2 C2          0.0021   -0.0041    0.0020 C.3       1 <0>        -0.1434
      3 C3          0.7182   -0.4975   -1.2568 C.3       1 <0>         0.1362
      4 C4          0.7571   -2.0049   -1.2585 C.2       1 <0>         0.0715
      5 C5         -0.4188   -2.7125   -1.4876 C.2       1 <0>        -0.1274
      6 C6         -0.4023   -4.0989   -1.4819 C.2       1 <0>         0.2856
      7 C7         -1.5040   -5.0666   -1.6951 C.ar      1 <0>        -0.0252
      8 C8         -0.9740   -6.3632   -1.5851 C.ar      1 <0>        -0.1244
      9 C9         -1.7651   -7.4591   -1.7353 C.ar      1 <0>        -0.0934
     10 C10        -3.1340   -7.2557   -2.0042 C.ar      1 <0>         0.0126
     11 C11        -4.0223   -8.3216   -2.1723 C.2       1 <0>        -0.2323
     12 C12        -5.3600   -8.0546   -2.4350 C.2       1 <0>         0.3360
     13 O1         -6.2154   -9.0705   -2.5965 O.2       1 <0>        -0.5945
     14 C13        -5.8289   -6.7310   -2.5333 C.2       1 <0>        -0.1672
     15 C14        -4.9993   -5.6706   -2.3771 C.2       1 <0>        -0.0416
     16 C15        -3.6315   -5.8817   -2.1084 C.ar      1 <0>         0.0703
     17 N1         -2.7890   -4.8649   -1.9493 N.ar      1 <0>        -0.3655
     18 C16        -3.5346   -9.7438   -2.0702 C.3       1 <0>         0.1261
     19 N2         -3.6413  -10.1993   -0.6777 N.3       1 <0>        -0.5360
     20 C17        -3.4019  -11.6451   -0.5769 C.3       1 <0>         0.0267
     21 C18        -2.7236   -9.4518    0.1925 C.3       1 <0>         0.0247
     22 C19         0.4978   -6.2062   -1.2965 C.3       1 <0>         0.1247
     23 N3          0.7616   -4.7615   -1.2517 N.pl3     1 <0>        -0.4062
     24 C20         1.9078   -4.0856   -1.0322 C.2       1 <0>         0.4309
     25 C21         1.9314   -2.6965   -1.0358 C.2       1 <0>        -0.2603
     26 C22         3.2439   -1.9938   -0.8126 C.3       1 <0>         0.1288
     27 O2          3.0318   -0.6193   -0.4872 O.3       1 <0>        -0.3485
     28 C23         2.1374    0.0244   -1.2704 C.2       1 <0>         0.4695
     29 O3          2.4567    0.9719   -1.9488 O.2       1 <0>        -0.4045
     30 O4          3.0497   -4.7693   -0.8052 O.3       1 <0>        -0.4397
     31 O5          0.0250   -0.0316   -2.4163 O.3       1 <0>        -0.5193
     32 H1          1.0039    1.9031    0.0027 H         1 <0>         0.0605
     33 H2         -0.5459    1.8868   -0.8726 H         1 <0>         0.0676
     34 H3         -0.5289    1.8773    0.9072 H         1 <0>         0.0805
     35 H4          0.5293   -0.3651    0.8851 H         1 <0>         0.0913
     36 H5         -1.0205   -0.3814    0.0098 H         1 <0>         0.1023
     37 H6         -1.3425   -2.1831   -1.6692 H         1 <0>         0.1871
     38 H7         -1.3569   -8.4554   -1.6514 H         1 <0>         0.1386
     39 H8         -6.8747   -6.5562   -2.7385 H         1 <0>         0.1312
     40 H9         -5.3855   -4.6653   -2.4583 H         1 <0>         0.1333
     41 H10        -4.1433  -10.3834   -2.7093 H         1 <0>         0.0869
     42 H11        -2.4940   -9.7949   -2.3905 H         1 <0>         0.0258
     43 H12        -2.4014  -11.8742   -0.9439 H         1 <0>         0.0189
     44 H13        -3.4869  -11.9558    0.4644 H         1 <0>         0.0647
     45 H14        -4.1397  -12.1782   -1.1765 H         1 <0>         0.0701
     46 H15        -2.9684   -8.3904    0.1522 H         1 <0>         0.0692
     47 H16        -2.8230   -9.8089    1.2175 H         1 <0>         0.0612
     48 H17        -1.6986   -9.6014   -0.1466 H         1 <0>         0.0163
     49 H18         0.7410   -6.6606   -0.3361 H         1 <0>         0.1348
     50 H19         1.0856   -6.6691   -2.0892 H         1 <0>         0.1344
     51 H20         3.7760   -2.4786    0.0059 H         1 <0>         0.1315
     52 H21         3.8450   -2.0594   -1.7195 H         1 <0>         0.1029
     53 H22         3.8223   -4.2067   -0.6579 H         1 <0>         0.4399
     54 H23        -0.0311    0.9317   -2.4804 H         1 <0>         0.4032
@<TRIPOS>BOND
     1    1    2 1
     2    1   32 1
     3    1   33 1
     4    1   34 1
     5    2    3 1
     6    2   35 1
     7    2   36 1
     8    3   28 1
     9    3    4 1
    10    3   31 1
    11    4   25 1
    12    4    5 2
    13    5    6 1
    14    5   37 1
    15    6   23 1
    16    6    7 2
    17    7   17 ar
    18    7    8 ar
    19    8    9 ar
    20    8   22 1
    21    9   10 ar
    22    9   38 1
    23   10   16 ar
    24   10   11 2
    25   11   12 1
    26   11   18 1
    27   12   13 2
    28   12   14 1
    29   14   15 2
    30   14   39 1
    31   15   16 1
    32   15   40 1
    33   16   17 ar
    34   18   19 1
    35   18   41 1
    36   18   42 1
    37   19   20 1
    38   19   21 1
    39   20   43 1
    40   20   44 1
    41   20   45 1
    42   21   46 1
    43   21   47 1
    44   21   48 1
    45   22   23 1
    46   22   49 1
    47   22   50 1
    48   23   24 1
    49   24   25 2
    50   24   30 1
    51   25   26 1
    52   26   27 1
    53   26   51 1
    54   26   52 1
    55   27   28 1
    56   28   29 2
    57   30   53 1
    58   31   54 1
@<TRIPOS>MOLECULE
ZINC35018256
   53    57     0     0     0
SMALL
NO_CHARGES

@<TRIPOS>ATOM
      1 C1         -0.0187    1.5258    0.0104 C.3       1 <0>        -0.1386
      2 C2          0.0021   -0.0041    0.0020 C.3       1 <0>        -0.1177
      3 C3          0.7182   -0.4975   -1.2568 C.3       1 <0>         0.1681
      4 C4          0.7553   -2.0062   -1.2592 C.2       1 <0>         0.0796
      5 C5         -0.4153   -2.7052   -1.5925 C.2       1 <0>         0.0458
      6 C6         -0.4108   -4.0628   -1.5905 C.2       1 <0>         0.0021
      7 N1          0.6870   -4.7185   -1.0052 N.4       1 <0>        -0.3378
      8 C7          1.9043   -4.0665   -0.8901 C.2       1 <0>         0.4419
      9 O1          3.0372   -4.7603   -0.6920 O.3       1 <0>        -0.4448
     10 C8          1.9290   -2.6959   -0.9832 C.2       1 <0>        -0.2534
     11 C9          3.2440   -1.9894   -0.7899 C.3       1 <0>         0.1527
     12 O2          3.0337   -0.6102   -0.4835 O.3       1 <0>        -0.3840
     13 C10         2.1368    0.0243   -1.2701 C.2       1 <0>         0.4571
     14 O3          2.4550    0.9676   -1.9548 O.2       1 <0>        -0.4164
     15 C11         0.8238   -5.9837   -1.7409 C.3       1 <0>         0.0561
     16 C12        -0.6047   -6.3156   -2.1321 C.ar      1 <0>        -0.1858
     17 C13        -1.3375   -5.1069   -2.0386 C.ar      1 <0>         0.1866
     18 N2         -2.6316   -5.0662   -2.3330 N.ar      1 <0>        -0.4104
     19 C14        -3.2905   -6.1527   -2.7147 C.ar      1 <0>         0.1992
     20 C15        -4.6678   -6.1089   -3.0245 C.2       1 <0>        -0.0606
     21 C16        -5.3102   -7.2380   -3.4064 C.2       1 <0>        -0.1169
     22 C17        -4.6365   -8.4721   -3.5069 C.2       1 <0>         0.2989
     23 C18        -3.2792   -8.5731   -3.2157 C.2       1 <0>        -0.0203
     24 C19        -2.5809   -7.4329   -2.8188 C.ar      1 <0>        -0.0988
     25 C20        -1.2036   -7.4695   -2.5118 C.ar      1 <0>         0.0082
     26 C21        -2.5723   -9.8993   -3.3278 C.3       1 <0>         0.0791
     27 N3         -2.0383  -10.0561   -4.6873 N.3       1 <0>        -0.5303
     28 C22        -0.9804   -9.0725   -4.9541 C.3       1 <0>         0.0088
     29 C23        -1.5523  -11.4248   -4.9074 C.3       1 <0>         0.0230
     30 O4         -5.3106   -9.5606   -3.8867 O.2       1 <0>        -0.4234
     31 O5          0.0252   -0.0308   -2.4161 O.3       1 <0>        -0.7666
     32 H1          1.0039    1.9031    0.0027 H         1 <0>         0.0459
     33 H2         -0.5459    1.8868   -0.8726 H         1 <0>         0.0737
     34 H3         -0.5289    1.8773    0.9072 H         1 <0>         0.0492
     35 H4          0.5293   -0.3651    0.8851 H         1 <0>         0.0484
     36 H5         -1.0205   -0.3814    0.0098 H         1 <0>         0.0679
     37 H6         -1.3149   -2.1658   -1.8496 H         1 <0>         0.2053
     38 H7          3.7880   -2.4605    0.0288 H         1 <0>         0.1270
     39 H8          3.8323   -2.0687   -1.7040 H         1 <0>         0.0885
     40 H9          1.4436   -5.8481   -2.6272 H         1 <0>         0.1577
     41 H10         1.2365   -6.7603   -1.0969 H         1 <0>         0.1628
     42 H11        -5.2077   -5.1759   -2.9573 H         1 <0>         0.1652
     43 H12        -6.3636   -7.1919   -3.6399 H         1 <0>         0.1625
     44 H13        -0.6436   -8.3906   -2.5781 H         1 <0>         0.1633
     45 H14        -1.7535   -9.9365   -2.6093 H         1 <0>         0.0581
     46 H15        -3.2760  -10.7050   -3.1187 H         1 <0>         0.1124
     47 H16        -0.1675   -9.2108   -4.2412 H         1 <0>         0.0300
     48 H17        -0.6027   -9.2109   -5.9672 H         1 <0>         0.0813
     49 H18        -1.3860   -8.0659   -4.8519 H         1 <0>         0.0660
     50 H19        -2.3736  -12.1284   -4.7711 H         1 <0>         0.0779
     51 H20        -1.1625  -11.5133   -5.9214 H         1 <0>         0.0782
     52 H21        -0.7601  -11.6483   -4.1928 H         1 <0>         0.0314
     53 H22         0.4056   -4.9772   -0.0714 H         1 <0>         0.4462
@<TRIPOS>BOND
     1    1    2 1
     2    1   32 1
     3    1   33 1
     4    1   34 1
     5    2    3 1
     6    2   35 1
     7    2   36 1
     8    3   13 1
     9    3    4 1
    10    3   31 1
    11    4   10 1
    12    4    5 2
    13    5    6 1
    14    5   37 1
    15    6   17 2
    16    6    7 1
    17    7    8 1
    18    7   15 1
    19    7   53 1
    20    8    9 1
    21    8   10 2
    22   10   11 1
    23   11   12 1
    24   11   38 1
    25   11   39 1
    26   12   13 1
    27   13   14 2
    28   15   16 1
    29   15   40 1
    30   15   41 1
    31   16   25 ar
    32   16   17 ar
    33   17   18 ar
    34   18   19 ar
    35   19   24 ar
    36   19   20 1
    37   20   21 2
    38   20   42 1
    39   21   22 1
    40   21   43 1
    41   22   23 1
    42   22   30 2
    43   23   24 2
    44   23   26 1
    45   24   25 ar
    46   25   44 1
    47   26   27 1
    48   26   45 1
    49   26   46 1
    50   27   28 1
    51   27   29 1
    52   28   47 1
    53   28   48 1
    54   28   49 1
    55   29   50 1
    56   29   51 1
    57   29   52 1
@<TRIPOS>MOLECULE
ZINC03979155
   43    47     0     0     0
SMALL
USER_CHARGES

@<TRIPOS>ATOM
      1 C1         -0.0187    1.5258    0.0104 C.3       1 <0>        -0.1645
      2 C2          0.0021   -0.0041    0.0020 C.3       1 <0>        -0.1411
      3 C3          0.7182   -0.4975   -1.2568 C.3       1 <0>         0.1371
      4 C4          0.7543   -2.0054   -1.2595 C.2       1 <0>         0.0372
      5 C5         -0.4343   -2.7086   -1.4927 C.2       1 <0>        -0.1446
      6 C6         -0.4350   -4.0874   -1.4933 C.2       1 <0>         0.1919
      7 N1          0.7269   -4.7674   -1.2612 N.am      1 <0>        -0.4954
      8 C7          1.8758   -4.1021   -1.0337 C.2       1 <0>         0.5492
      9 O1          2.9020   -4.7270   -0.8197 O.2       1 <0>        -0.5313
     10 C8          1.9074   -2.6924   -1.0408 C.2       1 <0>        -0.2297
     11 C9          3.2271   -2.0023   -0.8208 C.3       1 <0>         0.1435
     12 O2          3.0310   -0.6265   -0.4915 O.3       1 <0>        -0.3605
     13 C10         2.1371    0.0245   -1.2700 C.2       1 <0>         0.4718
     14 O3          2.4565    0.9758   -1.9429 O.2       1 <0>        -0.4236
     15 C11         0.4469   -6.2085   -1.3158 C.3       1 <0>         0.1424
     16 C12        -1.0248   -6.3479   -1.6084 C.ar      1 <0>        -0.1526
     17 C13        -1.5436   -5.0454   -1.7131 C.ar      1 <0>         0.1692
     18 N2         -2.8269   -4.8456   -1.9689 N.ar      1 <0>        -0.4255
     19 C14        -3.6704   -5.8646   -2.1341 C.ar      1 <0>         0.1281
     20 C15        -5.0339   -5.6366   -2.4035 C.ar      1 <0>        -0.0658
     21 C16        -5.8762   -6.6904   -2.5681 C.ar      1 <0>        -0.1196
     22 C17        -5.4112   -8.0063   -2.4749 C.ar      1 <0>         0.1283
     23 C18        -4.0946   -8.2655   -2.2149 C.ar      1 <0>        -0.1291
     24 C19        -3.2004   -7.2000   -2.0392 C.ar      1 <0>        -0.0700
     25 C20        -1.8354   -7.4273   -1.7685 C.ar      1 <0>        -0.0235
     26 O4         -6.2781   -9.0385   -2.6444 O.3       1 <0>        -0.4951
     27 O5          0.0254   -0.0304   -2.4160 O.3       1 <0>        -0.5234
     28 H1          1.0039    1.9031    0.0027 H         1 <0>         0.0597
     29 H2         -0.5459    1.8868   -0.8726 H         1 <0>         0.0643
     30 H3         -0.5289    1.8773    0.9072 H         1 <0>         0.0751
     31 H4          0.5293   -0.3651    0.8851 H         1 <0>         0.0890
     32 H5         -1.0205   -0.3814    0.0098 H         1 <0>         0.0967
     33 H6         -1.3526   -2.1695   -1.6728 H         1 <0>         0.1639
     34 H7          3.7577   -2.4942   -0.0056 H         1 <0>         0.1352
     35 H8          3.8243   -2.0718   -1.7301 H         1 <0>         0.0922
     36 H9          1.0315   -6.6730   -2.1099 H         1 <0>         0.1181
     37 H10         0.6829   -6.6716   -0.3577 H         1 <0>         0.1187
     38 H11        -5.4092   -4.6267   -2.4788 H         1 <0>         0.1483
     39 H12        -6.9207   -6.5089   -2.7743 H         1 <0>         0.1440
     40 H13        -3.7452   -9.2850   -2.1451 H         1 <0>         0.1438
     41 H14        -1.4447   -8.4311   -1.6908 H         1 <0>         0.1543
     42 H15        -6.3584   -9.3384   -3.5603 H         1 <0>         0.3985
     43 H16        -0.0301    0.9329   -2.4796 H         1 <0>         0.3949
@<TRIPOS>BOND
     1    1    2 1
     2    1   28 1
     3    1   29 1
     4    1   30 1
     5    2    3 1
     6    2   31 1
     7    2   32 1
     8    3   13 1
     9    3    4 1
    10    3   27 1
    11    4   10 2
    12    4    5 1
    13    5    6 2
    14    5   33 1
    15    6   17 1
    16    6    7 1
    17    7    8 am
    18    7   15 1
    19    8    9 2
    20    8   10 1
    21   10   11 1
    22   11   12 1
    23   11   34 1
    24   11   35 1
    25   12   13 1
    26   13   14 2
    27   15   16 1
    28   15   36 1
    29   15   37 1
    30   16   25 ar
    31   16   17 ar
    32   17   18 ar
    33   18   19 ar
    34   19   24 ar
    35   19   20 ar
    36   20   21 ar
    37   20   38 1
    38   21   22 ar
    39   21   39 1
    40   22   23 ar
    41   22   26 1
    42   23   24 ar
    43   23   40 1
    44   24   25 ar
    45   25   41 1
    46   26   42 1
    47   27   43 1
@<TRIPOS>MOLECULE
ZINC37866089
   44    48     0     0     0
SMALL
USER_CHARGES

@<TRIPOS>ATOM
      1 C1         -0.0187    1.5258    0.0104 C.3       1 <0>        -0.1645
      2 C2          0.0021   -0.0041    0.0020 C.3       1 <0>        -0.1411
      3 C3          0.7182   -0.4975   -1.2568 C.3       1 <0>         0.1371
      4 C4          0.7539   -2.0054   -1.2597 C.2       1 <0>         0.0374
      5 C5         -0.4350   -2.7089   -1.4925 C.2       1 <0>        -0.1445
      6 C6         -0.4361   -4.0873   -1.4929 C.2       1 <0>         0.1917
      7 N1          0.7259   -4.7670   -1.2609 N.am      1 <0>        -0.4947
      8 C7          1.8750   -4.1021   -1.0337 C.2       1 <0>         0.5490
      9 O1          2.9009   -4.7273   -0.8196 O.2       1 <0>        -0.5326
     10 C8          1.9069   -2.6922   -1.0411 C.2       1 <0>        -0.2304
     11 C9          3.2270   -2.0025   -0.8221 C.3       1 <0>         0.1437
     12 O2          3.0314   -0.6268   -0.4922 O.3       1 <0>        -0.3606
     13 C10         2.1371    0.0245   -1.2699 C.2       1 <0>         0.4718
     14 O3          2.4561    0.9768   -1.9418 O.2       1 <0>        -0.4239
     15 C11         0.4459   -6.2080   -1.3151 C.3       1 <0>         0.1455
     16 C12        -1.0258   -6.3473   -1.6073 C.ar      1 <0>        -0.1750
     17 C13        -1.5447   -5.0462   -1.7121 C.ar      1 <0>         0.1822
     18 N2         -2.8288   -4.8480   -1.9671 N.ar      1 <0>        -0.4351
     19 C14        -3.6716   -5.8693   -2.1312 C.ar      1 <0>         0.1779
     20 C15        -5.0343   -5.6436   -2.3997 C.ar      1 <0>        -0.1514
     21 C16        -5.8810   -6.6967   -2.5638 C.ar      1 <0>        -0.0375
     22 C17        -5.4265   -8.0084   -2.4717 C.ar      1 <0>        -0.2090
     23 C18        -4.0982   -8.2751   -2.2102 C.ar      1 <0>         0.2429
     24 C19        -3.1992   -7.2028   -2.0354 C.ar      1 <0>        -0.1366
     25 C20        -1.8368   -7.4285   -1.7663 C.ar      1 <0>        -0.0102
     26 N3         -3.6499   -9.5901   -2.1202 N.pl3     1 <0>        -0.8642
     27 O4          0.0254   -0.0303   -2.4160 O.3       1 <0>        -0.5231
     28 H1          1.0039    1.9031    0.0027 H         1 <0>         0.0595
     29 H2         -0.5459    1.8868   -0.8726 H         1 <0>         0.0644
     30 H3         -0.5289    1.8773    0.9072 H         1 <0>         0.0750
     31 H4          0.5293   -0.3651    0.8851 H         1 <0>         0.0888
     32 H5         -1.0205   -0.3814    0.0098 H         1 <0>         0.0970
     33 H6         -1.3534   -2.1696   -1.6718 H         1 <0>         0.1643
     34 H7          3.7581   -2.4947   -0.0074 H         1 <0>         0.1349
     35 H8          3.8234   -2.0719   -1.7318 H         1 <0>         0.0920
     36 H9          1.0303   -6.6727   -2.1092 H         1 <0>         0.1149
     37 H10         0.6821   -6.6708   -0.3569 H         1 <0>         0.1155
     38 H11        -5.4089   -4.6335   -2.4754 H         1 <0>         0.1383
     39 H12        -6.9249   -6.5106   -2.7689 H         1 <0>         0.1349
     40 H13        -6.1199   -8.8255   -2.6059 H         1 <0>         0.1307
     41 H14        -1.4453   -8.4320   -1.6884 H         1 <0>         0.1433
     42 H15        -4.2723  -10.3241   -2.2415 H         1 <0>         0.4073
     43 H16        -2.7151   -9.7722   -1.9361 H         1 <0>         0.3995
     44 H17        -0.0300    0.9330   -2.4795 H         1 <0>         0.3948
@<TRIPOS>BOND
     1    1    2 1
     2    1   28 1
     3    1   29 1
     4    1   30 1
     5    2    3 1
     6    2   31 1
     7    2   32 1
     8    3   13 1
     9    3    4 1
    10    3   27 1
    11    4   10 2
    12    4    5 1
    13    5    6 2
    14    5   33 1
    15    6   17 1
    16    6    7 1
    17    7    8 am
    18    7   15 1
    19    8    9 2
    20    8   10 1
    21   10   11 1
    22   11   12 1
    23   11   34 1
    24   11   35 1
    25   12   13 1
    26   13   14 2
    27   15   16 1
    28   15   36 1
    29   15   37 1
    30   16   25 ar
    31   16   17 ar
    32   17   18 ar
    33   18   19 ar
    34   19   24 ar
    35   19   20 ar
    36   20   21 ar
    37   20   38 1
    38   21   22 ar
    39   21   39 1
    40   22   23 ar
    41   22   40 1
    42   23   24 ar
    43   23   26 1
    44   24   25 ar
    45   25   41 1
    46   26   42 1
    47   26   43 1
    48   27   44 1
@<TRIPOS>MOLECULE
ZINC00001087
   42    46     0     0     0
SMALL
USER_CHARGES

@<TRIPOS>ATOM
      1 C1         -0.0187    1.5258    0.0104 C.3       1 <0>        -0.1642
      2 C2          0.0021   -0.0041    0.0020 C.3       1 <0>        -0.1409
      3 C3          0.7421   -0.5109    1.2415 C.3       1 <0>         0.1369
      4 C4          0.8856   -2.0105    1.1665 C.2       1 <0>         0.0372
      5 C5         -0.2516   -2.8076    1.3495 C.2       1 <0>        -0.1453
      6 C6         -0.1541   -4.1808    1.2787 C.2       1 <0>         0.1923
      7 N1          1.0549   -4.7638    1.0248 N.am      1 <0>        -0.4952
      8 C7          2.1552   -4.0080    0.8452 C.2       1 <0>         0.5491
      9 O1          3.2247   -4.5466    0.6099 O.2       1 <0>        -0.5317
     10 C8          2.0862   -2.6016    0.9253 C.2       1 <0>        -0.2303
     11 C9          3.3549   -1.8092    0.7562 C.3       1 <0>         0.1436
     12 O2          3.0638   -0.4353    0.4969 O.3       1 <0>        -0.3605
     13 C10         2.1199    0.1090    1.2978 C.2       1 <0>         0.4724
     14 O3          2.3653    1.0444    2.0221 O.2       1 <0>        -0.4239
     15 C11         0.8777   -6.2219    1.0012 C.3       1 <0>         0.1430
     16 C12        -0.5826   -6.4802    1.2695 C.ar      1 <0>        -0.1585
     17 C13        -1.1935   -5.2254    1.4358 C.ar      1 <0>         0.1712
     18 N2         -2.4896   -5.1307    1.6873 N.ar      1 <0>        -0.4296
     19 C14        -3.2593   -6.2147    1.7902 C.ar      1 <0>         0.1358
     20 C15        -4.6372   -6.1005    2.0553 C.ar      1 <0>        -0.0858
     21 C16        -5.4009   -7.2219    2.1546 C.ar      1 <0>        -0.0950
     22 C17        -4.8422   -8.4892    1.9988 C.ar      1 <0>        -0.1020
     23 C18        -3.5134   -8.6403    1.7413 C.ar      1 <0>        -0.0971
     24 C19        -2.6945   -7.5061    1.6315 C.ar      1 <0>        -0.0866
     25 C20        -1.3154   -7.6215    1.3634 C.ar      1 <0>        -0.0210
     26 O4          0.0089   -0.1557    2.4155 O.3       1 <0>        -0.5233
     27 H1          1.0039    1.9031    0.0027 H         1 <0>         0.0593
     28 H2         -0.5459    1.8868   -0.8726 H         1 <0>         0.0750
     29 H3         -0.5289    1.8773    0.9072 H         1 <0>         0.0637
     30 H4         -1.0205   -0.3814    0.0098 H         1 <0>         0.0973
     31 H5          0.5123   -0.3556   -0.8948 H         1 <0>         0.0890
     32 H6         -1.2074   -2.3451    1.5470 H         1 <0>         0.1636
     33 H7          3.9488   -1.8842    1.6672 H         1 <0>         0.0921
     34 H8          3.9252   -2.2186   -0.0776 H         1 <0>         0.1350
     35 H9          1.1534   -6.6161    0.0231 H         1 <0>         0.1178
     36 H10         1.4878   -6.6850    1.7767 H         1 <0>         0.1172
     37 H11        -5.0862   -5.1262    2.1797 H         1 <0>         0.1423
     38 H12        -6.4575   -7.1286    2.3579 H         1 <0>         0.1371
     39 H13        -5.4713   -9.3630    2.0831 H         1 <0>         0.1347
     40 H14        -3.0921   -9.6276    1.6229 H         1 <0>         0.1373
     41 H15        -0.8535   -8.5897    1.2379 H         1 <0>         0.1531
     42 H16        -0.1157    0.7966    2.5283 H         1 <0>         0.3949
@<TRIPOS>BOND
     1    1    2 1
     2    1   27 1
     3    1   28 1
     4    1   29 1
     5    2    3 1
     6    2   30 1
     7    2   31 1
     8    3   13 1
     9    3    4 1
    10    3   26 1
    11    4   10 2
    12    4    5 1
    13    5    6 2
    14    5   32 1
    15    6   17 1
    16    6    7 1
    17    7    8 am
    18    7   15 1
    19    8    9 2
    20    8   10 1
    21   10   11 1
    22   11   12 1
    23   11   33 1
    24   11   34 1
    25   12   13 1
    26   13   14 2
    27   15   16 1
    28   15   35 1
    29   15   36 1
    30   16   25 ar
    31   16   17 ar
    32   17   18 ar
    33   18   19 ar
    34   19   24 ar
    35   19   20 ar
    36   20   21 ar
    37   20   37 1
    38   21   22 ar
    39   21   38 1
    40   22   23 ar
    41   22   39 1
    42   23   24 ar
    43   23   40 1
    44   24   25 ar
    45   25   41 1
    46   26   42 1
@<TRIPOS>MOLECULE
ZINC00105309
   42    46     0     0     0
SMALL
USER_CHARGES

@<TRIPOS>ATOM
      1 C1         -0.0187    1.5258    0.0104 C.3       1 <0>        -0.1645
      2 C2          0.0021   -0.0041    0.0020 C.3       1 <0>        -0.1411
      3 C3          0.7421   -0.5109    1.2415 C.3       1 <0>         0.1371
      4 C4          0.7500   -2.0192    1.2440 C.2       1 <0>         0.0373
      5 C5          1.5571   -2.6917    0.3172 C.2       1 <0>        -0.1454
      6 C6          1.5791   -4.0697    0.2889 C.2       1 <0>         0.1923
      7 N1          0.8082   -4.7796    1.1651 N.am      1 <0>        -0.4953
      8 C7          0.0270   -4.1445    2.0599 C.2       1 <0>         0.5492
      9 O1         -0.6613   -4.7958    2.8287 O.2       1 <0>        -0.5316
     10 C8         -0.0051   -2.7357    2.1189 C.2       1 <0>        -0.2302
     11 C9         -0.8659   -2.0798    3.1654 C.3       1 <0>         0.1436
     12 O2         -1.0744   -0.7007    2.8587 O.3       1 <0>        -0.3605
     13 C10         0.0363   -0.0246    2.4870 C.2       1 <0>         0.4718
     14 O3          0.4446    0.9207    3.1191 O.2       1 <0>        -0.4236
     15 C11         1.0176   -6.2130    0.9205 C.3       1 <0>         0.1430
     16 C12         2.0085   -6.3141   -0.2104 C.ar      1 <0>        -0.1585
     17 C13         2.3383   -4.9989   -0.5808 C.ar      1 <0>         0.1712
     18 N2          3.1975   -4.7660   -1.5603 N.ar      1 <0>        -0.4296
     19 C14         3.7773   -5.7634   -2.2289 C.ar      1 <0>         0.1358
     20 C15         4.6874   -5.5025   -3.2707 C.ar      1 <0>        -0.0858
     21 C16         5.2648   -6.5376   -3.9382 C.ar      1 <0>        -0.0950
     22 C17         4.9711   -7.8595   -3.6085 C.ar      1 <0>        -0.1020
     23 C18         4.0957   -8.1521   -2.6071 C.ar      1 <0>        -0.0971
     24 C19         3.4808   -7.1100   -1.8966 C.ar      1 <0>        -0.0866
     25 C20         2.5687   -7.3724   -0.8543 C.ar      1 <0>        -0.0210
     26 O4          2.0850   -0.0225    1.2306 O.3       1 <0>        -0.5234
     27 H1          1.0039    1.9031    0.0027 H         1 <0>         0.0643
     28 H2         -0.5459    1.8868   -0.8726 H         1 <0>         0.0751
     29 H3         -0.5289    1.8773    0.9072 H         1 <0>         0.0597
     30 H4         -1.0205   -0.3814    0.0098 H         1 <0>         0.0889
     31 H5          0.5123   -0.3556   -0.8948 H         1 <0>         0.0966
     32 H6          2.1633   -2.1290   -0.3773 H         1 <0>         0.1636
     33 H7         -1.8295   -2.5877    3.2071 H         1 <0>         0.1351
     34 H8         -0.3760   -2.1615    4.1356 H         1 <0>         0.0921
     35 H9          1.4205   -6.6896    1.8141 H         1 <0>         0.1172
     36 H10         0.0770   -6.6849    0.6365 H         1 <0>         0.1178
     37 H11         4.9267   -4.4840   -3.5388 H         1 <0>         0.1423
     38 H12         5.9619   -6.3316   -4.7369 H         1 <0>         0.1371
     39 H13         5.4438   -8.6625   -4.1546 H         1 <0>         0.1347
     40 H14         3.8759   -9.1805   -2.3613 H         1 <0>         0.1373
     41 H15         2.3217   -8.3861   -0.5752 H         1 <0>         0.1530
     42 H16         2.1527    0.9421    1.2335 H         1 <0>         0.3948
@<TRIPOS>BOND
     1    1    2 1
     2    1   27 1
     3    1   28 1
     4    1   29 1
     5    2    3 1
     6    2   30 1
     7    2   31 1
     8    3   13 1
     9    3    4 1
    10    3   26 1
    11    4   10 2
    12    4    5 1
    13    5    6 2
    14    5   32 1
    15    6   17 1
    16    6    7 1
    17    7    8 am
    18    7   15 1
    19    8    9 2
    20    8   10 1
    21   10   11 1
    22   11   12 1
    23   11   33 1
    24   11   34 1
    25   12   13 1
    26   13   14 2
    27   15   16 1
    28   15   35 1
    29   15   36 1
    30   16   25 ar
    31   16   17 ar
    32   17   18 ar
    33   18   19 ar
    34   19   24 ar
    35   19   20 ar
    36   20   21 ar
    37   20   37 1
    38   21   22 ar
    39   21   38 1
    40   22   23 ar
    41   22   39 1
    42   23   24 ar
    43   23   40 1
    44   24   25 ar
    45   25   41 1
    46   26   42 1
@<TRIPOS>MOLECULE
ZINC00597856
   45    50     0     0     0
SMALL
USER_CHARGES
ethyl-hydroxy-BLAHdione
@<TRIPOS>ATOM
      1 C1         -4.1079    5.6093   -4.9391 C.3       1 <0>        -0.1645
      2 C2         -3.1562    4.9327   -3.9505 C.3       1 <0>        -0.1410
      3 C3         -3.3865    3.4203   -3.9746 C.3       1 <0>         0.1362
      4 C4         -2.4436    2.7493   -3.0079 C.2       1 <0>         0.0379
      5 C5         -2.6693    2.9031   -1.6338 C.2       1 <0>        -0.1432
      6 C6         -1.8181    2.3169   -0.7215 C.2       1 <0>         0.1907
      7 N1         -0.7505    1.5860   -1.1597 N.am      1 <0>        -0.4950
      8 C7         -0.5262    1.4268   -2.4780 C.2       1 <0>         0.5495
      9 O1          0.4322    0.7698   -2.8511 O.2       1 <0>        -0.5312
     10 C8         -1.3850    2.0093   -3.4329 C.2       1 <0>        -0.2276
     11 C9         -1.0990    1.7727   -4.8921 C.3       1 <0>         0.1443
     12 O2         -1.8312    2.7163   -5.7172 O.3       1 <0>        -0.3650
     13 C10        -3.1256    2.8914   -5.3660 C.2       1 <0>         0.4718
     14 O3         -4.0288    2.6378   -6.1275 O.2       1 <0>        -0.4250
     15 C11        -0.0127    1.0858    0.0080 C.3       1 <0>         0.1432
     16 C12        -0.7466    1.5860    1.2257 C.ar      1 <0>        -0.1538
     17 C13        -1.8438    2.3317    0.7597 C.ar      1 <0>         0.1746
     18 N2         -2.6853    2.9023    1.6080 N.ar      1 <0>        -0.4252
     19 C14        -2.5246    2.7924    2.9272 C.ar      1 <0>         0.1547
     20 C15        -3.4271    3.4045    3.8159 C.ar      1 <0>        -0.0830
     21 C16        -3.2464    3.2816    5.1627 C.ar      1 <0>         0.0696
     22 C17        -2.1635    2.5473    5.6789 C.ar      1 <0>         0.0604
     23 C18        -1.2713    1.9423    4.8412 C.ar      1 <0>        -0.0910
     24 C19        -1.4333    2.0518    3.4519 C.ar      1 <0>        -0.0727
     25 C20        -0.5314    1.4388    2.5597 C.ar      1 <0>        -0.0157
     26 O4         -2.2258    2.5889    7.0424 O.3       1 <0>        -0.2997
     27 C21        -3.5702    2.9972    7.3544 C.3       1 <0>         0.2094
     28 O5         -3.9714    3.7728    6.2104 O.3       1 <0>        -0.2986
     29 O6         -4.7362    3.1363   -3.6007 O.3       1 <0>        -0.5238
     30 H1         -5.1384    5.3941   -4.6567 H         1 <0>         0.0644
     31 H2         -3.9438    6.6867   -4.9220 H         1 <0>         0.0750
     32 H3         -3.9194    5.2290   -5.9431 H         1 <0>         0.0596
     33 H4         -3.3447    5.3129   -2.9465 H         1 <0>         0.0967
     34 H5         -2.1257    5.1478   -4.2330 H         1 <0>         0.0888
     35 H6         -3.5126    3.4826   -1.2883 H         1 <0>         0.1646
     36 H7         -0.0307    1.8914   -5.0726 H         1 <0>         0.1353
     37 H8         -1.3974    0.7583   -5.1567 H         1 <0>         0.0959
     38 H9          0.0021   -0.0041    0.0020 H         1 <0>         0.1189
     39 H10         1.0061    1.4732    0.0004 H         1 <0>         0.1194
     40 H11        -4.2623    3.9717    3.4323 H         1 <0>         0.1563
     41 H12        -0.4426    1.3810    5.2470 H         1 <0>         0.1517
     42 H13         0.3091    0.8679    2.9257 H         1 <0>         0.1570
     43 H14        -4.2164    2.1273    7.4722 H         1 <0>         0.0942
     44 H15        -3.5846    3.6079    8.2571 H         1 <0>         0.1410
     45 H16        -5.3976    3.5323   -4.1845 H         1 <0>         0.3949
@<TRIPOS>BOND
     1    1    2 1
     2    1   30 1
     3    1   31 1
     4    1   32 1
     5    2    3 1
     6    2   33 1
     7    2   34 1
     8    3   13 1
     9    3    4 1
    10    3   29 1
    11    4   10 2
    12    4    5 1
    13    5    6 2
    14    5   35 1
    15    6   17 1
    16    6    7 1
    17    7    8 am
    18    7   15 1
    19    8    9 2
    20    8   10 1
    21   10   11 1
    22   11   12 1
    23   11   36 1
    24   11   37 1
    25   12   13 1
    26   13   14 2
    27   15   16 1
    28   15   38 1
    29   15   39 1
    30   16   25 ar
    31   16   17 ar
    32   17   18 ar
    33   18   19 ar
    34   19   24 ar
    35   19   20 ar
    36   20   21 ar
    37   20   40 1
    38   21   28 1
    39   21   22 ar
    40   22   23 ar
    41   22   26 1
    42   23   24 ar
    43   23   41 1
    44   24   25 ar
    45   25   42 1
    46   26   27 1
    47   27   28 1
    48   27   43 1
    49   27   44 1
    50   29   45 1
@<TRIPOS>MOLECULE
ZINC00598071
   44    48     0     0     0
SMALL
USER_CHARGES
amino-ethyl-hydroxy-BLAHdione
@<TRIPOS>ATOM
      1 C1          0.9231    2.6372    2.3945 C.3       1 <0>        -0.1640
      2 C2          1.9211    2.0259    1.4091 C.3       1 <0>        -0.1409
      3 C3          1.3244    2.0458    0.0004 C.3       1 <0>         0.1362
      4 C4          2.2482    1.3250   -0.9488 C.2       1 <0>         0.0386
      5 C5          3.4636    1.9315   -1.2934 C.2       1 <0>        -0.1448
      6 C6          4.3441    1.2896   -2.1371 C.2       1 <0>         0.1915
      7 N1          4.0308    0.0580   -2.6377 N.am      1 <0>        -0.4946
      8 C7          2.8650   -0.5346   -2.3157 C.2       1 <0>         0.5492
      9 O1          2.6047   -1.6378   -2.7678 O.2       1 <0>        -0.5327
     10 C8          1.9414    0.1041   -1.4620 C.2       1 <0>        -0.2296
     11 C9          0.6448   -0.5978   -1.1562 C.3       1 <0>         0.1447
     12 O2          0.0021   -0.0041    0.0020 O.3       1 <0>        -0.3655
     13 C10        -0.0163    1.3484    0.0095 C.2       1 <0>         0.4726
     14 O3         -1.0533    1.9683    0.0178 O.2       1 <0>        -0.4253
     15 C11         5.1333   -0.3935   -3.4972 C.3       1 <0>         0.1458
     16 C12         6.1696    0.7005   -3.4748 C.ar      1 <0>        -0.1748
     17 C13         5.6707    1.7156   -2.6421 C.ar      1 <0>         0.1819
     18 N2          6.3686    2.8197   -2.4258 N.ar      1 <0>        -0.4349
     19 C14         7.5646    3.0074   -2.9865 C.ar      1 <0>         0.1778
     20 C15         8.2962    4.1849   -2.7460 C.ar      1 <0>        -0.1515
     21 C16         9.5152    4.3614   -3.3253 C.ar      1 <0>        -0.0375
     22 C17        10.0628    3.3930   -4.1609 C.ar      1 <0>        -0.2090
     23 C18         9.3794    2.2234   -4.4237 C.ar      1 <0>         0.2430
     24 C19         8.1146    2.0144   -3.8362 C.ar      1 <0>        -0.1366
     25 C20         7.3834    0.8363   -4.0749 C.ar      1 <0>        -0.0100
     26 N3          9.9336    1.2587   -5.2606 N.pl3     1 <0>        -0.8642
     27 O4          1.1568    3.3981   -0.4302 O.3       1 <0>        -0.5234
     28 H1         -0.0002    2.0581    2.3828 H         1 <0>         0.0590
     29 H2          1.3482    2.6230    3.3981 H         1 <0>         0.0749
     30 H3          0.7102    3.6662    2.1046 H         1 <0>         0.0638
     31 H4          2.1340    0.9969    1.6990 H         1 <0>         0.0887
     32 H5          2.8445    2.6050    1.4208 H         1 <0>         0.0975
     33 H6          3.7109    2.9052   -0.8969 H         1 <0>         0.1644
     34 H7          0.8447   -1.6504   -0.9559 H         1 <0>         0.1350
     35 H8         -0.0191   -0.5158   -2.0169 H         1 <0>         0.0954
     36 H9          5.5576   -1.3182   -3.1058 H         1 <0>         0.1155
     37 H10         4.7745   -0.5487   -4.5146 H         1 <0>         0.1150
     38 H11         7.8900    4.9498   -2.1008 H         1 <0>         0.1383
     39 H12        10.0673    5.2695   -3.1329 H         1 <0>         0.1350
     40 H13        11.0320    3.5582   -4.6078 H         1 <0>         0.1306
     41 H14         7.7745    0.0611   -4.7172 H         1 <0>         0.1433
     42 H15         9.4493    0.4380   -5.4420 H         1 <0>         0.3995
     43 H16        10.8039    1.4072   -5.6624 H         1 <0>         0.4073
     44 H17         0.5682    3.9199    0.1322 H         1 <0>         0.3947
@<TRIPOS>BOND
     1    1    2 1
     2    1   28 1
     3    1   29 1
     4    1   30 1
     5    2    3 1
     6    2   31 1
     7    2   32 1
     8    3   13 1
     9    3    4 1
    10    3   27 1
    11    4   10 2
    12    4    5 1
    13    5    6 2
    14    5   33 1
    15    6   17 1
    16    6    7 1
    17    7    8 am
    18    7   15 1
    19    8    9 2
    20    8   10 1
    21   10   11 1
    22   11   12 1
    23   11   34 1
    24   11   35 1
    25   12   13 1
    26   13   14 2
    27   15   16 1
    28   15   36 1
    29   15   37 1
    30   16   25 ar
    31   16   17 ar
    32   17   18 ar
    33   18   19 ar
    34   19   24 ar
    35   19   20 ar
    36   20   21 ar
    37   20   38 1
    38   21   22 ar
    39   21   39 1
    40   22   23 ar
    41   22   40 1
    42   23   24 ar
    43   23   26 1
    44   24   25 ar
    45   25   41 1
    46   26   42 1
    47   26   43 1
    48   27   44 1
@<TRIPOS>MOLECULE
ZINC22010625
   69    75     0     0     0
SMALL
USER_CHARGES
ethyl-hydroxy-[(4-methylpiperazin-1-yl)methyl]BLAHdione
@<TRIPOS>ATOM
      1 C1          0.9317    2.7748   -2.3570 C.3       1 <0>        -0.1575
      2 C2          1.8936    2.0419   -1.4197 C.3       1 <0>        -0.1028
      3 C3          1.3242    2.0461    0.0004 C.3       1 <0>         0.1519
      4 C4          2.2663    1.3154    0.9237 C.2       1 <0>        -0.0078
      5 C5          3.4881    1.9180    1.2508 C.2       1 <0>        -0.1377
      6 C6          4.3860    1.2662    2.0691 C.2       1 <0>         0.1815
      7 N1          4.0822    0.0285    2.5611 N.am      1 <0>        -0.4987
      8 C7          2.9094   -0.5593    2.2569 C.2       1 <0>         0.5488
      9 O1          2.6571   -1.6669    2.7029 O.2       1 <0>        -0.5335
     10 C8          1.9694    0.0886    1.4292 C.2       1 <0>        -0.2212
     11 C9          0.6669   -0.6098    1.1413 C.3       1 <0>         0.1396
     12 O2          0.0021   -0.0041    0.0020 O.3       1 <0>        -0.3669
     13 C10        -0.0163    1.3483    0.0095 C.2       1 <0>         0.4636
     14 O3         -1.0534    1.9681    0.0178 O.2       1 <0>        -0.4126
     15 C11         5.2022   -0.4347    3.3911 C.3       1 <0>         0.1399
     16 C12         6.2391    0.6586    3.3596 C.ar      1 <0>        -0.1586
     17 C13         5.7226    1.6852    2.5514 C.ar      1 <0>         0.1756
     18 N2          6.4161    2.7927    2.3365 N.ar      1 <0>        -0.4166
     19 C14         7.6242    2.9720    2.8717 C.ar      1 <0>         0.1518
     20 C15         8.3515    4.1514    2.6316 C.ar      1 <0>        -0.0949
     21 C16         9.5897    4.3160    3.1846 C.ar      1 <0>         0.0934
     22 C17        10.1496    3.3192    3.9994 C.ar      1 <0>         0.0908
     23 C18         9.4668    2.1621    4.2511 C.ar      1 <0>        -0.1095
     24 C19         8.1947    1.9658    3.6943 C.ar      1 <0>        -0.0593
     25 C20         7.4655    0.7843    3.9342 C.ar      1 <0>         0.0097
     26 C21         8.0287   -0.3100    4.8039 C.3       1 <0>         0.0868
     27 N3          8.7930   -1.2507    3.9738 N.3       1 <0>        -0.5312
     28 C22         7.9110   -1.9678    3.0425 C.3       1 <0>         0.0094
     29 C23         8.7531   -2.8768    2.1441 C.3       1 <0>         0.0006
     30 N4          9.5113   -3.8194    2.9784 N.4       1 <0>        -0.4027
     31 C24        10.3933   -3.1023    3.9098 C.3       1 <0>         0.0001
     32 C25         9.5511   -2.1934    4.8082 C.3       1 <0>         0.0238
     33 C26        10.2755   -4.7602    2.1484 C.3       1 <0>        -0.0454
     34 O4         11.3814    3.4894    4.5544 O.3       1 <0>        -0.3014
     35 C27        12.2115    4.5039    3.9799 C.3       1 <0>         0.0151
     36 C28        11.3667    5.7722    3.8002 C.3       1 <0>         0.0150
     37 O5         10.2748    5.4646    2.9276 O.3       1 <0>        -0.2967
     38 O6          1.1646    3.3934    0.4490 O.3       1 <0>        -0.5416
     39 H1          1.3411    2.7718   -3.3780 H         1 <0>         0.0676
     40 H2          0.8064    3.8128   -2.0152 H         1 <0>         0.0738
     41 H3         -0.0439    2.2667   -2.3516 H         1 <0>         0.0553
     42 H4          2.0189    1.0039   -1.7615 H         1 <0>         0.0887
     43 H5          2.8692    2.5500   -1.4251 H         1 <0>         0.0925
     44 H6          3.7274    2.8961    0.8603 H         1 <0>         0.1668
     45 H7          0.8605   -1.6694    0.9184 H         1 <0>         0.1351
     46 H8          0.0084   -0.5342    2.0192 H         1 <0>         0.0969
     47 H9          4.8490   -0.6120    4.4177 H         1 <0>         0.1153
     48 H10         5.6046   -1.3701    2.9751 H         1 <0>         0.1067
     49 H11         7.9310    4.9274    2.0092 H         1 <0>         0.1587
     50 H12         9.9062    1.4003    4.8779 H         1 <0>         0.1476
     51 H13         8.6910    0.1300    5.5640 H         1 <0>         0.1127
     52 H14         7.2052   -0.8444    5.3002 H         1 <0>         0.0698
     53 H15         7.1935   -2.5766    3.6122 H         1 <0>         0.0679
     54 H16         7.3647   -1.2419    2.4223 H         1 <0>         0.1228
     55 H17         8.0921   -3.4359    1.4656 H         1 <0>         0.1382
     56 H18         9.4510   -2.2646    1.5541 H         1 <0>         0.1366
     57 H19        10.9395   -3.8283    4.5300 H         1 <0>         0.1392
     58 H20        11.1108   -2.4935    3.3402 H         1 <0>         0.1361
     59 H21        10.2112   -1.6334    5.4869 H         1 <0>         0.1279
     60 H22         8.8524   -2.8048    5.3981 H         1 <0>         0.0666
     61 H23        10.8323   -5.4526    2.7969 H         1 <0>         0.1260
     62 H24        10.9817   -4.2016    1.5165 H         1 <0>         0.1202
     63 H25         9.5847   -5.3308    1.5103 H         1 <0>         0.1255
     64 H26        13.0594    4.7071    4.6505 H         1 <0>         0.1340
     65 H27        12.5889    4.1606    3.0054 H         1 <0>         0.0854
     66 H28        10.9866    6.1013    4.7786 H         1 <0>         0.0875
     67 H29        11.9876    6.5673    3.3618 H         1 <0>         0.1357
     68 H30         0.7647    3.5948    1.4538 H         1 <0>         0.4205
     69 H31         8.7917   -4.4020    3.5723 H         1 <0>         0.4416
@<TRIPOS>BOND
     1    1    2 1
     2    1   39 1
     3    1   40 1
     4    1   41 1
     5    2    3 1
     6    2   42 1
     7    2   43 1
     8    3   13 1
     9    3    4 1
    10    3   38 1
    11    4   10 2
    12    4    5 1
    13    5    6 2
    14    5   44 1
    15    6   17 1
    16    6    7 1
    17    7    8 am
    18    7   15 1
    19    8    9 2
    20    8   10 1
    21   10   11 1
    22   11   12 1
    23   11   45 1
    24   11   46 1
    25   12   13 1
    26   13   14 2
    27   15   16 1
    28   15   47 1
    29   15   48 1
    30   16   25 ar
    31   16   17 ar
    32   17   18 ar
    33   18   19 ar
    34   19   24 ar
    35   19   20 ar
    36   20   21 ar
    37   20   49 1
    38   21   37 1
    39   21   22 ar
    40   22   23 ar
    41   22   34 1
    42   23   24 ar
    43   23   50 1
    44   24   25 ar
    45   25   26 1
    46   26   27 1
    47   26   51 1
    48   26   52 1
    49   27   32 1
    50   27   28 1
    51   28   29 1
    52   28   53 1
    53   28   54 1
    54   29   30 1
    55   29   55 1
    56   29   56 1
    57   30   31 1
    58   30   33 1
    59   30   69 1
    60   31   32 1
    61   31   57 1
    62   31   58 1
    63   32   59 1
    64   32   60 1
    65   33   61 1
    66   33   62 1
    67   33   63 1
    68   34   35 1
    69   35   36 1
    70   35   64 1
    71   35   65 1
    72   36   37 1
    73   36   66 1
    74   36   67 1
    75   38   68 1
@<TRIPOS>MOLECULE
ZINC22010625
   69    75     0     0     0
SMALL
USER_CHARGES
ethyl-hydroxy-[(4-methylpiperazin-1-yl)methyl]BLAHdione
@<TRIPOS>ATOM
      1 C1          0.9317    2.7748   -2.3570 C.3       1 <0>        -0.1579
      2 C2          1.8936    2.0419   -1.4197 C.3       1 <0>        -0.1032
      3 C3          1.3242    2.0461    0.0004 C.3       1 <0>         0.1518
      4 C4          2.2663    1.3154    0.9237 C.2       1 <0>        -0.0131
      5 C5          3.4881    1.9180    1.2508 C.2       1 <0>        -0.1234
      6 C6          4.3860    1.2662    2.0691 C.2       1 <0>         0.1666
      7 N1          4.0822    0.0285    2.5611 N.am      1 <0>        -0.4998
      8 C7          2.9094   -0.5593    2.2569 C.2       1 <0>         0.5492
      9 O1          2.6571   -1.6669    2.7029 O.2       1 <0>        -0.5240
     10 C8          1.9694    0.0886    1.4292 C.2       1 <0>        -0.2090
     11 C9          0.6669   -0.6098    1.1413 C.3       1 <0>         0.1367
     12 O2          0.0021   -0.0041    0.0020 O.3       1 <0>        -0.3652
     13 C10        -0.0163    1.3483    0.0095 C.2       1 <0>         0.4628
     14 O3         -1.0534    1.9681    0.0178 O.2       1 <0>        -0.4105
     15 C11         5.2022   -0.4347    3.3911 C.3       1 <0>         0.1291
     16 C12         6.2391    0.6586    3.3596 C.ar      1 <0>        -0.1215
     17 C13         5.7226    1.6852    2.5514 C.ar      1 <0>         0.1792
     18 N2          6.4161    2.7927    2.3365 N.ar      1 <0>        -0.3979
     19 C14         7.6242    2.9720    2.8717 C.ar      1 <0>         0.1539
     20 C15         8.3515    4.1514    2.6316 C.ar      1 <0>        -0.0829
     21 C16         9.5897    4.3160    3.1846 C.ar      1 <0>         0.0934
     22 C17        10.1496    3.3192    3.9994 C.ar      1 <0>         0.1175
     23 C18         9.4668    2.1621    4.2511 C.ar      1 <0>        -0.1499
     24 C19         8.1947    1.9658    3.6943 C.ar      1 <0>        -0.0575
     25 C20         7.4655    0.7843    3.9342 C.ar      1 <0>        -0.0643
     26 C21         8.0287   -0.3100    4.8039 C.3       1 <0>         0.0385
     27 N3          8.7930   -1.2507    3.9738 N.4       1 <0>        -0.4006
     28 C22         7.9110   -1.9678    3.0425 C.3       1 <0>        -0.0133
     29 C23         8.7531   -2.8768    2.1441 C.3       1 <0>         0.0262
     30 N4          9.5113   -3.8194    2.9784 N.3       1 <0>        -0.5415
     31 C24        10.3933   -3.1023    3.9098 C.3       1 <0>         0.0232
     32 C25         9.5511   -2.1934    4.8082 C.3       1 <0>        -0.0011
     33 C26        10.2755   -4.7602    2.1484 C.3       1 <0>         0.0170
     34 O4         11.3814    3.4894    4.5544 O.3       1 <0>        -0.2981
     35 C27        12.2115    4.5039    3.9799 C.3       1 <0>         0.0133
     36 C28        11.3667    5.7722    3.8002 C.3       1 <0>         0.0136
     37 O5         10.2748    5.4646    2.9276 O.3       1 <0>        -0.2925
     38 O6          1.1646    3.3934    0.4490 O.3       1 <0>        -0.5414
     39 H1          1.3411    2.7718   -3.3780 H         1 <0>         0.0683
     40 H2          0.8064    3.8128   -2.0152 H         1 <0>         0.0738
     41 H3         -0.0439    2.2667   -2.3516 H         1 <0>         0.0559
     42 H4          2.0189    1.0039   -1.7615 H         1 <0>         0.0897
     43 H5          2.8692    2.5500   -1.4251 H         1 <0>         0.0920
     44 H6          3.7274    2.8961    0.8603 H         1 <0>         0.1683
     45 H7          0.8605   -1.6694    0.9184 H         1 <0>         0.1379
     46 H8          0.0084   -0.5342    2.0192 H         1 <0>         0.0996
     47 H9          4.8490   -0.6120    4.4177 H         1 <0>         0.1254
     48 H10         5.6046   -1.3701    2.9751 H         1 <0>         0.1149
     49 H11         7.9310    4.9274    2.0092 H         1 <0>         0.1649
     50 H12         9.9062    1.4003    4.8779 H         1 <0>         0.1444
     51 H13         8.6910    0.1300    5.5640 H         1 <0>         0.1526
     52 H14         7.2052   -0.8444    5.3002 H         1 <0>         0.1467
     53 H15         7.1935   -2.5766    3.6122 H         1 <0>         0.1419
     54 H16         7.3647   -1.2419    2.4223 H         1 <0>         0.1302
     55 H17         8.0921   -3.4359    1.4656 H         1 <0>         0.1259
     56 H18         9.4510   -2.2646    1.5541 H         1 <0>         0.0619
     57 H19        10.9395   -3.8283    4.5300 H         1 <0>         0.1273
     58 H20        11.1108   -2.4935    3.3402 H         1 <0>         0.0617
     59 H21        10.2112   -1.6334    5.4869 H         1 <0>         0.1402
     60 H22         8.8524   -2.8048    5.3981 H         1 <0>         0.1407
     61 H23        10.8323   -5.4526    2.7969 H         1 <0>         0.0858
     62 H24        10.9817   -4.2016    1.5165 H         1 <0>         0.0402
     63 H25         9.5847   -5.3308    1.5103 H         1 <0>         0.0857
     64 H26        13.0594    4.7071    4.6505 H         1 <0>         0.1391
     65 H27        12.5889    4.1606    3.0054 H         1 <0>         0.0901
     66 H28        10.9866    6.1013    4.7786 H         1 <0>         0.0907
     67 H29        11.9876    6.5673    3.3618 H         1 <0>         0.1403
     68 H30         0.7647    3.5948    1.4538 H         1 <0>         0.4207
     69 H31         9.5126   -0.6681    3.3798 H         1 <0>         0.4397
@<TRIPOS>BOND
     1    1    2 1
     2    1   39 1
     3    1   40 1
     4    1   41 1
     5    2    3 1
     6    2   42 1
     7    2   43 1
     8    3   13 1
     9    3    4 1
    10    3   38 1
    11    4   10 2
    12    4    5 1
    13    5    6 2
    14    5   44 1
    15    6   17 1
    16    6    7 1
    17    7    8 am
    18    7   15 1
    19    8    9 2
    20    8   10 1
    21   10   11 1
    22   11   12 1
    23   11   45 1
    24   11   46 1
    25   12   13 1
    26   13   14 2
    27   15   16 1
    28   15   47 1
    29   15   48 1
    30   16   25 ar
    31   16   17 ar
    32   17   18 ar
    33   18   19 ar
    34   19   24 ar
    35   19   20 ar
    36   20   21 ar
    37   20   49 1
    38   21   37 1
    39   21   22 ar
    40   22   23 ar
    41   22   34 1
    42   23   24 ar
    43   23   50 1
    44   24   25 ar
    45   25   26 1
    46   26   27 1
    47   26   51 1
    48   26   52 1
    49   27   32 1
    50   27   28 1
    51   27   69 1
    52   28   29 1
    53   28   53 1
    54   28   54 1
    55   29   30 1
    56   29   55 1
    57   29   56 1
    58   30   31 1
    59   30   33 1
    60   31   32 1
    61   31   57 1
    62   31   58 1
    63   32   59 1
    64   32   60 1
    65   33   61 1
    66   33   62 1
    67   33   63 1
    68   34   35 1
    69   35   36 1
    70   35   64 1
    71   35   65 1
    72   36   37 1
    73   36   66 1
    74   36   67 1
    75   38   68 1
@<TRIPOS>MOLECULE
ZINC22010625
   68    74     0     0     0
SMALL
USER_CHARGES
ethyl-hydroxy-[(4-methylpiperazin-1-yl)methyl]BLAHdione
@<TRIPOS>ATOM
      1 C1          0.9317    2.7748   -2.3570 C.3       1 <0>        -0.1556
      2 C2          1.8936    2.0419   -1.4197 C.3       1 <0>        -0.1039
      3 C3          1.3242    2.0461    0.0004 C.3       1 <0>         0.1532
      4 C4          2.2663    1.3154    0.9237 C.2       1 <0>        -0.0075
      5 C5          3.4881    1.9180    1.2508 C.2       1 <0>        -0.1514
      6 C6          4.3860    1.2662    2.0691 C.2       1 <0>         0.1959
      7 N1          4.0822    0.0285    2.5611 N.am      1 <0>        -0.4944
      8 C7          2.9094   -0.5593    2.2569 C.2       1 <0>         0.5467
      9 O1          2.6571   -1.6669    2.7029 O.2       1 <0>        -0.5323
     10 C8          1.9694    0.0886    1.4292 C.2       1 <0>        -0.2284
     11 C9          0.6669   -0.6098    1.1413 C.3       1 <0>         0.1419
     12 O2          0.0021   -0.0041    0.0020 O.3       1 <0>        -0.3685
     13 C10        -0.0163    1.3483    0.0095 C.2       1 <0>         0.4663
     14 O3         -1.0534    1.9681    0.0178 O.2       1 <0>        -0.4195
     15 C11         5.2022   -0.4347    3.3911 C.3       1 <0>         0.1348
     16 C12         6.2391    0.6586    3.3596 C.ar      1 <0>        -0.1553
     17 C13         5.7226    1.6852    2.5514 C.ar      1 <0>         0.1726
     18 N2          6.4161    2.7927    2.3365 N.ar      1 <0>        -0.4241
     19 C14         7.6242    2.9720    2.8717 C.ar      1 <0>         0.1497
     20 C15         8.3515    4.1514    2.6316 C.ar      1 <0>        -0.0972
     21 C16         9.5897    4.3160    3.1846 C.ar      1 <0>         0.0901
     22 C17        10.1496    3.3192    3.9994 C.ar      1 <0>         0.0803
     23 C18         9.4668    2.1621    4.2511 C.ar      1 <0>        -0.0965
     24 C19         8.1947    1.9658    3.6943 C.ar      1 <0>        -0.0595
     25 C20         7.4655    0.7843    3.9342 C.ar      1 <0>         0.0263
     26 C21         8.0287   -0.3100    4.8039 C.3       1 <0>         0.0819
     27 N3          8.7930   -1.2507    3.9738 N.3       1 <0>        -0.5298
     28 C22         7.9110   -1.9678    3.0425 C.3       1 <0>         0.0458
     29 C23         8.7531   -2.8768    2.1441 C.3       1 <0>         0.0557
     30 N4          9.5113   -3.8194    2.9784 N.3       1 <0>        -0.5443
     31 C24        10.3933   -3.1023    3.9098 C.3       1 <0>         0.0548
     32 C25         9.5511   -2.1934    4.8082 C.3       1 <0>         0.0558
     33 C26        10.2755   -4.7602    2.1484 C.3       1 <0>         0.0225
     34 O4         11.3814    3.4894    4.5544 O.3       1 <0>        -0.3014
     35 C27        12.2115    4.5039    3.9799 C.3       1 <0>         0.0153
     36 C28        11.3667    5.7722    3.8002 C.3       1 <0>         0.0167
     37 O5         10.2748    5.4646    2.9276 O.3       1 <0>        -0.2996
     38 O6          1.1646    3.3934    0.4490 O.3       1 <0>        -0.5427
     39 H1          1.3411    2.7718   -3.3780 H         1 <0>         0.0660
     40 H2          0.8064    3.8128   -2.0152 H         1 <0>         0.0724
     41 H3         -0.0439    2.2667   -2.3516 H         1 <0>         0.0540
     42 H4          2.0189    1.0039   -1.7615 H         1 <0>         0.0894
     43 H5          2.8692    2.5500   -1.4251 H         1 <0>         0.0934
     44 H6          3.7274    2.8961    0.8603 H         1 <0>         0.1646
     45 H7          0.8605   -1.6694    0.9184 H         1 <0>         0.1349
     46 H8          0.0084   -0.5342    2.0192 H         1 <0>         0.0948
     47 H9          4.8490   -0.6120    4.4177 H         1 <0>         0.1155
     48 H10         5.6046   -1.3701    2.9751 H         1 <0>         0.1183
     49 H11         7.9310    4.9274    2.0092 H         1 <0>         0.1553
     50 H12         9.9062    1.4003    4.8779 H         1 <0>         0.1506
     51 H13         8.6910    0.1300    5.5640 H         1 <0>         0.1007
     52 H14         7.2052   -0.8444    5.3002 H         1 <0>         0.0594
     53 H15         7.1935   -2.5766    3.6122 H         1 <0>         0.0497
     54 H16         7.3647   -1.2419    2.4223 H         1 <0>         0.0801
     55 H17         8.0921   -3.4359    1.4656 H         1 <0>         0.0821
     56 H18         9.4510   -2.2646    1.5541 H         1 <0>         0.0442
     57 H19        10.9395   -3.8283    4.5300 H         1 <0>         0.0838
     58 H20        11.1108   -2.4935    3.3402 H         1 <0>         0.0445
     59 H21        10.2112   -1.6334    5.4869 H         1 <0>         0.0853
     60 H22         8.8524   -2.8048    5.3981 H         1 <0>         0.0491
     61 H23        10.8323   -5.4526    2.7969 H         1 <0>         0.0710
     62 H24        10.9817   -4.2016    1.5165 H         1 <0>         0.0275
     63 H25         9.5847   -5.3308    1.5103 H         1 <0>         0.0708
     64 H26        13.0594    4.7071    4.6505 H         1 <0>         0.1303
     65 H27        12.5889    4.1606    3.0054 H         1 <0>         0.0835
     66 H28        10.9866    6.1013    4.7786 H         1 <0>         0.0843
     67 H29        11.9876    6.5673    3.3618 H         1 <0>         0.1312
     68 H30         0.7647    3.5948    1.4538 H         1 <0>         0.4188
@<TRIPOS>BOND
     1    1    2 1
     2    1   39 1
     3    1   40 1
     4    1   41 1
     5    2    3 1
     6    2   42 1
     7    2   43 1
     8    3   13 1
     9    3    4 1
    10    3   38 1
    11    4   10 2
    12    4    5 1
    13    5    6 2
    14    5   44 1
    15    6   17 1
    16    6    7 1
    17    7    8 am
    18    7   15 1
    19    8    9 2
    20    8   10 1
    21   10   11 1
    22   11   12 1
    23   11   45 1
    24   11   46 1
    25   12   13 1
    26   13   14 2
    27   15   16 1
    28   15   47 1
    29   15   48 1
    30   16   25 ar
    31   16   17 ar
    32   17   18 ar
    33   18   19 ar
    34   19   24 ar
    35   19   20 ar
    36   20   21 ar
    37   20   49 1
    38   21   37 1
    39   21   22 ar
    40   22   23 ar
    41   22   34 1
    42   23   24 ar
    43   23   50 1
    44   24   25 ar
    45   25   26 1
    46   26   27 1
    47   26   51 1
    48   26   52 1
    49   27   32 1
    50   27   28 1
    51   28   29 1
    52   28   53 1
    53   28   54 1
    54   29   30 1
    55   29   55 1
    56   29   56 1
    57   30   31 1
    58   30   33 1
    59   31   32 1
    60   31   57 1
    61   31   58 1
    62   32   59 1
    63   32   60 1
    64   33   61 1
    65   33   62 1
    66   33   63 1
    67   34   35 1
    68   35   36 1
    69   35   64 1
    70   35   65 1
    71   36   37 1
    72   36   66 1
    73   36   67 1
    74   38   68 1
@<TRIPOS>MOLECULE
ZINC00538323
   44    48     0     0     0
SMALL
USER_CHARGES
ethyl-hydroxy-nitro-BLAHdione
@<TRIPOS>ATOM
      1 C1          0.9232    2.6369    2.3946 C.3       1 <0>        -0.1645
      2 C2          1.9212    2.0258    1.4091 C.3       1 <0>        -0.1411
      3 C3          1.3244    2.0459    0.0004 C.3       1 <0>         0.1361
      4 C4          2.2482    1.3255   -0.9490 C.2       1 <0>         0.0330
      5 C5          3.4635    1.9319   -1.2936 C.2       1 <0>        -0.1287
      6 C6          4.3444    1.2903   -2.1373 C.2       1 <0>         0.1752
      7 N1          4.0306    0.0588   -2.6380 N.am      1 <0>        -0.4953
      8 C7          2.8648   -0.5336   -2.3161 C.2       1 <0>         0.5495
      9 O1          2.6044   -1.6367   -2.7684 O.2       1 <0>        -0.5263
     10 C8          1.9411    0.1047   -1.4623 C.2       1 <0>        -0.2167
     11 C9          0.6448   -0.5973   -1.1565 C.3       1 <0>         0.1422
     12 O2          0.0021   -0.0041    0.0020 O.3       1 <0>        -0.3640
     13 C10        -0.0163    1.3484    0.0095 C.2       1 <0>         0.4717
     14 O3         -1.0534    1.9683    0.0178 O.2       1 <0>        -0.4228
     15 C11         5.1323   -0.3932   -3.4981 C.3       1 <0>         0.1424
     16 C12         6.1696    0.6998   -3.4756 C.ar      1 <0>        -0.1573
     17 C13         5.6713    1.7156   -2.6418 C.ar      1 <0>         0.2066
     18 N2          6.3702    2.8186   -2.4253 N.ar      1 <0>        -0.4357
     19 C14         7.5657    3.0056   -2.9857 C.ar      1 <0>         0.1712
     20 C15         8.3003    4.1823   -2.7457 C.ar      1 <0>        -0.0712
     21 C16         9.5177    4.3494   -3.3294 C.ar      1 <0>        -0.0600
     22 C17        10.0550    3.3721   -4.1653 C.ar      1 <0>        -0.0305
     23 C18         9.3746    2.2205   -4.4217 C.ar      1 <0>        -0.0059
     24 C19         8.1160    2.0132   -3.8365 C.ar      1 <0>        -0.1039
     25 C20         7.3820    0.8339   -4.0762 C.ar      1 <0>         0.0017
     26 N3         11.3826    3.5888   -4.7830 N.pl3     1 <0>         0.0226
     27 O4         11.8595    2.7402   -5.5151 O.2       1 <0>        -0.1529
     28 O5         11.9981    4.6158   -4.5592 O.3       1 <0>        -0.1435
     29 O6          1.1566    3.3982   -0.4299 O.3       1 <0>        -0.5240
     30 H1         -0.0001    2.0577    2.3828 H         1 <0>         0.0596
     31 H2          1.3483    2.6226    3.3981 H         1 <0>         0.0756
     32 H3          0.7102    3.6659    2.1049 H         1 <0>         0.0641
     33 H4          2.1341    0.9968    1.6987 H         1 <0>         0.0892
     34 H5          2.8445    2.6050    1.4208 H         1 <0>         0.0971
     35 H6          3.7107    2.9056   -0.8970 H         1 <0>         0.1663
     36 H7          0.8448   -1.6499   -0.9566 H         1 <0>         0.1372
     37 H8         -0.0192   -0.5150   -2.0170 H         1 <0>         0.0981
     38 H9          5.5559   -1.3184   -3.1073 H         1 <0>         0.1226
     39 H10         4.7729   -0.5476   -4.5155 H         1 <0>         0.1222
     40 H11         7.8988    4.9498   -2.1006 H         1 <0>         0.1653
     41 H12        10.0769    5.2543   -3.1422 H         1 <0>         0.1656
     42 H13         9.8014    1.4708   -5.0714 H         1 <0>         0.1686
     43 H14         7.7718    0.0584   -4.7189 H         1 <0>         0.1644
     44 H15         0.5681    3.9199    0.1327 H         1 <0>         0.3962
@<TRIPOS>BOND
     1    1    2 1
     2    1   30 1
     3    1   31 1
     4    1   32 1
     5    2    3 1
     6    2   33 1
     7    2   34 1
     8    3   13 1
     9    3    4 1
    10    3   29 1
    11    4   10 2
    12    4    5 1
    13    5    6 2
    14    5   35 1
    15    6   17 1
    16    6    7 1
    17    7    8 am
    18    7   15 1
    19    8    9 2
    20    8   10 1
    21   10   11 1
    22   11   12 1
    23   11   36 1
    24   11   37 1
    25   12   13 1
    26   13   14 2
    27   15   16 1
    28   15   38 1
    29   15   39 1
    30   16   25 ar
    31   16   17 ar
    32   17   18 ar
    33   18   19 ar
    34   19   24 ar
    35   19   20 ar
    36   20   21 ar
    37   20   40 1
    38   21   22 ar
    39   21   41 1
    40   22   23 ar
    41   22   26 1
    42   23   24 ar
    43   23   42 1
    44   24   25 ar
    45   25   43 1
    46   26   27 2
    47   26   28 1
    48   29   44 1
@<TRIPOS>MOLECULE
ZINC01587126
   44    48     0     0     0
SMALL
USER_CHARGES
ethyl-hydroxy-nitro-BLAHdione
@<TRIPOS>ATOM
      1 C1         -5.6316    3.2066    5.0705 C.3       1 <0>        -0.1649
      2 C2         -4.6696    2.5713    4.0646 C.3       1 <0>        -0.1413
      3 C3         -3.3425    3.3325    4.0772 C.3       1 <0>         0.1362
      4 C4         -2.3931    2.7076    3.0862 C.2       1 <0>         0.0326
      5 C5         -2.6465    2.8723    1.7179 C.2       1 <0>        -0.1280
      6 C6         -1.8066    2.3053    0.7838 C.2       1 <0>         0.1744
      7 N1         -0.7278    1.5732    1.1950 N.am      1 <0>        -0.4954
      8 C7         -0.4781    1.4026    2.5065 C.2       1 <0>         0.5495
      9 O1          0.4829    0.7358    2.8546 O.2       1 <0>        -0.5266
     10 C8         -1.3124    1.9850    3.4836 C.2       1 <0>        -0.2160
     11 C9         -0.9638    1.7851    4.9348 C.3       1 <0>         0.1420
     12 O2         -2.0945    2.1149    5.7830 O.3       1 <0>        -0.3639
     13 C10        -2.7312    3.2633    5.4576 C.2       1 <0>         0.4712
     14 O3         -2.8077    4.1874    6.2322 O.2       1 <0>        -0.4224
     15 C11        -0.0127    1.0858    0.0080 C.3       1 <0>         0.1426
     16 C12        -0.7694    1.5988   -1.1901 C.ar      1 <0>        -0.1572
     17 C13        -1.8574    2.3394   -0.6969 C.ar      1 <0>         0.2066
     18 N2         -2.7127    2.9205   -1.5232 N.ar      1 <0>        -0.4357
     19 C14        -2.5759    2.8243   -2.8462 C.ar      1 <0>         0.1711
     20 C15        -3.4934    3.4455   -3.7145 C.ar      1 <0>        -0.0712
     21 C16        -3.3329    3.3316   -5.0605 C.ar      1 <0>        -0.0599
     22 C17        -2.2702    2.6085   -5.5994 C.ar      1 <0>        -0.0306
     23 C18        -1.3618    1.9938   -4.7920 C.ar      1 <0>        -0.0059
     24 C19        -1.4961    2.0889   -3.3984 C.ar      1 <0>        -0.1039
     25 C20        -0.5770    1.4662   -2.5295 C.ar      1 <0>         0.0017
     26 N3         -2.1271    2.5069   -7.0692 N.pl3     1 <0>         0.0226
     27 O4         -1.2017    1.8767   -7.5489 O.2       1 <0>        -0.1531
     28 O5         -2.9348    3.0534   -7.7989 O.3       1 <0>        -0.1434
     29 O6         -3.5714    4.6981    3.7239 O.3       1 <0>        -0.5242
     30 H1         -6.5770    2.6643    5.0615 H         1 <0>         0.0757
     31 H2         -5.1960    3.1609    6.0686 H         1 <0>         0.0602
     32 H3         -5.8071    4.2473    4.7980 H         1 <0>         0.0647
     33 H4         -5.1052    2.6170    3.0665 H         1 <0>         0.0964
     34 H5         -4.4941    1.5306    4.3371 H         1 <0>         0.0892
     35 H6         -3.5025    3.4457    1.3942 H         1 <0>         0.1663
     36 H7         -0.1214    2.4266    5.1935 H         1 <0>         0.0981
     37 H8         -0.6846    0.7440    5.0970 H         1 <0>         0.1373
     38 H9          0.0021   -0.0041    0.0020 H         1 <0>         0.1226
     39 H10         1.0061    1.4731    0.0004 H         1 <0>         0.1220
     40 H11        -4.3223    4.0098   -3.3134 H         1 <0>         0.1653
     41 H12        -4.0400    3.8096   -5.7223 H         1 <0>         0.1656
     42 H13        -0.5430    1.4360   -5.2219 H         1 <0>         0.1687
     43 H14         0.2569    0.8998   -2.9171 H         1 <0>         0.1644
     44 H15        -4.1744    5.1629    4.3202 H         1 <0>         0.3961
@<TRIPOS>BOND
     1    1    2 1
     2    1   30 1
     3    1   31 1
     4    1   32 1
     5    2    3 1
     6    2   33 1
     7    2   34 1
     8    3   13 1
     9    3    4 1
    10    3   29 1
    11    4   10 2
    12    4    5 1
    13    5    6 2
    14    5   35 1
    15    6   17 1
    16    6    7 1
    17    7    8 am
    18    7   15 1
    19    8    9 2
    20    8   10 1
    21   10   11 1
    22   11   12 1
    23   11   36 1
    24   11   37 1
    25   12   13 1
    26   13   14 2
    27   15   16 1
    28   15   38 1
    29   15   39 1
    30   16   25 ar
    31   16   17 ar
    32   17   18 ar
    33   18   19 ar
    34   19   24 ar
    35   19   20 ar
    36   20   21 ar
    37   20   40 1
    38   21   22 ar
    39   21   41 1
    40   22   23 ar
    41   22   26 1
    42   23   24 ar
    43   23   42 1
    44   24   25 ar
    45   25   43 1
    46   26   27 2
    47   26   28 1
    48   29   44 1
@<TRIPOS>MOLECULE
ZINC01587127
   44    48     0     0     0
SMALL
USER_CHARGES
amino-ethyl-hydroxy-BLAHdione
@<TRIPOS>ATOM
      1 C1         -5.6307    3.2078    5.0717 C.3       1 <0>        -0.1643
      2 C2         -4.6692    2.5722    4.0655 C.3       1 <0>        -0.1408
      3 C3         -3.3421    3.3335    4.0773 C.3       1 <0>         0.1363
      4 C4         -2.3931    2.7082    3.0860 C.2       1 <0>         0.0415
      5 C5         -2.6470    2.8724    1.7181 C.2       1 <0>        -0.1550
      6 C6         -1.8069    2.3052    0.7837 C.2       1 <0>         0.2029
      7 N1         -0.7279    1.5733    1.1949 N.am      1 <0>        -0.4958
      8 C7         -0.4782    1.4028    2.5065 C.2       1 <0>         0.5496
      9 O1          0.4826    0.7359    2.8547 O.2       1 <0>        -0.5347
     10 C8         -1.3119    1.9855    3.4832 C.2       1 <0>        -0.2360
     11 C9         -0.9628    1.7863    4.9343 C.3       1 <0>         0.1456
     12 O2         -2.0931    2.1165    5.7830 O.3       1 <0>        -0.3657
     13 C10        -2.7300    3.2646    5.4573 C.2       1 <0>         0.4723
     14 O3         -2.8061    4.1890    6.2315 O.2       1 <0>        -0.4262
     15 C11        -0.0127    1.0858    0.0080 C.3       1 <0>         0.1420
     16 C12        -0.7695    1.5989   -1.1900 C.ar      1 <0>        -0.1400
     17 C13        -1.8578    2.3394   -0.6965 C.ar      1 <0>         0.1386
     18 N2         -2.7131    2.9206   -1.5228 N.ar      1 <0>        -0.4122
     19 C14        -2.5773    2.8256   -2.8456 C.ar      1 <0>         0.0889
     20 C15        -3.4979    3.4491   -3.7104 C.ar      1 <0>        -0.0356
     21 C16        -3.3461    3.3415   -5.0559 C.ar      1 <0>        -0.1519
     22 C17        -2.2809    2.6170   -5.6063 C.ar      1 <0>         0.2384
     23 C18        -1.3609    1.9942   -4.7898 C.ar      1 <0>        -0.2091
     24 C19        -1.4968    2.0901   -3.3980 C.ar      1 <0>        -0.0263
     25 C20        -0.5778    1.4660   -2.5291 C.ar      1 <0>        -0.0456
     26 N3         -2.1502    2.5245   -6.9923 N.pl3     1 <0>        -0.8660
     27 O4         -3.5712    4.6990    3.7237 O.3       1 <0>        -0.5236
     28 H1         -5.1946    3.1624    6.0696 H         1 <0>         0.0595
     29 H2         -5.8063    4.2484    4.7989 H         1 <0>         0.0642
     30 H3         -6.5761    2.6655    5.0633 H         1 <0>         0.0746
     31 H4         -5.1053    2.6176    3.0676 H         1 <0>         0.0966
     32 H5         -4.4935    1.5316    4.3383 H         1 <0>         0.0886
     33 H6         -3.5034    3.4454    1.3946 H         1 <0>         0.1625
     34 H7         -0.1203    2.4279    5.1924 H         1 <0>         0.0943
     35 H8         -0.6836    0.7452    5.0969 H         1 <0>         0.1341
     36 H9          0.0021   -0.0041    0.0020 H         1 <0>         0.1169
     37 H10         1.0061    1.4731    0.0004 H         1 <0>         0.1163
     38 H11        -4.3249    4.0121   -3.3036 H         1 <0>         0.1449
     39 H12        -4.0571    3.8223   -5.7114 H         1 <0>         0.1368
     40 H13        -0.5418    1.4365   -5.2193 H         1 <0>         0.1333
     41 H14         0.2561    0.8997   -2.9169 H         1 <0>         0.1491
     42 H15        -1.4143    2.0236   -7.3777 H         1 <0>         0.4039
     43 H16        -2.7952    2.9611   -7.5705 H         1 <0>         0.4034
     44 H17        -4.1739    5.1639    4.3201 H         1 <0>         0.3940
@<TRIPOS>BOND
     1    1    2 1
     2    1   28 1
     3    1   29 1
     4    1   30 1
     5    2    3 1
     6    2   31 1
     7    2   32 1
     8    3   13 1
     9    3    4 1
    10    3   27 1
    11    4   10 2
    12    4    5 1
    13    5    6 2
    14    5   33 1
    15    6   17 1
    16    6    7 1
    17    7    8 am
    18    7   15 1
    19    8    9 2
    20    8   10 1
    21   10   11 1
    22   11   12 1
    23   11   34 1
    24   11   35 1
    25   12   13 1
    26   13   14 2
    27   15   16 1
    28   15   36 1
    29   15   37 1
    30   16   25 ar
    31   16   17 ar
    32   17   18 ar
    33   18   19 ar
    34   19   24 ar
    35   19   20 ar
    36   20   21 ar
    37   20   38 1
    38   21   22 ar
    39   21   39 1
    40   22   23 ar
    41   22   26 1
    42   23   24 ar
    43   23   40 1
    44   24   25 ar
    45   25   41 1
    46   26   42 1
    47   26   43 1
    48   27   44 1
@<TRIPOS>MOLECULE
ZINC05140055
   42    46     0     0     0
SMALL
USER_CHARGES
chloro-ethyl-hydroxy-BLAHdione
@<TRIPOS>ATOM
      1 C1         -5.6307    3.2061    5.0716 C.3       1 <0>        -0.1646
      2 C2         -4.6690    2.5710    4.0653 C.3       1 <0>        -0.1411
      3 C3         -3.3417    3.3320    4.0780 C.3       1 <0>         0.1363
      4 C4         -2.3926    2.7073    3.0866 C.2       1 <0>         0.0369
      5 C5         -2.6463    2.8723    1.7183 C.2       1 <0>        -0.1410
      6 C6         -1.8067    2.3054    0.7838 C.2       1 <0>         0.1878
      7 N1         -0.7278    1.5732    1.1950 N.am      1 <0>        -0.4954
      8 C7         -0.4778    1.4023    2.5064 C.2       1 <0>         0.5495
      9 O1          0.4833    0.7355    2.8541 O.2       1 <0>        -0.5306
     10 C8         -1.3118    1.9844    3.4838 C.2       1 <0>        -0.2255
     11 C9         -0.9629    1.7840    4.9347 C.3       1 <0>         0.1438
     12 O2         -2.0936    2.1135    5.7834 O.3       1 <0>        -0.3648
     13 C10        -2.7302    3.2621    5.4583 C.2       1 <0>         0.4717
     14 O3         -2.8064    4.1860    6.2332 O.2       1 <0>        -0.4242
     15 C11        -0.0127    1.0858    0.0080 C.3       1 <0>         0.1427
     16 C12        -0.7694    1.5988   -1.1900 C.ar      1 <0>        -0.1536
     17 C13        -1.8574    2.3394   -0.6968 C.ar      1 <0>         0.1779
     18 N2         -2.7127    2.9202   -1.5235 N.ar      1 <0>        -0.4277
     19 C14        -2.5759    2.8237   -2.8464 C.ar      1 <0>         0.1381
     20 C15        -3.4937    3.4446   -3.7149 C.ar      1 <0>        -0.0682
     21 C16        -3.3324    3.3324   -5.0606 C.ar      1 <0>        -0.0906
     22 C17        -2.2692    2.6086   -5.6003 C.ar      1 <0>        -0.0206
     23 C18        -1.3608    1.9933   -4.7917 C.ar      1 <0>        -0.0862
     24 C19        -1.4959    2.0882   -3.3985 C.ar      1 <0>        -0.0786
     25 C20        -0.5771    1.4654   -2.5293 C.ar      1 <0>        -0.0171
     26 Cl1        -2.1006    2.4904   -7.3241 Cl        1 <0>        -0.0516
     27 O4         -3.5705    4.6978    3.7253 O.3       1 <0>        -0.5239
     28 H1         -5.1949    3.1599    6.0696 H         1 <0>         0.0598
     29 H2         -5.8061    4.2470    4.7995 H         1 <0>         0.0645
     30 H3         -6.5763    2.6640    5.0625 H         1 <0>         0.0752
     31 H4         -5.1047    2.6172    3.0672 H         1 <0>         0.0965
     32 H5         -4.4936    1.5302    4.3374 H         1 <0>         0.0889
     33 H6         -3.5023    3.4460    1.3950 H         1 <0>         0.1644
     34 H7         -0.1205    2.4255    5.1936 H         1 <0>         0.0963
     35 H8         -0.6836    0.7429    5.0965 H         1 <0>         0.1358
     36 H9          0.0021   -0.0041    0.0020 H         1 <0>         0.1194
     37 H10         1.0061    1.4731    0.0004 H         1 <0>         0.1189
     38 H11        -4.3226    4.0089   -3.3138 H         1 <0>         0.1529
     39 H12        -4.0394    3.8108   -5.7221 H         1 <0>         0.1481
     40 H13        -0.5413    1.4360   -5.2211 H         1 <0>         0.1485
     41 H14         0.2568    0.8988   -2.9166 H         1 <0>         0.1566
     42 H15        -4.1733    5.1624    4.3218 H         1 <0>         0.3950
@<TRIPOS>BOND
     1    1    2 1
     2    1   28 1
     3    1   29 1
     4    1   30 1
     5    2    3 1
     6    2   31 1
     7    2   32 1
     8    3   13 1
     9    3    4 1
    10    3   27 1
    11    4   10 2
    12    4    5 1
    13    5    6 2
    14    5   33 1
    15    6   17 1
    16    6    7 1
    17    7    8 am
    18    7   15 1
    19    8    9 2
    20    8   10 1
    21   10   11 1
    22   11   12 1
    23   11   34 1
    24   11   35 1
    25   12   13 1
    26   13   14 2
    27   15   16 1
    28   15   36 1
    29   15   37 1
    30   16   25 ar
    31   16   17 ar
    32   17   18 ar
    33   18   19 ar
    34   19   24 ar
    35   19   20 ar
    36   20   21 ar
    37   20   38 1
    38   21   22 ar
    39   21   39 1
    40   22   23 ar
    41   22   26 1
    42   23   24 ar
    43   23   40 1
    44   24   25 ar
    45   25   41 1
    46   27   42 1
@<TRIPOS>MOLECULE
ZINC01625746
   52    56     0     0     0
SMALL
USER_CHARGES

@<TRIPOS>ATOM
      1 C1         -0.0579    1.5303    0.0528 C.3       1 <0>        -0.1657
      2 C2         -0.0305    0.0007    0.0363 C.3       1 <0>        -0.1407
      3 C3          0.6822   -0.4830   -1.2283 C.3       1 <0>         0.1365
      4 C4          0.7246   -1.9907   -1.2392 C.2       1 <0>         0.0331
      5 C5         -0.4622   -2.6980   -1.4707 C.2       1 <0>        -0.1280
      6 C6         -0.4574   -4.0764   -1.4778 C.2       1 <0>         0.1732
      7 N1          0.7084   -4.7526   -1.2546 N.am      1 <0>        -0.4975
      8 C7          1.8556   -4.0839   -1.0292 C.2       1 <0>         0.5499
      9 O1          2.8851   -4.7056   -0.8226 O.2       1 <0>        -0.5266
     10 C8          1.8814   -2.6738   -1.0292 C.2       1 <0>        -0.2173
     11 C9          3.1992   -1.9793   -0.8119 C.3       1 <0>         0.1406
     12 O2          2.9990   -0.6061   -0.4742 O.3       1 <0>        -0.3585
     13 C10         2.0987    0.0453   -1.2449 C.2       1 <0>         0.4698
     14 O3          2.4109    1.0020   -1.9136 O.2       1 <0>        -0.4189
     15 C11         0.4339   -6.1944   -1.3144 C.3       1 <0>         0.1423
     16 C12        -1.0387   -6.3383   -1.6004 C.ar      1 <0>        -0.1436
     17 C13        -1.5632   -5.0386   -1.6966 C.ar      1 <0>         0.1886
     18 N2         -2.8490   -4.8439   -1.9448 N.ar      1 <0>        -0.4231
     19 C14        -3.6887   -5.8673   -2.1103 C.ar      1 <0>         0.1556
     20 C15        -5.0536   -5.6450   -2.3710 C.ar      1 <0>        -0.0797
     21 C16        -5.8971   -6.7004   -2.5357 C.ar      1 <0>        -0.0824
     22 C17        -5.4367   -8.0109   -2.4517 C.ar      1 <0>        -0.1018
     23 C18        -4.1066   -8.2737   -2.1989 C.ar      1 <0>         0.1350
     24 C19        -3.2109   -7.1995   -2.0233 C.ar      1 <0>        -0.0953
     25 C20        -1.8462   -7.4216   -1.7611 C.ar      1 <0>        -0.0367
     26 N3         -3.6521   -9.5904   -2.1165 N.am      1 <0>        -0.6394
     27 C21        -4.3221  -10.5753   -2.7470 C.2       1 <0>         0.4945
     28 O4         -5.2603  -10.3061   -3.4670 O.2       1 <0>        -0.5042
     29 C22        -3.9055  -12.0112   -2.5575 C.3       1 <0>        -0.0242
     30 N4         -4.7861  -12.8845   -3.3447 N.4       1 <0>        -0.6211
     31 O5         -0.0178   -0.0128   -2.3819 O.3       1 <0>        -0.5246
     32 H1          0.9630    1.9121    0.0425 H         1 <0>         0.0608
     33 H2         -0.5905    1.8937   -0.8260 H         1 <0>         0.0649
     34 H3         -0.5656    1.8749    0.9537 H         1 <0>         0.0764
     35 H4          0.5022   -0.3627    0.9151 H         1 <0>         0.0892
     36 H5         -1.0514   -0.3812    0.0465 H         1 <0>         0.0960
     37 H6         -1.3836   -2.1619   -1.6436 H         1 <0>         0.1658
     38 H7          3.7358   -2.4733   -0.0018 H         1 <0>         0.1370
     39 H8          3.7923   -2.0415   -1.7243 H         1 <0>         0.0948
     40 H9          1.0164   -6.6529   -2.1135 H         1 <0>         0.1182
     41 H10         0.6764   -6.6609   -0.3596 H         1 <0>         0.1196
     42 H11        -5.4322   -4.6359   -2.4402 H         1 <0>         0.1506
     43 H12        -6.9427   -6.5174   -2.7348 H         1 <0>         0.1465
     44 H13        -6.1275   -8.8301   -2.5861 H         1 <0>         0.1526
     45 H14        -1.4507   -8.4240   -1.6899 H         1 <0>         0.1436
     46 H15        -2.8540   -9.7969   -1.6053 H         1 <0>         0.4209
     47 H16        -2.8756  -12.1377   -2.8913 H         1 <0>         0.1687
     48 H17        -3.9806  -12.2751   -1.5027 H         1 <0>         0.1703
     49 H18        -5.7395  -12.7674   -3.0358 H         1 <0>         0.4440
     50 H19        -4.7166  -12.6402   -4.3212 H         1 <0>         0.4442
     51 H20        -0.0777    0.9506   -2.4401 H         1 <0>         0.3974
     52 H21        -4.5072  -13.8458   -3.2179 H         1 <0>         0.4485
@<TRIPOS>BOND
     1    1    2 1
     2    1   32 1
     3    1   33 1
     4    1   34 1
     5    2    3 1
     6    2   35 1
     7    2   36 1
     8    3   13 1
     9    3    4 1
    10    3   31 1
    11    4   10 2
    12    4    5 1
    13    5    6 2
    14    5   37 1
    15    6   17 1
    16    6    7 1
    17    7    8 am
    18    7   15 1
    19    8    9 2
    20    8   10 1
    21   10   11 1
    22   11   12 1
    23   11   38 1
    24   11   39 1
    25   12   13 1
    26   13   14 2
    27   15   16 1
    28   15   40 1
    29   15   41 1
    30   16   25 ar
    31   16   17 ar
    32   17   18 ar
    33   18   19 ar
    34   19   24 ar
    35   19   20 ar
    36   20   21 ar
    37   20   42 1
    38   21   22 ar
    39   21   43 1
    40   22   23 ar
    41   22   44 1
    42   23   24 ar
    43   23   26 1
    44   24   25 ar
    45   25   45 1
    46   26   27 am
    47   26   46 1
    48   27   28 2
    49   27   29 1
    50   29   30 1
    51   29   47 1
    52   29   48 1
    53   30   49 1
    54   30   50 1
    55   30   52 1
    56   31   51 1
@<TRIPOS>MOLECULE
ZINC13000556
   52    56     0     0     0
SMALL
USER_CHARGES
2-amino-N-(ethyl-hydroxy-dioxo-BLAHyl)acetamide
@<TRIPOS>ATOM
      1 C1          0.9154    2.7010    2.3736 C.3       1 <0>        -0.1652
      2 C2          1.9143    2.0822    1.3937 C.3       1 <0>        -0.1405
      3 C3          1.3187    2.0915   -0.0156 C.3       1 <0>         0.1356
      4 C4          2.2430    1.3634   -0.9588 C.2       1 <0>         0.0344
      5 C5          3.4589    1.9670   -1.3072 C.2       1 <0>        -0.1285
      6 C6          4.3403    1.3187   -2.1453 C.2       1 <0>         0.1733
      7 N1          4.0268    0.0834   -2.6366 N.am      1 <0>        -0.4975
      8 C7          2.8607   -0.5067   -2.3107 C.2       1 <0>         0.5501
      9 O1          2.6006   -1.6132   -2.7546 O.2       1 <0>        -0.5266
     10 C8          1.9363    0.1386   -1.4626 C.2       1 <0>        -0.2165
     11 C9          0.6394   -0.5607   -1.1524 C.3       1 <0>         0.1414
     12 O2         -0.0041    0.0416    0.0011 O.3       1 <0>        -0.3631
     13 C10        -0.0220    1.3941   -0.0024 C.2       1 <0>         0.4704
     14 O3         -1.0590    2.0143   -0.0002 O.2       1 <0>        -0.4203
     15 C11         5.1293   -0.3753   -3.4922 C.3       1 <0>         0.1425
     16 C12         6.1661    0.7182   -3.4778 C.ar      1 <0>        -0.1435
     17 C13         5.6675    1.7400   -2.6526 C.ar      1 <0>         0.1884
     18 N2          6.3670    2.8445   -2.4445 N.ar      1 <0>        -0.4232
     19 C14         7.5634    3.0268   -3.0056 C.ar      1 <0>         0.1556
     20 C15         8.2965    4.2051   -2.7722 C.ar      1 <0>        -0.0797
     21 C16         9.5160    4.3751   -3.3519 C.ar      1 <0>        -0.0825
     22 C17        10.0625    3.3997   -4.1806 C.ar      1 <0>        -0.1018
     23 C18         9.3777    2.2301   -4.4355 C.ar      1 <0>         0.1350
     24 C19         8.1126    2.0272   -3.8480 C.ar      1 <0>        -0.0953
     25 C20         7.3795    0.8484   -4.0796 C.ar      1 <0>        -0.0366
     26 N3          9.9319    1.2567   -5.2676 N.am      1 <0>        -0.6397
     27 C21        11.2687    1.1850   -5.4234 C.2       1 <0>         0.4940
     28 O4         11.9951    1.8991   -4.7652 O.2       1 <0>        -0.5048
     29 C22        11.8608    0.2175   -6.4155 C.3       1 <0>        -0.0198
     30 O5          1.1514    3.4404   -0.4566 O.3       1 <0>        -0.5247
     31 H1         -0.0079    2.1217    2.3656 H         1 <0>         0.0603
     32 H2          1.3397    2.6943    3.3776 H         1 <0>         0.0762
     33 H3          0.7028    3.7277    2.0758 H         1 <0>         0.0645
     34 H4          2.1269    1.0554    1.6915 H         1 <0>         0.0889
     35 H5          2.8376    2.6614    1.4018 H         1 <0>         0.0964
     36 H6          3.7059    2.9437   -0.9179 H         1 <0>         0.1659
     37 H7          0.8389   -1.6118   -0.9443 H         1 <0>         0.1370
     38 H8         -0.0239   -0.4848   -2.0140 H         1 <0>         0.0983
     39 H9          5.5529   -1.2972   -3.0937 H         1 <0>         0.1188
     40 H10         4.7707   -0.5380   -4.5086 H         1 <0>         0.1191
     41 H11         7.8912    4.9750   -2.1324 H         1 <0>         0.1506
     42 H12        10.0696    5.2835   -3.1657 H         1 <0>         0.1464
     43 H13        11.0323    3.5601   -4.6282 H         1 <0>         0.1527
     44 H14         7.7697    0.0682   -4.7163 H         1 <0>         0.1436
     45 H15         9.3550    0.6316   -5.7339 H         1 <0>         0.4209
     46 H16        11.5720   -0.7991   -6.1485 H         1 <0>         0.1667
     47 H17        11.4914    0.4497   -7.4144 H         1 <0>         0.1709
     48 H18        13.7463   -0.3079   -7.0538 H         1 <0>         0.4505
     49 H19        13.6166    1.2803   -6.5775 H         1 <0>         0.4463
     50 H20         0.5624    3.9665    0.1013 H         1 <0>         0.3974
     51 N4         13.3299    0.3246   -6.3724 N.4       1 <0>        -0.6306
     52 H21        13.6594    0.0700   -5.4339 H         1 <0>         0.4483
@<TRIPOS>BOND
     1    1    2 1
     2    1   31 1
     3    1   32 1
     4    1   33 1
     5    2    3 1
     6    2   34 1
     7    2   35 1
     8    3   13 1
     9    3    4 1
    10    3   30 1
    11    4   10 2
    12    4    5 1
    13    5    6 2
    14    5   36 1
    15    6   17 1
    16    6    7 1
    17    7    8 am
    18    7   15 1
    19    8    9 2
    20    8   10 1
    21   10   11 1
    22   11   12 1
    23   11   37 1
    24   11   38 1
    25   12   13 1
    26   13   14 2
    27   15   16 1
    28   15   39 1
    29   15   40 1
    30   16   25 ar
    31   16   17 ar
    32   17   18 ar
    33   18   19 ar
    34   19   24 ar
    35   19   20 ar
    36   20   21 ar
    37   20   41 1
    38   21   22 ar
    39   21   42 1
    40   22   23 ar
    41   22   43 1
    42   23   24 ar
    43   23   26 1
    44   24   25 ar
    45   25   44 1
    46   26   27 am
    47   26   45 1
    48   27   28 2
    49   27   29 1
    50   29   46 1
    51   29   47 1
    52   29   51 1
    53   30   50 1
    54   48   51 1
    55   49   51 1
    56   51   52 1
@<TRIPOS>MOLECULE
ZINC04099013
   49    53     0     0     0
SMALL
USER_CHARGES

@<TRIPOS>ATOM
      1 C1         -0.0187    1.5258    0.0104 C.3       1 <0>        -0.1487
      2 C2          0.0021   -0.0041    0.0020 C.3       1 <0>        -0.0955
      3 C3          0.7309   -0.5033    1.2229 C.ar      1 <0>         0.0146
      4 C4          2.1240   -0.7202    1.1971 C.ar      1 <0>        -0.0673
      5 C5          2.8764   -0.4787    0.0390 C.ar      1 <0>        -0.1298
      6 C6          4.2251   -0.7005    0.0513 C.ar      1 <0>         0.1273
      7 C7          4.8625   -1.1662    1.2061 C.ar      1 <0>        -0.1197
      8 C8          4.1605   -1.4095    2.3442 C.ar      1 <0>        -0.0662
      9 C9          2.7692   -1.1916    2.3695 C.ar      1 <0>         0.1310
     10 N1          2.0614   -1.4220    3.4756 N.ar      1 <0>        -0.4296
     11 C10         0.7536   -1.2209    3.5135 C.ar      1 <0>         0.1738
     12 C11         0.0647   -0.7516    2.3814 C.ar      1 <0>        -0.1564
     13 C12        -1.3859   -0.6324    2.7723 C.3       1 <0>         0.1449
     14 N2         -1.4753   -1.0521    4.1772 N.am      1 <0>        -0.4947
     15 C13        -0.2273   -1.4020    4.6090 C.2       1 <0>         0.1930
     16 C14        -0.0462   -1.8285    5.9077 C.2       1 <0>        -0.1451
     17 C15        -1.1412   -1.9284    6.7751 C.2       1 <0>         0.0375
     18 C16        -2.3835   -1.6044    6.3261 C.2       1 <0>        -0.2303
     19 C17        -2.5345   -1.1338    5.0052 C.2       1 <0>         0.5491
     20 O1         -3.6414   -0.8163    4.6011 O.2       1 <0>        -0.5315
     21 C18        -3.6096   -1.7246    7.1912 C.3       1 <0>         0.1435
     22 O2         -3.2499   -1.8210    8.5699 O.3       1 <0>        -0.3605
     23 C19        -2.2416   -2.6814    8.8378 C.2       1 <0>         0.4717
     24 O3         -2.4000   -3.6396    9.5566 O.2       1 <0>        -0.4236
     25 C20        -0.9064   -2.3855    8.1932 C.3       1 <0>         0.1371
     26 C21        -0.1926   -1.2816    8.9760 C.3       1 <0>        -0.1409
     27 C22         0.0444   -1.7477   10.4139 C.3       1 <0>        -0.1645
     28 O4         -0.1043   -3.5681    8.1885 O.3       1 <0>        -0.5232
     29 O5          4.9546   -0.4665   -1.0707 O.3       1 <0>        -0.4947
     30 H1          1.0039    1.9031    0.0027 H         1 <0>         0.0597
     31 H2         -0.5459    1.8868   -0.8726 H         1 <0>         0.0701
     32 H3         -0.5289    1.8773    0.9072 H         1 <0>         0.0587
     33 H4         -1.0205   -0.3814    0.0098 H         1 <0>         0.0857
     34 H5          0.5123   -0.3556   -0.8948 H         1 <0>         0.0876
     35 H6          2.3932   -0.1198   -0.8578 H         1 <0>         0.1440
     36 H7          5.9291   -1.3354    1.1930 H         1 <0>         0.1437
     37 H8          4.6682   -1.7694    3.2269 H         1 <0>         0.1482
     38 H9         -1.7170    0.4009    2.6691 H         1 <0>         0.1167
     39 H10        -1.9960   -1.2850    2.1478 H         1 <0>         0.1161
     40 H11         0.9427   -2.0865    6.2569 H         1 <0>         0.1639
     41 H12        -4.2390   -0.8467    7.0453 H         1 <0>         0.1351
     42 H13        -4.1663   -2.6161    6.9025 H         1 <0>         0.0921
     43 H14         0.7645   -1.0615    8.5030 H         1 <0>         0.0965
     44 H15        -0.8098   -0.3833    8.9823 H         1 <0>         0.0890
     45 H16        -0.9127   -1.9678   10.8869 H         1 <0>         0.0598
     46 H17         0.6617   -2.6460   10.4076 H         1 <0>         0.0644
     47 H18         0.5530   -0.9613   10.9716 H         1 <0>         0.0751
     48 H19         0.0861   -3.9177    9.0698 H         1 <0>         0.3947
     49 H20         5.3005    0.4343   -1.1342 H         1 <0>         0.3977
@<TRIPOS>BOND
     1    1    2 1
     2    1   30 1
     3    1   31 1
     4    1   32 1
     5    2    3 1
     6    2   33 1
     7    2   34 1
     8    3   12 ar
     9    3    4 ar
    10    4    9 ar
    11    4    5 ar
    12    5    6 ar
    13    5   35 1
    14    6    7 ar
    15    6   29 1
    16    7    8 ar
    17    7   36 1
    18    8    9 ar
    19    8   37 1
    20    9   10 ar
    21   10   11 ar
    22   11   15 1
    23   11   12 ar
    24   12   13 1
    25   13   14 1
    26   13   38 1
    27   13   39 1
    28   14   19 am
    29   14   15 1
    30   15   16 2
    31   16   17 1
    32   16   40 1
    33   17   25 1
    34   17   18 2
    35   18   19 1
    36   18   21 1
    37   19   20 2
    38   21   22 1
    39   21   41 1
    40   21   42 1
    41   22   23 1
    42   23   24 2
    43   23   25 1
    44   25   26 1
    45   25   28 1
    46   26   27 1
    47   26   43 1
    48   26   44 1
    49   27   45 1
    50   27   46 1
    51   27   47 1
    52   28   48 1
    53   29   49 1
@<TRIPOS>MOLECULE
ZINC03954245
   44    47     0     0     0
SMALL
USER_CHARGES

@<TRIPOS>ATOM
      1 C1         -2.1067  -11.8991    3.3679 C.3       1 <0>        -0.1400
      2 C2         -0.5890  -11.9993    3.2020 C.3       1 <0>        -0.1239
      3 C3         -0.0531  -10.6931    2.6124 C.3       1 <0>         0.1092
      4 C4          1.2986  -10.9388    1.9932 C.2       1 <0>         0.0058
      5 C5          1.4086  -11.2202    0.6283 C.2       1 <0>        -0.1212
      6 C6          2.6497  -11.4442    0.0684 C.2       1 <0>         0.1299
      7 N1          3.7703  -11.3909    0.8477 N.am      1 <0>        -0.5026
      8 C7          3.6786  -11.1211    2.1660 C.2       1 <0>         0.5425
      9 O1          4.6899  -11.0769    2.8475 O.2       1 <0>        -0.5547
     10 C8          2.4269  -10.8832    2.7585 C.2       1 <0>        -0.1457
     11 C9          2.3306  -10.5747    4.2305 C.3       1 <0>         0.1000
     12 O2          1.1361  -11.1524    4.7611 O.3       1 <0>        -0.5274
     13 C10         4.9424  -11.6639    0.0056 C.3       1 <0>         0.1472
     14 C11         4.4224  -11.8937   -1.3901 C.ar      1 <0>        -0.1580
     15 C12         3.0249  -11.7557   -1.3311 C.ar      1 <0>         0.1998
     16 N2          2.2829  -11.9040   -2.4171 N.ar      1 <0>        -0.4460
     17 C13         2.8296  -12.1880   -3.5998 C.ar      1 <0>         0.1396
     18 C14         2.0294  -12.3427   -4.7477 C.ar      1 <0>        -0.0874
     19 C15         2.6116  -12.6320   -5.9427 C.ar      1 <0>        -0.1007
     20 C16         3.9932  -12.7789   -6.0532 C.ar      1 <0>        -0.1147
     21 C17         4.8003  -12.6367   -4.9655 C.ar      1 <0>        -0.0938
     22 C18         4.2352  -12.3382   -3.7163 C.ar      1 <0>        -0.0981
     23 C19         5.0374  -12.1829   -2.5676 C.ar      1 <0>        -0.0283
     24 C20         0.0747   -9.6636    3.7054 C.2       1 <0>         0.5549
     25 O3          0.9289   -8.7970    3.6298 O.co2     1 <0>        -0.6923
     26 O4         -0.6761   -9.6974    4.6655 O.co2     1 <0>        -0.6808
     27 O5         -0.9556  -10.2164    1.6122 O.3       1 <0>        -0.5408
     28 H1         -2.5676  -11.7232    2.3960 H         1 <0>         0.0382
     29 H2         -2.4885  -12.8296    3.7880 H         1 <0>         0.0343
     30 H3         -2.3452  -11.0731    4.0380 H         1 <0>         0.0819
     31 H4         -0.1281  -12.1752    4.1740 H         1 <0>         0.1128
     32 H5         -0.3505  -12.8252    2.5320 H         1 <0>         0.0287
     33 H6          0.5225  -11.2627    0.0124 H         1 <0>         0.1460
     34 H7          3.1958  -10.9912    4.7463 H         1 <0>         0.0366
     35 H8          2.3069   -9.4946    4.3746 H         1 <0>         0.1296
     36 H9          1.0195  -11.0121    5.7107 H         1 <0>         0.3749
     37 H10         5.6179  -10.8086    0.0166 H         1 <0>         0.1080
     38 H11         5.4600  -12.5541    0.3628 H         1 <0>         0.1071
     39 H12         0.9572  -12.2326   -4.6797 H         1 <0>         0.1396
     40 H13         1.9931  -12.7500   -6.8201 H         1 <0>         0.1321
     41 H14         4.4295  -13.0090   -7.0141 H         1 <0>         0.1291
     42 H15         5.8695  -12.7533   -5.0638 H         1 <0>         0.1324
     43 H16         6.1107  -12.2910   -2.6214 H         1 <0>         0.1481
     44 H17        -1.1869  -10.8764    0.9444 H         1 <0>         0.3479
@<TRIPOS>BOND
     1    1    2 1
     2    1   28 1
     3    1   29 1
     4    1   30 1
     5    2    3 1
     6    2   31 1
     7    2   32 1
     8    3    4 1
     9    3   24 1
    10    3   27 1
    11    4   10 2
    12    4    5 1
    13    5    6 2
    14    5   33 1
    15    6   15 1
    16    6    7 1
    17    7    8 am
    18    7   13 1
    19    8    9 2
    20    8   10 1
    21   10   11 1
    22   11   12 1
    23   11   34 1
    24   11   35 1
    25   12   36 1
    26   13   14 1
    27   13   37 1
    28   13   38 1
    29   14   23 ar
    30   14   15 ar
    31   15   16 ar
    32   16   17 ar
    33   17   22 ar
    34   17   18 ar
    35   18   19 ar
    36   18   39 1
    37   19   20 ar
    38   19   40 1
    39   20   21 ar
    40   20   41 1
    41   21   22 ar
    42   21   42 1
    43   22   23 ar
    44   23   43 1
    45   24   25 2
    46   24   26 1
    47   27   44 1
@<TRIPOS>MOLECULE
ZINC13284239
   44    47     0     0     0
SMALL
USER_CHARGES
(2R)-2-hydroxy-2-[8-(hydroxymethyl)-9-oxo-11H-indolizino[1,2-b]quinolin-7-yl]butanoic acid
@<TRIPOS>ATOM
      1 C1          2.3064   -0.9138   -3.0213 C.3       1 <0>        -0.1424
      2 C2          2.1596   -1.1974   -1.5250 C.3       1 <0>        -0.1660
      3 C3          0.6795   -1.3806   -1.1835 C.3       1 <0>         0.1284
      4 C4          0.5532   -2.1305    0.1176 C.2       1 <0>         0.0498
      5 C5         -0.5392   -2.9731    0.3428 C.2       1 <0>        -0.1065
      6 C6         -0.6482   -3.6566    1.5365 C.2       1 <0>         0.1455
      7 N1          0.3113   -3.5096    2.4976 N.am      1 <0>        -0.5025
      8 C7          1.3705   -2.6999    2.2935 C.2       1 <0>         0.5497
      9 O1          2.2182   -2.5800    3.1631 O.2       1 <0>        -0.5600
     10 C8          1.5071   -1.9976    1.0842 C.2       1 <0>        -0.2044
     11 C9          2.6959   -1.0994    0.8584 C.3       1 <0>         0.1089
     12 O2          2.2465    0.2385    0.6350 O.3       1 <0>        -0.5333
     13 C10        -0.0492   -4.3411    3.6534 C.3       1 <0>         0.1475
     14 C11        -1.3456   -5.0241    3.3015 C.ar      1 <0>        -0.1578
     15 C12        -1.6938   -4.5946    2.0092 C.ar      1 <0>         0.1976
     16 N2         -2.7984   -5.0311    1.4251 N.ar      1 <0>        -0.4394
     17 C13        -3.6166   -5.8886    2.0363 C.ar      1 <0>         0.1392
     18 C14        -4.7884   -6.3458    1.4040 C.ar      1 <0>        -0.0850
     19 C15        -5.6058   -7.2217    2.0485 C.ar      1 <0>        -0.1016
     20 C16        -5.3044   -7.6773    3.3308 C.ar      1 <0>        -0.1131
     21 C17        -4.1804   -7.2575    3.9751 C.ar      1 <0>        -0.0952
     22 C18        -3.3134   -6.3545    3.3411 C.ar      1 <0>        -0.0965
     23 C19        -2.1404   -5.8975    3.9753 C.ar      1 <0>        -0.0286
     24 C20         0.0237   -0.0303   -1.0506 C.2       1 <0>         0.5113
     25 O3          0.3973    0.8927   -1.7351 O.co2     1 <0>        -0.6149
     26 O4          0.0386   -2.1210   -2.2242 O.3       1 <0>        -0.5354
     27 H1          1.9030   -1.7509   -3.5910 H         1 <0>         0.0434
     28 H2          1.7600   -0.0052   -3.2742 H         1 <0>         0.0795
     29 H3          3.3609   -0.7833   -3.2646 H         1 <0>         0.0373
     30 H4          2.5630   -0.3603   -0.9552 H         1 <0>         0.1181
     31 H5          2.7060   -2.1060   -1.2721 H         1 <0>         0.0460
     32 H6         -1.2978   -3.0888   -0.4171 H         1 <0>         0.1572
     33 H7          3.3417   -1.1240    1.7362 H         1 <0>         0.0582
     34 H8          3.2529   -1.4458   -0.0121 H         1 <0>         0.0841
     35 H9          2.9590    0.8912    0.5947 H         1 <0>         0.3733
     36 H10        -0.1838   -3.7159    4.5361 H         1 <0>         0.1082
     37 H11         0.7269   -5.0841    3.8369 H         1 <0>         0.1084
     38 H12        -5.0371   -6.0030    0.4105 H         1 <0>         0.1408
     39 H13        -6.5033   -7.5694    1.5586 H         1 <0>         0.1324
     40 H14        -5.9711   -8.3720    3.8199 H         1 <0>         0.1291
     41 H15        -3.9578   -7.6174    4.9688 H         1 <0>         0.1323
     42 H16        -1.8800   -6.2321    4.9686 H         1 <0>         0.1482
     43 H17         0.3873   -3.0151   -2.3429 H         1 <0>         0.3561
     44 O5         -0.9753    0.1471   -0.1719 O.co2     1 <0>        -0.7478
@<TRIPOS>BOND
     1    1    2 1
     2    1   27 1
     3    1   28 1
     4    1   29 1
     5    2    3 1
     6    2   30 1
     7    2   31 1
     8    3    4 1
     9    3   24 1
    10    3   26 1
    11    4   10 2
    12    4    5 1
    13    5    6 2
    14    5   32 1
    15    6   15 1
    16    6    7 1
    17    7    8 am
    18    7   13 1
    19    8    9 2
    20    8   10 1
    21   10   11 1
    22   11   12 1
    23   11   33 1
    24   11   34 1
    25   12   35 1
    26   13   14 1
    27   13   36 1
    28   13   37 1
    29   14   23 ar
    30   14   15 ar
    31   15   16 ar
    32   16   17 ar
    33   17   22 ar
    34   17   18 ar
    35   18   19 ar
    36   18   38 1
    37   19   20 ar
    38   19   39 1
    39   20   21 ar
    40   20   40 1
    41   21   22 ar
    42   21   41 1
    43   22   23 ar
    44   23   42 1
    45   24   25 2
    46   24   44 1
    47   26   43 1
@<TRIPOS>MOLECULE
ZINC05011446
   46    50     0     0     0
SMALL
USER_CHARGES
ethyl-hydroxy-methoxy-BLAHdione
@<TRIPOS>ATOM
      1 C1         -9.2659    1.5281    9.3348 C.3       1 <0>        -0.1644
      2 C2         -7.8645    1.7197    8.7514 C.3       1 <0>        -0.1412
      3 C3         -7.7155    3.1551    8.2433 C.3       1 <0>         0.1364
      4 C4         -6.3346    3.3457    7.6679 C.2       1 <0>         0.0375
      5 C5         -6.0219    2.7235    6.4517 C.2       1 <0>        -0.1433
      6 C6         -4.7663    2.8664    5.9021 C.2       1 <0>         0.1903
      7 N1         -3.8213    3.6096    6.5505 N.am      1 <0>        -0.4945
      8 C7         -4.1075    4.2082    7.7225 C.2       1 <0>         0.5492
      9 O1         -3.2473    4.8598    8.2923 O.2       1 <0>        -0.5314
     10 C8         -5.3894    4.0912    8.2996 C.2       1 <0>        -0.2275
     11 C9         -5.6591    4.8073    9.5964 C.3       1 <0>         0.1443
     12 O2         -6.8614    4.2916   10.2257 O.3       1 <0>        -0.3650
     13 C10        -7.9104    4.1215    9.3888 C.2       1 <0>         0.4720
     14 O3         -8.9519    4.7126    9.5493 O.2       1 <0>        -0.4250
     15 C11        -2.5854    3.5939    5.7566 C.3       1 <0>         0.1450
     16 C12        -2.8699    2.7541    4.5381 C.ar      1 <0>        -0.1722
     17 C13        -4.2020    2.3210    4.6449 C.ar      1 <0>         0.1847
     18 N2         -4.7432    1.5562    3.7096 N.ar      1 <0>        -0.4347
     19 C14        -4.0479    1.1694    2.6388 C.ar      1 <0>         0.1712
     20 C15        -4.6359    0.3548    1.6534 C.ar      1 <0>        -0.1270
     21 C16        -3.9115   -0.0315    0.5680 C.ar      1 <0>        -0.0518
     22 C17        -2.5886    0.3703    0.4045 C.ar      1 <0>        -0.2122
     23 C18        -1.9737    1.1634    1.3481 C.ar      1 <0>         0.1567
     24 C19        -2.6990    1.5779    2.4820 C.ar      1 <0>        -0.1080
     25 C20        -2.1113    2.3925    3.4683 C.ar      1 <0>         0.0031
     26 O4         -0.6816    1.5467    1.1837 O.3       1 <0>        -0.3099
     27 C21        -0.0127    1.0858    0.0080 C.3       1 <0>         0.0244
     28 O5         -8.6935    3.4083    7.2326 O.3       1 <0>        -0.5236
     29 H1         -9.4136    2.2233   10.1613 H         1 <0>         0.0597
     30 H2        -10.0104    1.7191    8.5619 H         1 <0>         0.0644
     31 H3         -9.3721    0.5055    9.6968 H         1 <0>         0.0750
     32 H4         -7.7168    1.0245    7.9250 H         1 <0>         0.0967
     33 H5         -7.1200    1.5287    9.5243 H         1 <0>         0.0888
     34 H6         -6.7676    2.1304    5.9433 H         1 <0>         0.1643
     35 H7         -5.7852    5.8719    9.3993 H         1 <0>         0.0958
     36 H8         -4.8127    4.6648   10.2682 H         1 <0>         0.1354
     37 H9         -2.3202    4.6080    5.4580 H         1 <0>         0.1170
     38 H10        -1.7750    3.1511    6.3357 H         1 <0>         0.1177
     39 H11        -5.6623    0.0358    1.7587 H         1 <0>         0.1436
     40 H12        -4.3723   -0.6575   -0.1817 H         1 <0>         0.1390
     41 H13        -2.0377    0.0534   -0.4687 H         1 <0>         0.1387
     42 H14        -1.0865    2.7213    3.3782 H         1 <0>         0.1562
     43 H15         0.0021   -0.0041    0.0020 H         1 <0>         0.0616
     44 H16         1.0099    1.4631    0.0003 H         1 <0>         0.1069
     45 H17        -0.5399    1.4469   -0.8751 H         1 <0>         0.0616
     46 H18        -9.6064    3.3040    7.5339 H         1 <0>         0.3946
@<TRIPOS>BOND
     1    1    2 1
     2    1   29 1
     3    1   30 1
     4    1   31 1
     5    2    3 1
     6    2   32 1
     7    2   33 1
     8    3   13 1
     9    3    4 1
    10    3   28 1
    11    4   10 2
    12    4    5 1
    13    5    6 2
    14    5   34 1
    15    6   17 1
    16    6    7 1
    17    7    8 am
    18    7   15 1
    19    8    9 2
    20    8   10 1
    21   10   11 1
    22   11   12 1
    23   11   35 1
    24   11   36 1
    25   12   13 1
    26   13   14 2
    27   15   16 1
    28   15   37 1
    29   15   38 1
    30   16   25 ar
    31   16   17 ar
    32   17   18 ar
    33   18   19 ar
    34   19   24 ar
    35   19   20 ar
    36   20   21 ar
    37   20   39 1
    38   21   22 ar
    39   21   40 1
    40   22   23 ar
    41   22   41 1
    42   23   24 ar
    43   23   26 1
    44   24   25 ar
    45   25   42 1
    46   26   27 1
    47   27   43 1
    48   27   44 1
    49   27   45 1
    50   28   46 1
@<TRIPOS>MOLECULE
ZINC13382850
   46    50     0     0     0
SMALL
USER_CHARGES
ethyl-hydroxy-methoxy-BLAHdione
@<TRIPOS>ATOM
      1 C1          0.9224    2.6383    2.3942 C.3       1 <0>        -0.1641
      2 C2          1.9207    2.0267    1.4092 C.3       1 <0>        -0.1410
      3 C3          1.3243    2.0461    0.0004 C.3       1 <0>         0.1363
      4 C4          2.2485    1.3254   -0.9484 C.2       1 <0>         0.0376
      5 C5          3.4644    1.9315   -1.2925 C.2       1 <0>        -0.1433
      6 C6          4.3452    1.2899   -2.1362 C.2       1 <0>         0.1903
      7 N1          4.0315    0.0582   -2.6367 N.am      1 <0>        -0.4945
      8 C7          2.8657   -0.5342   -2.3147 C.2       1 <0>         0.5491
      9 O1          2.6056   -1.6375   -2.7666 O.2       1 <0>        -0.5315
     10 C8          1.9416    0.1045   -1.4616 C.2       1 <0>        -0.2278
     11 C9          0.6448   -0.5971   -1.1566 C.3       1 <0>         0.1444
     12 O2          0.0021   -0.0041    0.0020 O.3       1 <0>        -0.3652
     13 C10        -0.0163    1.3484    0.0095 C.2       1 <0>         0.4725
     14 O3         -1.0534    1.9683    0.0178 O.2       1 <0>        -0.4253
     15 C11         5.1333   -0.3938   -3.4967 C.3       1 <0>         0.1450
     16 C12         6.1699    0.6999   -3.4749 C.ar      1 <0>        -0.1722
     17 C13         5.6718    1.7154   -2.6418 C.ar      1 <0>         0.1848
     18 N2          6.3706    2.8190   -2.4267 N.ar      1 <0>        -0.4348
     19 C14         7.5660    3.0064   -2.9883 C.ar      1 <0>         0.1713
     20 C15         8.2980    4.1841   -2.7490 C.ar      1 <0>        -0.1270
     21 C16         9.5169    4.3581   -3.3285 C.ar      1 <0>        -0.0518
     22 C17        10.0625    3.3874   -4.1640 C.ar      1 <0>        -0.2122
     23 C18         9.3787    2.2206   -4.4254 C.ar      1 <0>         0.1567
     24 C19         8.1155    2.0129   -3.8381 C.ar      1 <0>        -0.1080
     25 C20         7.3829    0.8345   -4.0763 C.ar      1 <0>         0.0031
     26 O4          9.9177    1.2789   -5.2416 O.3       1 <0>        -0.3099
     27 C21        11.2025    1.5624   -5.7993 C.3       1 <0>         0.0244
     28 O5          1.1565    3.3982   -0.4306 O.3       1 <0>        -0.5235
     29 H1          1.3473    2.6244    3.3979 H         1 <0>         0.0749
     30 H2          0.7095    3.6671    2.1039 H         1 <0>         0.0638
     31 H3         -0.0009    2.0590    2.3824 H         1 <0>         0.0591
     32 H4          2.1337    0.9978    1.6995 H         1 <0>         0.0889
     33 H5          2.8440    2.6060    1.4210 H         1 <0>         0.0973
     34 H6          3.7118    2.9049   -0.8954 H         1 <0>         0.1644
     35 H7          0.8444   -1.6499   -0.9570 H         1 <0>         0.1354
     36 H8         -0.0188   -0.5142   -2.0172 H         1 <0>         0.0958
     37 H9          5.5575   -1.3185   -3.1056 H         1 <0>         0.1175
     38 H10         4.7738   -0.5488   -4.5140 H         1 <0>         0.1171
     39 H11         7.8925    4.9499   -2.1044 H         1 <0>         0.1435
     40 H12        10.0705    5.2655   -3.1373 H         1 <0>         0.1390
     41 H13        11.0318    3.5507   -4.6114 H         1 <0>         0.1387
     42 H14         7.7732    0.0587   -4.7183 H         1 <0>         0.1562
     43 H15        11.5163    0.7307   -6.4300 H         1 <0>         0.1069
     44 H16        11.1461    2.4714   -6.3981 H         1 <0>         0.0616
     45 H17        11.9251    1.7013   -4.9951 H         1 <0>         0.0616
     46 H18         0.5678    3.9200    0.1317 H         1 <0>         0.3947
@<TRIPOS>BOND
     1    1    2 1
     2    1   29 1
     3    1   30 1
     4    1   31 1
     5    2    3 1
     6    2   32 1
     7    2   33 1
     8    3   13 1
     9    3    4 1
    10    3   28 1
    11    4   10 2
    12    4    5 1
    13    5    6 2
    14    5   34 1
    15    6   17 1
    16    6    7 1
    17    7    8 am
    18    7   15 1
    19    8    9 2
    20    8   10 1
    21   10   11 1
    22   11   12 1
    23   11   35 1
    24   11   36 1
    25   12   13 1
    26   13   14 2
    27   15   16 1
    28   15   37 1
    29   15   38 1
    30   16   25 ar
    31   16   17 ar
    32   17   18 ar
    33   18   19 ar
    34   19   24 ar
    35   19   20 ar
    36   20   21 ar
    37   20   39 1
    38   21   22 ar
    39   21   40 1
    40   22   23 ar
    41   22   41 1
    42   23   24 ar
    43   23   26 1
    44   24   25 ar
    45   25   42 1
    46   26   27 1
    47   27   43 1
    48   27   44 1
    49   27   45 1
    50   28   46 1
@<TRIPOS>MOLECULE
ZINC05924106
   43    47     0     0     0
SMALL
USER_CHARGES

@<TRIPOS>ATOM
      1 C1         -0.0187    1.5258    0.0104 C.3       1 <0>        -0.1645
      2 C2          0.0021   -0.0041    0.0020 C.3       1 <0>        -0.1412
      3 C3          0.7182   -0.4975   -1.2568 C.3       1 <0>         0.1372
      4 C4          0.7542   -2.0054   -1.2595 C.2       1 <0>         0.0365
      5 C5         -0.4345   -2.7089   -1.4930 C.2       1 <0>        -0.1429
      6 C6         -0.4356   -4.0873   -1.4927 C.2       1 <0>         0.1900
      7 N1          0.7261   -4.7672   -1.2602 N.am      1 <0>        -0.4950
      8 C7          1.8752   -4.1023   -1.0330 C.2       1 <0>         0.5491
      9 O1          2.9012   -4.7274   -0.8188 O.2       1 <0>        -0.5309
     10 C8          1.9071   -2.6923   -1.0403 C.2       1 <0>        -0.2283
     11 C9          3.2269   -2.0023   -0.8204 C.3       1 <0>         0.1433
     12 O2          3.0310   -0.6264   -0.4915 O.3       1 <0>        -0.3603
     13 C10         2.1370    0.0245   -1.2700 C.2       1 <0>         0.4717
     14 O3          2.4563    0.9763   -1.9424 O.2       1 <0>        -0.4235
     15 C11         0.4457   -6.2082   -1.3135 C.3       1 <0>         0.1434
     16 C12        -1.0260   -6.3473   -1.6060 C.ar      1 <0>        -0.1611
     17 C13        -1.5445   -5.0459   -1.7116 C.ar      1 <0>         0.1780
     18 N2         -2.8280   -4.8469   -1.9679 N.ar      1 <0>        -0.4303
     19 C14        -3.6713   -5.8674   -2.1328 C.ar      1 <0>         0.1505
     20 C15        -5.0336   -5.6406   -2.4027 C.ar      1 <0>        -0.0942
     21 C16        -5.8797   -6.6936   -2.5676 C.ar      1 <0>        -0.0790
     22 C17        -5.4241   -8.0057   -2.4742 C.ar      1 <0>        -0.1312
     23 C18        -4.0984   -8.2716   -2.2117 C.ar      1 <0>         0.1297
     24 O4         -3.6616   -9.5541   -2.1229 O.3       1 <0>        -0.4889
     25 C19        -3.1998   -7.2014   -2.0366 C.ar      1 <0>        -0.1126
     26 C20        -1.8372   -7.4278   -1.7653 C.ar      1 <0>        -0.0113
     27 O5          0.0254   -0.0304   -2.4160 O.3       1 <0>        -0.5234
     28 H1          1.0039    1.9031    0.0027 H         1 <0>         0.0597
     29 H2         -0.5459    1.8868   -0.8726 H         1 <0>         0.0644
     30 H3         -0.5289    1.8773    0.9072 H         1 <0>         0.0751
     31 H4          0.5293   -0.3651    0.8851 H         1 <0>         0.0890
     32 H5         -1.0205   -0.3814    0.0098 H         1 <0>         0.0967
     33 H6         -1.3527   -2.1697   -1.6734 H         1 <0>         0.1642
     34 H7          3.7573   -2.4941   -0.0050 H         1 <0>         0.1354
     35 H8          3.8241   -2.0722   -1.7296 H         1 <0>         0.0925
     36 H9          1.0301   -6.6735   -2.1073 H         1 <0>         0.1176
     37 H10         0.6816   -6.6705   -0.3550 H         1 <0>         0.1184
     38 H11        -5.4079   -4.6304   -2.4787 H         1 <0>         0.1453
     39 H12        -6.9234   -6.5080   -2.7742 H         1 <0>         0.1423
     40 H13        -6.1170   -8.8231   -2.6087 H         1 <0>         0.1413
     41 H14        -1.4463   -8.4316   -1.6868 H         1 <0>         0.1555
     42 H15        -0.0301    0.9329   -2.4795 H         1 <0>         0.3950
     43 H16        -3.3637   -9.9273   -2.9638 H         1 <0>         0.3970
@<TRIPOS>BOND
     1    1    2 1
     2    1   28 1
     3    1   29 1
     4    1   30 1
     5    2    3 1
     6    2   31 1
     7    2   32 1
     8    3   13 1
     9    3    4 1
    10    3   27 1
    11    4   10 2
    12    4    5 1
    13    5    6 2
    14    5   33 1
    15    6   17 1
    16    6    7 1
    17    7    8 am
    18    7   15 1
    19    8    9 2
    20    8   10 1
    21   10   11 1
    22   11   12 1
    23   11   34 1
    24   11   35 1
    25   12   13 1
    26   13   14 2
    27   15   16 1
    28   15   36 1
    29   15   37 1
    30   16   26 ar
    31   16   17 ar
    32   17   18 ar
    33   18   19 ar
    34   19   25 ar
    35   19   20 ar
    36   20   21 ar
    37   20   38 1
    38   21   22 ar
    39   21   39 1
    40   22   23 ar
    41   22   40 1
    42   23   24 1
    43   23   25 ar
    44   24   43 1
    45   25   26 ar
    46   26   41 1
    47   27   42 1
@<TRIPOS>MOLECULE
ZINC13832891
   43    47     0     0     0
SMALL
USER_CHARGES
ethyl-dihydroxy-BLAHdione
@<TRIPOS>ATOM
      1 C1         10.5021   -2.4176   -1.5472 C.3       1 <0>        -0.1642
      2 C2          8.9906   -2.6449   -1.4786 C.3       1 <0>        -0.1409
      3 C3          8.6207   -3.2029   -0.1029 C.3       1 <0>         0.1362
      4 C4          7.1540   -3.5521   -0.0780 C.2       1 <0>         0.0376
      5 C5          6.2153   -2.5114   -0.0643 C.2       1 <0>        -0.1430
      6 C6          4.8663   -2.7935   -0.0561 C.2       1 <0>         0.1901
      7 N1          4.4447   -4.0929   -0.0628 N.am      1 <0>        -0.4951
      8 C7          5.3366   -5.1019   -0.0736 C.2       1 <0>         0.5492
      9 O1          4.9404   -6.2561   -0.0833 O.2       1 <0>        -0.5310
     10 C8          6.7228   -4.8413   -0.0743 C.2       1 <0>        -0.2272
     11 C9          7.6711   -6.0107   -0.0564 C.3       1 <0>         0.1442
     12 O2          9.0106   -5.5895   -0.4246 O.3       1 <0>        -0.3649
     13 C10         9.4298   -4.4497    0.1711 C.2       1 <0>         0.4723
     14 O3         10.4028   -4.4294    0.8872 O.2       1 <0>        -0.4249
     15 C11         2.9760   -4.1105   -0.0543 C.3       1 <0>         0.1435
     16 C12         2.5309   -2.6708   -0.0389 C.ar      1 <0>        -0.1612
     17 C13         3.6955   -1.8849   -0.0418 C.ar      1 <0>         0.1781
     18 N2          3.6201   -0.5632   -0.0327 N.ar      1 <0>        -0.4302
     19 C14         2.4443    0.0671   -0.0197 C.ar      1 <0>         0.1505
     20 C15         2.3795    1.4728   -0.0123 C.ar      1 <0>        -0.0941
     21 C16         1.1714    2.0990    0.0021 C.ar      1 <0>        -0.0790
     22 C17        -0.0166    1.3732    0.0096 C.ar      1 <0>        -0.1311
     23 C18         0.0021   -0.0041    0.0020 C.ar      1 <0>         0.1295
     24 C19         1.2382   -0.6787   -0.0138 C.ar      1 <0>        -0.1125
     25 C20         1.3032   -2.0849   -0.0243 C.ar      1 <0>        -0.0114
     26 O4         -1.1608   -0.7049    0.0093 O.3       1 <0>        -0.4887
     27 O5          8.8975   -2.2235    0.9002 O.3       1 <0>        -0.5236
     28 H1         10.7980   -1.7071   -0.7754 H         1 <0>         0.0638
     29 H2         11.0194   -3.3636   -1.3878 H         1 <0>         0.0593
     30 H3         10.7656   -2.0201   -2.5274 H         1 <0>         0.0750
     31 H4          8.6947   -3.3554   -2.2505 H         1 <0>         0.0888
     32 H5          8.4733   -1.6989   -1.6381 H         1 <0>         0.0972
     33 H6          6.5503   -1.4847   -0.0608 H         1 <0>         0.1642
     34 H7          7.6923   -6.4406    0.9450 H         1 <0>         0.0961
     35 H8          7.3248   -6.7648   -0.7631 H         1 <0>         0.1354
     36 H9          2.6135   -4.6232    0.8366 H         1 <0>         0.1178
     37 H10         2.6029   -4.6074   -0.9499 H         1 <0>         0.1182
     38 H11         3.2891    2.0550   -0.0180 H         1 <0>         0.1453
     39 H12         1.1335    3.1783    0.0075 H         1 <0>         0.1423
     40 H13        -0.9621    1.8952    0.0169 H         1 <0>         0.1413
     41 H14         0.4033   -2.6821   -0.0213 H         1 <0>         0.1555
     42 H15        -1.5060   -0.9032   -0.8720 H         1 <0>         0.3968
     43 H16         9.8259   -1.9566    0.9437 H         1 <0>         0.3950
@<TRIPOS>BOND
     1    1    2 1
     2    1   28 1
     3    1   29 1
     4    1   30 1
     5    2    3 1
     6    2   31 1
     7    2   32 1
     8    3   13 1
     9    3    4 1
    10    3   27 1
    11    4   10 2
    12    4    5 1
    13    5    6 2
    14    5   33 1
    15    6   17 1
    16    6    7 1
    17    7    8 am
    18    7   15 1
    19    8    9 2
    20    8   10 1
    21   10   11 1
    22   11   12 1
    23   11   34 1
    24   11   35 1
    25   12   13 1
    26   13   14 2
    27   15   16 1
    28   15   36 1
    29   15   37 1
    30   16   25 ar
    31   16   17 ar
    32   17   18 ar
    33   18   19 ar
    34   19   24 ar
    35   19   20 ar
    36   20   21 ar
    37   20   38 1
    38   21   22 ar
    39   21   39 1
    40   22   23 ar
    41   22   40 1
    42   23   24 ar
    43   23   26 1
    44   24   25 ar
    45   25   41 1
    46   26   42 1
    47   27   43 1
