@<TRIPOS>MOLECULE
ZINC01846592
   33    36     0     0     0
SMALL
USER_CHARGES

@<TRIPOS>ATOM
      1 C1         -0.0184    1.5028    0.0103 C.3       1 <0>        -0.1077
      2 C2          0.0021   -0.0041    0.0020 C.ar      1 <0>        -0.1313
      3 C3          0.0058   -0.6989   -1.2114 C.ar      1 <0>         0.0163
      4 C4         -0.0086   -0.0293   -2.4513 C.ar      1 <0>        -0.1666
      5 C5         -0.0035   -0.7682   -3.5937 C.ar      1 <0>         0.0824
      6 N1          0.0145   -2.0949   -3.5710 N.ar      1 <0>        -0.4979
      7 C6          0.0287   -2.7863   -2.4560 C.ar      1 <0>         0.1614
      8 C7          0.0250   -2.1205   -1.2180 C.ar      1 <0>        -0.1358
      9 C8          0.0402   -2.8190   -0.0045 C.ar      1 <0>         0.0047
     10 C9          0.0363   -2.1169    1.1859 C.ar      1 <0>        -0.0934
     11 C10         0.0229   -0.7034    1.1929 C.ar      1 <0>         0.1792
     12 N2          0.0289   -0.2773    2.5108 N.pl3     1 <0>        -0.6244
     13 C11         0.0513   -1.3648    3.3683 C.ar      1 <0>         0.1490
     14 C12         0.0487   -2.5386    2.6011 C.ar      1 <0>        -0.1050
     15 C13         0.0692   -3.7816    3.2274 C.ar      1 <0>        -0.0619
     16 C14         0.0773   -3.8548    4.6046 C.ar      1 <0>        -0.1494
     17 C15         0.0652   -2.6963    5.3646 C.ar      1 <0>        -0.0785
     18 C16         0.0646   -1.4586    4.7561 C.ar      1 <0>        -0.1455
     19 C17         0.0601   -4.3259    0.0034 C.3       1 <0>        -0.1273
     20 H1          1.0042    1.8801    0.0026 H         1 <0>         0.0709
     21 H2         -0.5455    1.8639   -0.8728 H         1 <0>         0.0741
     22 H3         -0.5286    1.8543    0.9071 H         1 <0>         0.0599
     23 H4         -0.0237    1.0498   -2.4938 H         1 <0>         0.1384
     24 H5         -0.0148   -0.2602   -4.5467 H         1 <0>         0.1527
     25 H6          0.0431   -3.8656   -2.4893 H         1 <0>         0.1640
     26 H7          0.0783   -4.6857    2.6367 H         1 <0>         0.1294
     27 H8          0.0929   -4.8183    5.0923 H         1 <0>         0.1294
     28 H9          0.0717   -2.7630    6.4425 H         1 <0>         0.1310
     29 H10         0.0578   -0.5616    5.3576 H         1 <0>         0.1256
     30 H11         1.0925   -4.6756    0.0003 H         1 <0>         0.0833
     31 H12        -0.4446   -4.6912    0.8978 H         1 <0>         0.0770
     32 H13        -0.4531   -4.7007   -0.8821 H         1 <0>         0.0771
     33 H14         0.0193    0.6507    2.7931 H         1 <0>         0.4187
@<TRIPOS>BOND
     1    1    2 1
     2    1   20 1
     3    1   21 1
     4    1   22 1
     5    2   11 ar
     6    2    3 ar
     7    3    8 ar
     8    3    4 ar
     9    4    5 ar
    10    4   23 1
    11    5    6 ar
    12    5   24 1
    13    6    7 ar
    14    7    8 ar
    15    7   25 1
    16    8    9 ar
    17    9   10 ar
    18    9   19 1
    19   10   14 1
    20   10   11 ar
    21   11   12 1
    22   12   13 1
    23   12   33 1
    24   13   18 ar
    25   13   14 ar
    26   14   15 ar
    27   15   16 ar
    28   15   26 1
    29   16   17 ar
    30   16   27 1
    31   17   18 ar
    32   17   28 1
    33   18   29 1
    34   19   30 1
    35   19   31 1
    36   19   32 1
@<TRIPOS>MOLECULE
ZINC03918087
   69    73     0     0     0
SMALL
USER_CHARGES
(7S,9S)-7-[(2R,4S,5S,6S)-4-amino-5-hydroxy-6-methyl-tetrahydropyran-2-yl]oxy-6,9,11-trihydroxy-9-(2-hydroxyacetyl)-4-methoxy-8,10-dihydro-7H-tetracene-5,12-dione
@<TRIPOS>ATOM
      1 C1          0.5150    0.0942    7.2444 C.3       1 <0>        -0.1580
      2 C2          0.1900   -0.3014    5.8026 C.3       1 <0>         0.0587
      3 H1          1.1127   -0.3614    5.2254 H         1 <0>         0.0888
      4 C3         -0.5085   -1.6636    5.7921 C.3       1 <0>         0.0555
      5 H2          0.1643   -2.4212    6.1939 H         1 <0>         0.0935
      6 C4         -0.8843   -2.0248    4.3517 C.3       1 <0>         0.0407
      7 H3          0.0209   -2.1235    3.7526 H         1 <0>         0.1613
      8 C5         -1.7663   -0.9147    3.7721 C.3       1 <0>        -0.1574
      9 C6         -1.0192    0.4186    3.8607 C.3       1 <0>         0.2505
     10 H4         -1.6586    1.2192    3.4888 H         1 <0>         0.1282
     11 O1         -0.6723    0.6792    5.2222 O.3       1 <0>        -0.3651
     12 O2          0.1696    0.3521    3.0704 O.3       1 <0>        -0.3828
     13 C7          0.7875    1.6202    2.8423 C.3       1 <0>         0.1526
     14 H5          0.0364    2.4057    2.9245 H         1 <0>         0.0878
     15 C8          1.8713    1.8482    3.8936 C.3       1 <0>        -0.1239
     16 C9          2.6612    3.1042    3.5067 C.3       1 <0>         0.1037
     17 C10         3.4811    2.7902    2.2574 C.3       1 <0>        -0.0998
     18 C11         2.6090    2.1869    1.1864 C.ar      1 <0>        -0.0396
     19 C12         1.3765    1.6468    1.4552 C.ar      1 <0>        -0.0831
     20 C13         0.6155    1.0847    0.4217 C.ar      1 <0>         0.1754
     21 C14         1.0919    1.0819   -0.8875 C.ar      1 <0>        -0.1384
     22 C15         2.3535    1.6455   -1.1656 C.ar      1 <0>        -0.1258
     23 C16         3.1021    2.1926   -0.1251 C.ar      1 <0>         0.1594
     24 O3          4.3175    2.7354   -0.3842 O.3       1 <0>        -0.4706
     25 C17         2.8707    1.6513   -2.5448 C.2       1 <0>         0.4337
     26 O4          3.9582    2.1389   -2.7855 O.2       1 <0>        -0.4026
     27 C18         2.0646    1.0643   -3.6354 C.ar      1 <0>        -0.0823
     28 C19         2.5444    1.0651   -4.9411 C.ar      1 <0>        -0.1037
     29 C20         1.7841    0.5148   -5.9600 C.ar      1 <0>        -0.0521
     30 C21         0.5481   -0.0381   -5.6929 C.ar      1 <0>        -0.1899
     31 C22         0.0493   -0.0508   -4.3941 C.ar      1 <0>         0.1799
     32 C23         0.8055    0.5015   -3.3556 C.ar      1 <0>        -0.1650
     33 C24         0.2887    0.4960   -1.9751 C.2       1 <0>         0.4376
     34 O5         -0.7994    0.0089   -1.7342 O.2       1 <0>        -0.4060
     35 O6         -1.1652   -0.5961   -4.1364 O.3       1 <0>        -0.2855
     36 C25        -1.8803   -1.1413   -5.2470 C.3       1 <0>         0.0181
     37 O7         -0.5973    0.5440    0.6972 O.3       1 <0>        -0.4647
     38 C26         1.7077    4.2347    3.2174 C.2       1 <0>         0.3173
     39 O8          1.3555    4.4523    2.0830 O.2       1 <0>        -0.3991
     40 C27         1.1935    5.0937    4.3439 C.3       1 <0>         0.0415
     41 O9          0.3120    6.0889    3.8199 O.3       1 <0>        -0.5563
     42 O10         3.5348    3.4728    4.5758 O.3       1 <0>        -0.5342
     43 O11        -1.6907   -1.6002    6.5925 O.3       1 <0>        -0.5647
     44 H6         -0.4077    0.1538    7.8216 H         1 <0>         0.0713
     45 H7          1.1728   -0.6538    7.6870 H         1 <0>         0.0811
     46 H8          1.0115    1.0646    7.2518 H         1 <0>         0.0831
     47 H9         -2.6934   -0.8513    4.3418 H         1 <0>         0.1199
     48 H10        -1.9930   -1.1367    2.7293 H         1 <0>         0.1121
     49 H11         2.5404    0.9883    3.9239 H         1 <0>         0.0986
     50 H12         1.4112    1.9903    4.8714 H         1 <0>         0.0994
     51 H13         4.2726    2.0865    2.5147 H         1 <0>         0.1131
     52 H14         3.9280    3.7102    1.8805 H         1 <0>         0.0957
     53 H15         4.2898    3.6779   -0.5986 H         1 <0>         0.4022
     54 H16         3.5102    1.4955   -5.1607 H         1 <0>         0.1477
     55 H17         2.1617    0.5187   -6.9718 H         1 <0>         0.1448
     56 H18        -0.0349   -0.4635   -6.4964 H         1 <0>         0.1451
     57 H19        -2.8331   -1.5440   -4.9033 H         1 <0>         0.1073
     58 H20        -2.0613   -0.3577   -5.9827 H         1 <0>         0.0618
     59 H21        -1.2921   -1.9382   -5.7021 H         1 <0>         0.0608
     60 H22        -0.5786   -0.4124    0.8386 H         1 <0>         0.3887
     61 H23         0.6995    4.5228    4.9997 H         1 <0>         0.0740
     62 H24         2.0325    5.5781    4.8435 H         1 <0>         0.0863
     63 H25        -0.0576    6.6794    4.4906 H         1 <0>         0.3912
     64 H26         4.0772    4.2515    4.3898 H         1 <0>         0.3917
     65 H27        -1.8810   -3.5544    3.4001 H         1 <0>         0.4393
     66 H28        -1.0879   -4.0276    4.7832 H         1 <0>         0.4381
     67 H29        -1.5275   -1.3709    7.5176 H         1 <0>         0.4083
     68 N1         -1.6423   -3.2885    4.3540 N.4       1 <0>        -0.6408
     69 H30        -2.5070   -3.1624    4.8930 H         1 <0>         0.4454
@<TRIPOS>BOND
     1    1    2 1
     2    1   44 1
     3    1   45 1
     4    1   46 1
     5    2    3 1
     6    2   11 1
     7    2    4 1
     8    4    5 1
     9    4    6 1
    10    4   43 1
    11    6    7 1
    12    6    8 1
    13    6   68 1
    14    8    9 1
    15    8   47 1
    16    8   48 1
    17    9   10 1
    18    9   11 1
    19    9   12 1
    20   12   13 1
    21   13   14 1
    22   13   19 1
    23   13   15 1
    24   15   16 1
    25   15   49 1
    26   15   50 1
    27   16   17 1
    28   16   38 1
    29   16   42 1
    30   17   18 1
    31   17   51 1
    32   17   52 1
    33   18   23 ar
    34   18   19 ar
    35   19   20 ar
    36   20   21 ar
    37   20   37 1
    38   21   33 1
    39   21   22 ar
    40   22   23 ar
    41   22   25 1
    42   23   24 1
    43   24   53 1
    44   25   26 2
    45   25   27 1
    46   27   32 ar
    47   27   28 ar
    48   28   29 ar
    49   28   54 1
    50   29   30 ar
    51   29   55 1
    52   30   31 ar
    53   30   56 1
    54   31   32 ar
    55   31   35 1
    56   32   33 1
    57   33   34 2
    58   35   36 1
    59   36   57 1
    60   36   58 1
    61   36   59 1
    62   37   60 1
    63   38   39 2
    64   38   40 1
    65   40   41 1
    66   40   61 1
    67   40   62 1
    68   41   63 1
    69   42   64 1
    70   43   67 1
    71   65   68 1
    72   66   68 1
    73   68   69 1
@<TRIPOS>MOLECULE
ZINC15449300
   69    73     0     0     0
SMALL
USER_CHARGES
(7S,9S)-7-[(2S,4S,5S,6S)-4-amino-5-hydroxy-6-methyl-tetrahydropyran-2-yl]oxy-6,9,11-trihydroxy-9-(2-hydroxyacetyl)-4-methoxy-8,10-dihydro-7H-tetracene-5,12-dione
@<TRIPOS>ATOM
      1 C1         -1.9293   -2.2582   -4.4934 C.3       1 <0>        -0.1592
      2 C2         -2.4406   -1.0478   -3.7095 C.3       1 <0>         0.0724
      3 H1         -1.9870   -0.1395   -4.1063 H         1 <0>         0.0790
      4 C3         -3.9630   -0.9587   -3.8436 C.3       1 <0>         0.0515
      5 H2         -4.2282   -0.8049   -4.8896 H         1 <0>         0.0957
      6 C4         -4.4733    0.2191   -3.0078 C.3       1 <0>         0.0431
      7 H3         -4.0602    1.1493   -3.3980 H         1 <0>         0.1559
      8 C5         -4.0278    0.0305   -1.5544 C.3       1 <0>        -0.1676
      9 C6         -2.5029   -0.0968   -1.5087 C.3       1 <0>         0.2630
     10 H4         -2.0499    0.8239   -1.8765 H         1 <0>         0.0635
     11 O1         -2.0927   -1.1913   -2.3309 O.3       1 <0>        -0.3765
     12 O2         -2.0841   -0.3291   -0.1623 O.3       1 <0>        -0.3186
     13 C7         -0.6720   -0.2292    0.0326 C.3       1 <0>         0.1415
     14 H5         -0.1599   -0.5912   -0.8589 H         1 <0>         0.0882
     15 C8         -0.2989    1.2326    0.2685 C.3       1 <0>        -0.1297
     16 C9          1.1748    1.2924    0.6878 C.3       1 <0>         0.1047
     17 C10         1.3000    0.6955    2.0876 C.3       1 <0>        -0.0989
     18 C11         0.6367   -0.6565    2.1505 C.ar      1 <0>        -0.0405
     19 C12        -0.2724   -1.0772    1.2128 C.ar      1 <0>        -0.0880
     20 C13        -0.8680   -2.3402    1.3293 C.ar      1 <0>         0.1834
     21 C14        -0.5429   -3.1813    2.3913 C.ar      1 <0>        -0.1372
     22 C15         0.3939   -2.7509    3.3525 C.ar      1 <0>        -0.1247
     23 C16         0.9761   -1.4912    3.2234 C.ar      1 <0>         0.1549
     24 O3          1.8788   -1.0701    4.1436 O.3       1 <0>        -0.4698
     25 C17         0.7490   -3.6283    4.4810 C.2       1 <0>         0.4347
     26 O4          1.5567   -3.2572    5.3106 O.2       1 <0>        -0.4044
     27 C18         0.1224   -4.9612    4.6021 C.ar      1 <0>        -0.0828
     28 C19         0.4525   -5.7977    5.6633 C.ar      1 <0>        -0.1043
     29 C20        -0.1368   -7.0466    5.7716 C.ar      1 <0>        -0.0540
     30 C21        -1.0540   -7.4733    4.8327 C.ar      1 <0>        -0.1901
     31 C22        -1.3993   -6.6527    3.7634 C.ar      1 <0>         0.1787
     32 C23        -0.8124   -5.3894    3.6413 C.ar      1 <0>        -0.1622
     33 C24        -1.1688   -4.5097    2.5134 C.2       1 <0>         0.4351
     34 O5         -1.9781   -4.8800    1.6845 O.2       1 <0>        -0.3987
     35 O6         -2.3014   -7.0761    2.8438 O.3       1 <0>        -0.2848
     36 C25        -2.8591   -8.3780    3.0337 C.3       1 <0>         0.0185
     37 O7         -1.7683   -2.7474    0.4004 O.3       1 <0>        -0.4539
     38 C26         2.0110    0.4962   -0.2806 C.2       1 <0>         0.3170
     39 O8          2.3022   -0.6482   -0.0279 O.2       1 <0>        -0.3970
     40 C27         2.4839    1.1280   -1.5644 C.3       1 <0>         0.0415
     41 O9          3.2526    0.1796   -2.3072 O.3       1 <0>        -0.5554
     42 O10         1.6166    2.6513    0.7024 O.3       1 <0>        -0.5345
     43 O11        -4.5556   -2.1713   -3.3740 O.3       1 <0>        -0.5585
     44 H6         -2.2987   -3.1733   -4.0305 H         1 <0>         0.0769
     45 H7         -2.2857   -2.2018   -5.5220 H         1 <0>         0.0820
     46 H8         -0.8393   -2.2617   -4.4862 H         1 <0>         0.0828
     47 H9         -4.4811   -0.8740   -1.1489 H         1 <0>         0.1209
     48 H10        -4.3393    0.8917   -0.9632 H         1 <0>         0.1087
     49 H11        -0.4428    1.8013   -0.6502 H         1 <0>         0.0888
     50 H12        -0.9231    1.6480    1.0597 H         1 <0>         0.1057
     51 H13         0.8243    1.3626    2.8065 H         1 <0>         0.1138
     52 H14         2.3553    0.5899    2.3394 H         1 <0>         0.0956
     53 H15         2.7938   -1.2990    3.9304 H         1 <0>         0.3996
     54 H16         1.1687   -5.4730    6.4036 H         1 <0>         0.1471
     55 H17         0.1238   -7.6920    6.5974 H         1 <0>         0.1439
     56 H18        -1.5061   -8.4494    4.9285 H         1 <0>         0.1444
     57 H19        -3.5639   -8.5921    2.2303 H         1 <0>         0.1069
     58 H20        -2.0609   -9.1202    3.0242 H         1 <0>         0.0608
     59 H21        -3.3780   -8.4148    3.9916 H         1 <0>         0.0606
     60 H22        -1.3705   -3.1599   -0.3785 H         1 <0>         0.3918
     61 H23         1.6935    1.4139   -2.1061 H         1 <0>         0.0705
     62 H24         3.1013    1.9968   -1.3359 H         1 <0>         0.0874
     63 H25         3.5902    0.5188   -3.1475 H         1 <0>         0.3901
     64 H26         2.5422    2.7612    0.9598 H         1 <0>         0.3916
     65 H27        -6.3003    1.0375   -2.5273 H         1 <0>         0.4398
     66 H28        -6.2589    0.3207   -4.0274 H         1 <0>         0.4394
     67 H29        -4.2727   -2.9600   -3.8568 H         1 <0>         0.4094
     68 N1         -5.9457    0.2456   -3.0610 N.4       1 <0>        -0.6379
     69 H30        -6.3137   -0.6231   -2.6560 H         1 <0>         0.4484
@<TRIPOS>BOND
     1    1    2 1
     2    1   44 1
     3    1   45 1
     4    1   46 1
     5    2    3 1
     6    2   11 1
     7    2    4 1
     8    4    5 1
     9    4    6 1
    10    4   43 1
    11    6    7 1
    12    6    8 1
    13    6   68 1
    14    8    9 1
    15    8   47 1
    16    8   48 1
    17    9   10 1
    18    9   11 1
    19    9   12 1
    20   12   13 1
    21   13   14 1
    22   13   19 1
    23   13   15 1
    24   15   16 1
    25   15   49 1
    26   15   50 1
    27   16   17 1
    28   16   38 1
    29   16   42 1
    30   17   18 1
    31   17   51 1
    32   17   52 1
    33   18   23 ar
    34   18   19 ar
    35   19   20 ar
    36   20   21 ar
    37   20   37 1
    38   21   33 1
    39   21   22 ar
    40   22   23 ar
    41   22   25 1
    42   23   24 1
    43   24   53 1
    44   25   26 2
    45   25   27 1
    46   27   32 ar
    47   27   28 ar
    48   28   29 ar
    49   28   54 1
    50   29   30 ar
    51   29   55 1
    52   30   31 ar
    53   30   56 1
    54   31   32 ar
    55   31   35 1
    56   32   33 1
    57   33   34 2
    58   35   36 1
    59   36   57 1
    60   36   58 1
    61   36   59 1
    62   37   60 1
    63   38   39 2
    64   38   40 1
    65   40   41 1
    66   40   61 1
    67   40   62 1
    68   41   63 1
    69   42   64 1
    70   43   67 1
    71   65   68 1
    72   66   68 1
    73   68   69 1
@<TRIPOS>MOLECULE
ZINC01581128
   57    60     0     0     0
SMALL
USER_CHARGES
3-aminopropylamino-dihydroxy-[2-(2-hydroxyethylamino)ethyl]BLAHone
@<TRIPOS>ATOM
      1 C1          3.3672   -1.6657   -0.0391 C.ar      1 <0>        -0.1543
      2 C2          1.9877   -1.6601   -0.0260 C.ar      1 <0>        -0.0429
      3 C3          1.2983   -0.4462   -0.0125 C.ar      1 <0>         0.0729
      4 C4          2.0695    0.7070   -0.0129 C.ar      1 <0>        -0.1015
      5 C5          3.4628    0.7388   -0.0244 C.ar      1 <0>        -0.1869
      6 C6          4.1304   -0.4926   -0.0380 C.ar      1 <0>         0.2663
      7 N1          5.5160   -0.5481   -0.0505 N.pl3     1 <0>        -0.7248
      8 C7          6.1971   -1.8450   -0.0646 C.3       1 <0>         0.1195
      9 C8          7.7113   -1.6258   -0.0765 C.3       1 <0>        -0.1697
     10 C9          8.4226   -2.9803   -0.0913 C.3       1 <0>         0.0016
     11 H1         10.3692   -3.6502   -0.1125 H         1 <0>         0.4445
     12 H2         10.1521   -2.1924   -0.8829 H         1 <0>         0.4396
     13 C10         4.1194    2.0479   -0.0212 C.2       1 <0>         0.4523
     14 O1          5.3351    2.1322   -0.0286 O.2       1 <0>        -0.4506
     15 C11         3.2819    3.2632   -0.0101 C.ar      1 <0>        -0.1549
     16 C12         3.9013    4.5236   -0.0116 C.ar      1 <0>         0.1658
     17 C13         3.1327    5.6734   -0.0032 C.ar      1 <0>        -0.1224
     18 C14         1.7505    5.5964    0.0065 C.ar      1 <0>        -0.0903
     19 C15         1.1172    4.3653    0.0079 C.ar      1 <0>         0.1216
     20 C16         1.8721    3.1910   -0.0001 C.ar      1 <0>         0.0074
     21 C17         1.2090    1.8735    0.0006 C.2       1 <0>         0.1366
     22 N2         -0.0170    1.4056    0.0098 N.2       1 <0>        -0.1856
     23 N3          0.0021   -0.0041    0.0020 N.pl3     1 <0>        -0.4049
     24 C18        -1.1835   -0.8646    0.0081 C.3       1 <0>         0.1248
     25 C19        -1.6096   -1.1559   -1.4322 C.3       1 <0>        -0.0298
     26 C20        -3.2372   -2.3202   -2.7953 C.3       1 <0>         0.0015
     27 C21        -4.4746   -3.2189   -2.7482 C.3       1 <0>         0.0442
     28 O2         -5.5594   -2.5048   -2.1522 O.3       1 <0>        -0.5821
     29 O3         -0.2406    4.2999    0.0177 O.3       1 <0>        -0.4806
     30 O4          5.2559    4.6134   -0.0209 O.3       1 <0>        -0.4740
     31 H3          3.8802   -2.6161   -0.0500 H         1 <0>         0.1390
     32 H4          1.4425   -2.5923   -0.0271 H         1 <0>         0.1372
     33 H5          6.0342    0.2719   -0.0499 H         1 <0>         0.4217
     34 H6          5.9190   -2.4112    0.8243 H         1 <0>         0.0763
     35 H7          5.9033   -2.4000   -0.9555 H         1 <0>         0.0757
     36 H8          7.9894   -1.0596   -0.9654 H         1 <0>         0.0988
     37 H9          8.0051   -1.0708    0.8144 H         1 <0>         0.0984
     38 H10         8.1445   -3.5464    0.7977 H         1 <0>         0.1361
     39 H11         8.1289   -3.5353   -0.9822 H         1 <0>         0.1386
     40 H12         3.6150    6.6397   -0.0044 H         1 <0>         0.1521
     41 H13         1.1626    6.5024    0.0125 H         1 <0>         0.1524
     42 H14        -0.9501   -1.8012    0.5144 H         1 <0>         0.1129
     43 H15        -1.9955   -0.3608    0.5323 H         1 <0>         0.1200
     44 H16        -1.8431   -0.2193   -1.9386 H         1 <0>         0.1414
     45 H17        -0.7976   -1.6598   -1.9565 H         1 <0>         0.1347
     46 H18        -3.4819   -1.3917   -3.3111 H         1 <0>         0.1401
     47 H19        -2.4364   -2.8322   -3.3291 H         1 <0>         0.1440
     48 H20        -4.7474   -3.5150   -3.7611 H         1 <0>         0.0980
     49 H21        -4.2558   -4.1077   -2.1564 H         1 <0>         0.0733
     50 H22        -6.3787   -3.0147   -2.0895 H         1 <0>         0.4127
     51 H23        -0.6270    4.2791    0.9039 H         1 <0>         0.3969
     52 H24         5.6546    4.6372    0.8598 H         1 <0>         0.3999
     53 N4          9.8792   -2.7577   -0.0806 N.4       1 <0>        -0.6469
     54 H25        10.1388   -2.2636    0.7812 H         1 <0>         0.4420
     55 N5         -2.8032   -2.0225   -1.4173 N.4       1 <0>        -0.5135
     56 H26        -3.5629   -1.5442   -0.9189 H         1 <0>         0.4440
     57 H27        -2.5780   -2.9010   -0.9360 H         1 <0>         0.4312
@<TRIPOS>BOND
     1    1    6 ar
     2    1    2 ar
     3    1   31 1
     4    2    3 ar
     5    2   32 1
     6    3   23 1
     7    3    4 ar
     8    4   21 1
     9    4    5 ar
    10    5    6 ar
    11    5   13 1
    12    6    7 1
    13    7    8 1
    14    7   33 1
    15    8    9 1
    16    8   34 1
    17    8   35 1
    18    9   10 1
    19    9   36 1
    20    9   37 1
    21   10   38 1
    22   10   39 1
    23   10   53 1
    24   11   53 1
    25   12   53 1
    26   13   14 2
    27   13   15 1
    28   15   20 ar
    29   15   16 ar
    30   16   17 ar
    31   16   30 1
    32   17   18 ar
    33   17   40 1
    34   18   19 ar
    35   18   41 1
    36   19   20 ar
    37   19   29 1
    38   20   21 1
    39   21   22 2
    40   22   23 1
    41   23   24 1
    42   24   25 1
    43   24   42 1
    44   24   43 1
    45   25   44 1
    46   25   45 1
    47   25   55 1
    48   26   27 1
    49   26   46 1
    50   26   47 1
    51   26   55 1
    52   27   28 1
    53   27   48 1
    54   27   49 1
    55   28   50 1
    56   29   51 1
    57   30   52 1
    58   53   54 1
    59   55   56 1
    60   55   57 1
@<TRIPOS>MOLECULE
ZINC03799478
   41    44     0     0     0
SMALL
USER_CHARGES
(3-acridin-9-ylamino-5-amino-phenyl)methanol
@<TRIPOS>ATOM
      1 C1          0.6425    7.9653    5.4164 C.ar      1 <0>        -0.1186
      2 C2         -0.0699    8.4683    6.5049 C.ar      1 <0>        -0.0900
      3 C3         -1.1814    7.8385    6.9689 C.ar      1 <0>        -0.1025
      4 C4         -1.6295    6.6559    6.3454 C.ar      1 <0>         0.1676
      5 C5         -0.9014    6.1474    5.2376 C.ar      1 <0>        -0.1096
      6 C6          0.2435    6.8267    4.7873 C.ar      1 <0>        -0.0865
      7 C7         -1.3381    4.9665    4.6051 C.ar      1 <0>         0.2350
      8 C8         -2.4968    4.3424    5.1084 C.ar      1 <0>        -0.1080
      9 C9         -2.9886    3.1595    4.5308 C.ar      1 <0>        -0.0853
     10 C10        -4.1062    2.5745    5.0409 C.ar      1 <0>        -0.1184
     11 C11        -4.7698    3.1317    6.1340 C.ar      1 <0>        -0.0887
     12 C12        -4.3213    4.2724    6.7214 C.ar      1 <0>        -0.1038
     13 C13        -3.1664    4.9104    6.2242 C.ar      1 <0>         0.1682
     14 N1         -2.7171    6.0290    6.7908 N.ar      1 <0>        -0.4689
     15 N2         -0.6577    4.4423    3.5265 N.pl3     1 <0>        -0.6984
     16 C14         0.3206    3.4651    3.7255 C.ar      1 <0>         0.2479
     17 C15         0.9283    2.8563    2.6335 C.ar      1 <0>        -0.2161
     18 C16         1.8919    1.8863    2.8296 C.ar      1 <0>        -0.0048
     19 C17         2.2627    1.5252    4.1108 C.ar      1 <0>        -0.2190
     20 C18         1.6631    2.1336    5.2068 C.ar      1 <0>         0.2549
     21 C19         0.6907    3.1049    5.0136 C.ar      1 <0>        -0.2501
     22 N3          2.0382    1.7677    6.5015 N.pl3     1 <0>        -0.8754
     23 C20         2.5447    1.2246    1.6434 C.3       1 <0>         0.1158
     24 O1          1.7986    0.0627    1.2756 O.3       1 <0>        -0.5657
     25 H1          1.5224    8.4861    5.0685 H         1 <0>         0.1290
     26 H2          0.2677    9.3735    6.9877 H         1 <0>         0.1323
     27 H3         -1.7203    8.2431    7.8128 H         1 <0>         0.1386
     28 H4          0.8034    6.4473    3.9454 H         1 <0>         0.1301
     29 H5         -2.4839    2.7187    3.6839 H         1 <0>         0.1307
     30 H6         -4.4846    1.6673    4.5934 H         1 <0>         0.1294
     31 H7         -5.6553    2.6486    6.5199 H         1 <0>         0.1326
     32 H8         -4.8481    4.6889    7.5672 H         1 <0>         0.1387
     33 H9         -0.8584    4.7521    2.6294 H         1 <0>         0.4147
     34 H10         0.6437    3.1390    1.6308 H         1 <0>         0.1207
     35 H11         3.0192    0.7691    4.2605 H         1 <0>         0.1188
     36 H12         0.2229    3.5790    5.8637 H         1 <0>         0.1153
     37 H13         2.6600    1.0358    6.6377 H         1 <0>         0.3997
     38 H14         1.6769    2.2456    7.2644 H         1 <0>         0.3980
     39 H15         3.5629    0.9353    1.9036 H         1 <0>         0.0553
     40 H16         2.5679    1.9217    0.8057 H         1 <0>         0.0556
     41 H17         2.1622   -0.4145    0.5173 H         1 <0>         0.3809
@<TRIPOS>BOND
     1    1    6 ar
     2    1    2 ar
     3    1   25 1
     4    2    3 ar
     5    2   26 1
     6    3    4 ar
     7    3   27 1
     8    4   14 ar
     9    4    5 ar
    10    5    6 ar
    11    5    7 ar
    12    6   28 1
    13    7    8 ar
    14    7   15 1
    15    8   13 ar
    16    8    9 ar
    17    9   10 ar
    18    9   29 1
    19   10   11 ar
    20   10   30 1
    21   11   12 ar
    22   11   31 1
    23   12   13 ar
    24   12   32 1
    25   13   14 ar
    26   15   16 1
    27   15   33 1
    28   16   21 ar
    29   16   17 ar
    30   17   18 ar
    31   17   34 1
    32   18   19 ar
    33   18   23 1
    34   19   20 ar
    35   19   35 1
    36   20   21 ar
    37   20   22 1
    38   21   36 1
    39   22   37 1
    40   22   38 1
    41   23   24 1
    42   23   39 1
    43   23   40 1
    44   24   41 1
@<TRIPOS>MOLECULE
ZINC00026213
   41    43     0     0     0
SMALL
USER_CHARGES

@<TRIPOS>ATOM
      1 C1         -0.0169    1.3944    0.0097 C.ar      1 <0>        -0.1034
      2 C2          1.1568    2.0931    0.0023 C.ar      1 <0>        -0.0481
      3 C3          2.3764    1.4109   -0.0131 C.ar      1 <0>        -0.1544
      4 C4          2.3959    0.0135   -0.0207 C.ar      1 <0>        -0.0457
      5 C5          1.2229   -0.6863   -0.0133 C.ar      1 <0>        -0.0972
      6 C6          0.0021   -0.0041    0.0020 C.ar      1 <0>         0.0563
      7 C7         -1.2647   -0.7590    0.0105 C.2       1 <0>         0.0190
      8 C8         -1.3841   -2.1180    0.0099 C.2       1 <0>        -0.1549
      9 C9         -2.7553   -2.4080    0.0206 C.2       1 <0>        -0.1548
     10 C10        -3.4146   -1.2136    0.0273 C.2       1 <0>         0.0190
     11 O1         -2.5007   -0.2242    0.0262 O.3       1 <0>        -0.1557
     12 C11        -4.8785   -1.0362    0.0384 C.ar      1 <0>         0.0564
     13 C12        -5.7186   -2.1542    0.0488 C.ar      1 <0>        -0.0972
     14 C13        -7.0745   -1.9893    0.0591 C.ar      1 <0>        -0.0457
     15 C14        -7.6223   -0.7036    0.0593 C.ar      1 <0>        -0.1544
     16 C15        -6.7833    0.4140    0.0484 C.ar      1 <0>        -0.0481
     17 C16        -5.4272    0.2502    0.0444 C.ar      1 <0>        -0.1034
     18 C17        -9.0890   -0.5258    0.0704 C.cat     1 <0>         0.5991
     19 N1         -9.6116    0.7000    0.0706 N.pl3     1 <0>        -0.7604
     20 N2         -9.8893   -1.5913    0.0803 N.pl3     1 <0>        -0.7593
     21 C18         3.6456    2.1672   -0.0216 C.cat     1 <0>         0.5991
     22 N3          4.8086    1.5170   -0.0362 N.pl3     1 <0>        -0.7593
     23 N4          3.6272    3.4997   -0.0147 N.pl3     1 <0>        -0.7604
     24 H1         -0.9593    1.9216    0.0260 H         1 <0>         0.1515
     25 H2          1.1423    3.1730    0.0078 H         1 <0>         0.1440
     26 H3          3.3387   -0.5132   -0.0329 H         1 <0>         0.1469
     27 H4          1.2381   -1.7661   -0.0196 H         1 <0>         0.1554
     28 H5         -0.5757   -2.8342    0.0023 H         1 <0>         0.1686
     29 H6         -3.2045   -3.3901    0.0228 H         1 <0>         0.1686
     30 H7         -5.2954   -3.1479    0.0483 H         1 <0>         0.1554
     31 H8         -7.7234   -2.8526    0.0668 H         1 <0>         0.1470
     32 H9         -7.2072    1.4073    0.0482 H         1 <0>         0.1440
     33 H10        -4.7789    1.1140    0.0413 H         1 <0>         0.1515
     34 H11        -9.0291    1.4756    0.0634 H         1 <0>         0.4439
     35 H12        -9.5089   -2.4836    0.0802 H         1 <0>         0.4446
     36 H13       -10.8522   -1.4745    0.0876 H         1 <0>         0.4360
     37 H14         4.8220    0.5471   -0.0412 H         1 <0>         0.4446
     38 H15         2.7806    3.9730   -0.0041 H         1 <0>         0.4439
     39 H16         4.4604    3.9962   -0.0203 H         1 <0>         0.4359
     40 H17       -10.5746    0.8168    0.0779 H         1 <0>         0.4359
     41 H18         5.6419    2.0136   -0.0418 H         1 <0>         0.4360
@<TRIPOS>BOND
     1    1    6 ar
     2    1    2 ar
     3    1   24 1
     4    2    3 ar
     5    2   25 1
     6    3    4 ar
     7    3   21 1
     8    4    5 ar
     9    4   26 1
    10    5    6 ar
    11    5   27 1
    12    6    7 1
    13    7   11 1
    14    7    8 2
    15    8    9 1
    16    8   28 1
    17    9   10 2
    18    9   29 1
    19   10   11 1
    20   10   12 1
    21   12   17 ar
    22   12   13 ar
    23   13   14 ar
    24   13   30 1
    25   14   15 ar
    26   14   31 1
    27   15   16 ar
    28   15   18 1
    29   16   17 ar
    30   16   32 1
    31   17   33 1
    32   18   19 2
    33   18   20 1
    34   19   34 1
    35   19   40 1
    36   20   35 1
    37   20   36 1
    38   21   22 2
    39   21   23 1
    40   22   37 1
    41   22   41 1
    42   23   38 1
    43   23   39 1
@<TRIPOS>MOLECULE
ZINC03812923
   47    50     0     0     0
SMALL
USER_CHARGES

@<TRIPOS>ATOM
      1 C1          0.3807    1.4007   -0.0396 C.3       1 <0>         0.0335
      2 O1          0.2444   -0.0216   -0.0638 O.3       1 <0>        -0.3321
      3 C2         -0.3722   -0.6008    1.0007 C.ar      1 <0>         0.1403
      4 C3         -0.8403    0.1832    2.0417 C.ar      1 <0>        -0.2385
      5 C4         -1.4696   -0.4104    3.1278 C.ar      1 <0>         0.3077
      6 C5         -1.6293   -1.7896    3.1706 C.ar      1 <0>        -0.2469
      7 C6         -1.1630   -2.5733    2.1329 C.ar      1 <0>        -0.0789
      8 C7         -0.5391   -1.9836    1.0428 C.ar      1 <0>         0.0206
      9 N1         -0.0714   -2.7787   -0.0122 N.pl3     1 <0>        -0.7076
     10 C8         -0.1230   -4.1518    0.0849 C.ar      1 <0>         0.4223
     11 C9         -1.3030   -4.8599   -0.2199 C.ar      1 <0>        -0.1480
     12 C10        -2.4636   -4.1844   -0.6332 C.ar      1 <0>        -0.0187
     13 C11        -3.5891   -4.8929   -0.9216 C.ar      1 <0>        -0.1365
     14 C12        -3.6066   -6.2832   -0.8120 C.ar      1 <0>        -0.0034
     15 C13        -2.5031   -6.9707   -0.4154 C.ar      1 <0>        -0.1822
     16 C14        -1.3161   -6.2750   -0.1075 C.ar      1 <0>         0.2199
     17 N2         -0.2278   -6.9373    0.2819 N.ar      1 <0>        -0.5116
     18 C15         0.9091   -6.3101    0.5801 C.ar      1 <0>         0.2211
     19 C16         1.0041   -4.8967    0.4868 C.ar      1 <0>        -0.1461
     20 C17         2.2160   -4.2589    0.8013 C.ar      1 <0>        -0.0195
     21 C18         3.2885   -5.0024    1.1870 C.ar      1 <0>        -0.1381
     22 C19         3.2014   -6.3917    1.2742 C.ar      1 <0>        -0.0046
     23 C20         2.0423   -7.0424    0.9890 C.ar      1 <0>        -0.1816
     24 N3         -1.9427    0.3810    4.1799 N.2       1 <0>        -1.0898
     25 S1         -2.6934   -0.3264    5.4755 S.o2      1 <0>         2.5299
     26 O2         -3.8690   -0.9150    4.9364 O.2       1 <0>        -1.0277
     27 O3         -1.6911   -1.1326    6.0794 O.2       1 <0>        -1.0278
     28 C21        -3.1305    1.0520    6.5707 C.3       1 <0>        -0.6362
     29 H1          0.8884    1.7325   -0.9453 H         1 <0>         0.0922
     30 H2         -0.6067    1.8595    0.0122 H         1 <0>         0.0568
     31 H3          0.9643    1.6950    0.8326 H         1 <0>         0.0567
     32 H4         -0.7157    1.2555    2.0091 H         1 <0>         0.1295
     33 H5         -2.1184   -2.2498    4.0163 H         1 <0>         0.1102
     34 H6         -1.2881   -3.6454    2.1681 H         1 <0>         0.0986
     35 H7          0.2887   -2.3622   -0.8108 H         1 <0>         0.4288
     36 H8         -2.4627   -3.1080   -0.7212 H         1 <0>         0.1597
     37 H9         -4.4803   -4.3719   -1.2391 H         1 <0>         0.1505
     38 H10        -4.5125   -6.8227   -1.0459 H         1 <0>         0.1520
     39 H11        -2.5357   -8.0473   -0.3360 H         1 <0>         0.1531
     40 H12         2.2960   -3.1838    0.7369 H         1 <0>         0.1590
     41 H13         4.2192   -4.5105    1.4284 H         1 <0>         0.1499
     42 H14         4.0669   -6.9595    1.5821 H         1 <0>         0.1517
     43 H15         1.9934   -8.1187    1.0633 H         1 <0>         0.1531
     44 H16        -3.7949    1.7374    6.0446 H         1 <0>         0.1178
     45 H17        -3.6342    0.6662    7.4570 H         1 <0>         0.1055
     46 H18        -2.2250    1.5806    6.8686 H         1 <0>         0.1177
     47 H19        -0.2642   -7.9042    0.3506 H         1 <0>         0.4379
@<TRIPOS>BOND
     1    1    2 1
     2    1   29 1
     3    1   30 1
     4    1   31 1
     5    2    3 1
     6    3    8 ar
     7    3    4 ar
     8    4    5 ar
     9    4   32 1
    10    5    6 ar
    11    5   24 1
    12    6    7 ar
    13    6   33 1
    14    7    8 ar
    15    7   34 1
    16    8    9 1
    17    9   10 1
    18    9   35 1
    19   10   19 ar
    20   10   11 ar
    21   11   16 ar
    22   11   12 ar
    23   12   13 ar
    24   12   36 1
    25   13   14 ar
    26   13   37 1
    27   14   15 ar
    28   14   38 1
    29   15   16 ar
    30   15   39 1
    31   16   17 ar
    32   17   18 ar
    33   17   47 1
    34   18   23 ar
    35   18   19 ar
    36   19   20 ar
    37   20   21 ar
    38   20   40 1
    39   21   22 ar
    40   21   41 1
    41   22   23 ar
    42   22   42 1
    43   23   43 1
    44   24   25 1
    45   25   26 2
    46   25   27 2
    47   25   28 1
    48   28   44 1
    49   28   45 1
    50   28   46 1
@<TRIPOS>MOLECULE
ZINC03938684
   74    80     0     0     0
SMALL
USER_CHARGES
(4,5-dihydroxy-8-methyl-2,7,9-trioxabicyclo[4.4.0]dec-3-yl)oxy-(4-hydroxy-3,5-dimethoxy-phenyl)-BLAHone
@<TRIPOS>ATOM
      1 C1         -0.3704   -8.8482   -1.8306 C.3       1 <0>        -0.1389
      2 C2          0.3922   -7.5499   -1.5590 C.3       1 <0>         0.2387
      3 H1          1.4619   -7.7299   -1.6659 H         1 <0>         0.0639
      4 O1          0.1191   -7.1099   -0.2278 O.3       1 <0>        -0.3803
      5 C3          0.7378   -5.8656    0.1226 C.3       1 <0>         0.0713
      6 C4          0.2806   -4.8029   -0.8776 C.3       1 <0>         0.0381
      7 H2         -0.7967   -4.6630   -0.7890 H         1 <0>         0.0858
      8 C5          0.6176   -5.2913   -2.2923 C.3       1 <0>         0.0655
      9 H3          1.6970   -5.4079   -2.3891 H         1 <0>         0.0834
     10 O2         -0.0179   -6.5523   -2.5009 O.3       1 <0>        -0.3659
     11 C6          0.1250   -4.2510   -3.2983 C.3       1 <0>         0.1279
     12 H4         -0.9570   -4.1468   -3.2174 H         1 <0>         0.0769
     13 C7          0.8025   -2.9129   -2.9813 C.3       1 <0>         0.0629
     14 H5          1.8791   -3.0074   -3.1229 H         1 <0>         0.0866
     15 C8          0.5125   -2.5188   -1.5319 C.3       1 <0>         0.2236
     16 H6         -0.5584   -2.3573   -1.4083 H         1 <0>         0.0747
     17 O3          0.9410   -3.5602   -0.6484 O.3       1 <0>        -0.3829
     18 O4          1.2130   -1.3132   -1.2190 O.3       1 <0>        -0.3461
     19 C9          0.9189   -0.7900    0.0778 C.3       1 <0>         0.1531
     20 H7          0.6832   -1.6066    0.7603 H         1 <0>         0.1008
     21 C10        -0.2590    0.1647   -0.0079 C.ar      1 <0>        -0.1057
     22 C11        -1.5242   -0.4245   -0.0546 C.ar      1 <0>        -0.0920
     23 C12        -2.6275    0.4094   -0.1135 C.ar      1 <0>         0.0373
     24 C13        -2.4750    1.8046   -0.1292 C.ar      1 <0>         0.0483
     25 C14        -1.2172    2.3814   -0.0934 C.ar      1 <0>        -0.0900
     26 C15        -0.1090    1.5341   -0.0312 C.ar      1 <0>        -0.0410
     27 C16         1.2493    2.2128    0.0020 C.3       1 <0>         0.0185
     28 H8          1.2652    3.0401   -0.7074 H         1 <0>         0.1125
     29 C17         2.2947    1.1873   -0.3840 C.3       1 <0>        -0.1494
     30 H9          2.1570    0.8589   -1.4142 H         1 <0>         0.1387
     31 C18         2.1111   -0.0110    0.6012 C.3       1 <0>        -0.1384
     32 H10         1.9649    0.3082    1.6331 H         1 <0>         0.1300
     33 C19         3.4765   -0.6851    0.3962 C.3       1 <0>         0.0677
     34 O5          4.3926    0.4573    0.2686 O.3       1 <0>        -0.3452
     35 C20         3.7271    1.5623   -0.1421 C.2       1 <0>         0.4967
     36 O6          4.2049    2.6623   -0.2887 O.2       1 <0>        -0.4413
     37 C21         1.5283    2.7263    1.3911 C.ar      1 <0>        -0.0211
     38 C22         1.0365    2.0459    2.4892 C.ar      1 <0>        -0.2269
     39 C23         1.2958    2.5120    3.7692 C.ar      1 <0>         0.1422
     40 C24         2.0412    3.6715    3.9467 C.ar      1 <0>         0.0438
     41 C25         2.5291    4.3558    2.8398 C.ar      1 <0>         0.1471
     42 C26         2.2705    3.8797    1.5634 C.ar      1 <0>        -0.2070
     43 O7          3.2586    5.4911    3.0083 O.3       1 <0>        -0.3016
     44 C27         3.7275    6.1424    1.8259 C.3       1 <0>         0.0230
     45 O8          2.2924    4.1357    5.2011 O.3       1 <0>        -0.4720
     46 O9          0.8162    1.8388    4.8492 O.3       1 <0>        -0.3003
     47 C28         0.0582    0.6551    4.5916 C.3       1 <0>         0.0250
     48 O10        -3.6995    2.3760   -0.1838 O.3       1 <0>        -0.3011
     49 C29        -4.6276    1.3371    0.1920 C.3       1 <0>         0.2109
     50 O11        -3.9466    0.1149   -0.1612 O.3       1 <0>        -0.3025
     51 O12         0.2950   -1.9056   -3.8586 O.3       1 <0>        -0.5498
     52 O13         0.4701   -4.6624   -4.6226 O.3       1 <0>        -0.5426
     53 H11        -0.1542   -9.1916   -2.8423 H         1 <0>         0.0841
     54 H12        -0.0594   -9.6088   -1.1145 H         1 <0>         0.0842
     55 H13        -1.4407   -8.6690   -1.7287 H         1 <0>         0.0746
     56 H14         1.8220   -5.9692    0.0787 H         1 <0>         0.0715
     57 H15         0.4364   -5.5762    1.1294 H         1 <0>         0.1156
     58 H16        -1.6384   -1.4984   -0.0453 H         1 <0>         0.1389
     59 H17        -1.0969    3.4546   -0.1067 H         1 <0>         0.1473
     60 H18         3.7389   -1.2951    1.2606 H         1 <0>         0.1121
     61 H19         3.4779   -1.2841   -0.5145 H         1 <0>         0.1036
     62 H20         0.4533    1.1476    2.3502 H         1 <0>         0.1362
     63 H21         2.6493    4.4109    0.7027 H         1 <0>         0.1431
     64 H22         4.3695    5.4619    1.2666 H         1 <0>         0.0641
     65 H23         2.8769    6.4298    1.2079 H         1 <0>         0.0572
     66 H24         4.2936    7.0321    2.1014 H         1 <0>         0.1036
     67 H25         1.6242    4.7503    5.5342 H         1 <0>         0.3829
     68 H26        -0.2635    0.2169    5.5364 H         1 <0>         0.1048
     69 H27        -0.8162    0.9070    3.9915 H         1 <0>         0.0554
     70 H28         0.6761   -0.0615    4.0505 H         1 <0>         0.0556
     71 H29        -4.8234    1.3692    1.2638 H         1 <0>         0.0908
     72 H30        -5.5565    1.4330   -0.3701 H         1 <0>         0.1356
     73 H31         0.6812   -1.0303   -3.7178 H         1 <0>         0.3946
     74 H32         0.1867   -4.0466   -5.3121 H         1 <0>         0.3909
@<TRIPOS>BOND
     1    1    2 1
     2    1   53 1
     3    1   54 1
     4    1   55 1
     5    2    3 1
     6    2   10 1
     7    2    4 1
     8    4    5 1
     9    5    6 1
    10    5   56 1
    11    5   57 1
    12    6    7 1
    13    6   17 1
    14    6    8 1
    15    8    9 1
    16    8   10 1
    17    8   11 1
    18   11   12 1
    19   11   13 1
    20   11   52 1
    21   13   14 1
    22   13   15 1
    23   13   51 1
    24   15   16 1
    25   15   17 1
    26   15   18 1
    27   18   19 1
    28   19   20 1
    29   19   31 1
    30   19   21 1
    31   21   26 ar
    32   21   22 ar
    33   22   23 ar
    34   22   58 1
    35   23   50 1
    36   23   24 ar
    37   24   25 ar
    38   24   48 1
    39   25   26 ar
    40   25   59 1
    41   26   27 1
    42   27   28 1
    43   27   29 1
    44   27   37 1
    45   29   30 1
    46   29   35 1
    47   29   31 1
    48   31   32 1
    49   31   33 1
    50   33   34 1
    51   33   60 1
    52   33   61 1
    53   34   35 1
    54   35   36 2
    55   37   42 ar
    56   37   38 ar
    57   38   39 ar
    58   38   62 1
    59   39   40 ar
    60   39   46 1
    61   40   41 ar
    62   40   45 1
    63   41   42 ar
    64   41   43 1
    65   42   63 1
    66   43   44 1
    67   44   64 1
    68   44   65 1
    69   44   66 1
    70   45   67 1
    71   46   47 1
    72   47   68 1
    73   47   69 1
    74   47   70 1
    75   48   49 1
    76   49   50 1
    77   49   71 1
    78   49   72 1
    79   51   73 1
    80   52   74 1
@<TRIPOS>MOLECULE
ZINC38943867
   85    89     0     0     0
SMALL
USER_CHARGES

@<TRIPOS>ATOM
      1 C1         -3.6473    2.0676    1.0814 C.3       1 <0>        -0.1214
      2 C2         -3.5481    0.6123    0.7026 C.2       1 <0>        -0.1139
      3 C3         -2.8437    0.2540   -0.3421 C.2       1 <0>        -0.1948
      4 C4         -4.2603   -0.4324    1.5270 C.3       1 <0>        -0.0465
      5 H1         -4.0951   -1.4213    1.1113 H         1 <0>         0.0907
      6 C5         -5.7757   -0.1014    1.5753 C.3       1 <0>        -0.1177
      7 C6         -6.1064    0.1629    3.0710 C.3       1 <0>        -0.1114
      8 C7         -5.0680   -0.7252    3.7815 C.3       1 <0>        -0.0575
      9 C8         -3.7898   -0.3688    2.9793 C.3       1 <0>        -0.0684
     10 H2         -3.5130    0.6702    3.1900 H         1 <0>         0.0881
     11 C9         -2.6774   -1.3008    3.3970 C.3       1 <0>        -0.0643
     12 H3         -2.9953   -2.3326    3.2072 H         1 <0>         0.0746
     13 C10        -1.4089   -1.0669    2.5780 C.3       1 <0>        -0.1120
     14 C11        -0.2969   -2.0190    3.0343 C.3       1 <0>        -0.1159
     15 C12        -0.0423   -1.8398    4.5266 C.3       1 <0>        -0.0603
     16 H4          0.2547   -0.7764    4.6662 H         1 <0>         0.0615
     17 C13         1.1815   -2.6315    4.9936 C.3       1 <0>        -0.0332
     18 C14         2.4159   -2.0475    4.2776 C.3       1 <0>        -0.1076
     19 C15         3.6712   -2.7621    4.7660 C.3       1 <0>        -0.1485
     20 C16         3.8742   -2.5454    6.2580 C.3       1 <0>         0.1187
     21 H5          4.7212   -3.1605    6.5926 H         1 <0>         0.0456
     22 C17         2.6477   -2.9246    7.0857 C.3       1 <0>        -0.0380
     23 C18         1.3619   -2.4018    6.4885 C.3       1 <0>        -0.0536
     24 H6          1.3920   -1.2875    6.6167 H         1 <0>         0.0627
     25 C19         0.1185   -2.8589    7.2477 C.3       1 <0>        -0.1172
     26 C20        -1.0477   -1.9493    6.8294 C.3       1 <0>        -0.1186
     27 C21        -1.3073   -2.0945    5.3303 C.3       1 <0>        -0.0199
     28 C22        -2.3920   -1.0940    4.8902 C.3       1 <0>        -0.0289
     29 C23        -3.6463   -1.2599    5.7409 C.3       1 <0>        -0.1175
     30 C24        -4.8138   -0.3982    5.2364 C.3       1 <0>        -0.0940
     31 C25        -1.8794    0.3331    5.1210 C.3       1 <0>         0.0762
     32 O1         -1.7312    0.5649    6.5233 O.3       1 <0>        -0.5566
     33 C26        -1.8611   -3.5072    5.0846 C.3       1 <0>        -0.1588
     34 C27         2.8390   -2.2576    8.4719 C.3       1 <0>        -0.1396
     35 C28         2.6224   -4.4346    7.3208 C.3       1 <0>        -0.1474
     36 O2          4.2016   -1.1724    6.5031 O.3       1 <0>        -0.5631
     37 C29         1.0767   -4.1021    4.6164 C.3       1 <0>        -0.1552
     38 C30        -5.4658   -2.1678    3.6143 C.2       1 <0>         0.4802
     39 O3         -5.8106   -2.8146    4.5748 O.2       1 <0>        -0.5008
     40 O4         -5.4373   -2.7352    2.3982 O.3       1 <0>        -0.3444
     41 C31        -5.8276   -4.1072    2.3131 C.3       1 <0>         0.0285
     42 H7         -3.0722    2.6668    0.3755 H         1 <0>         0.0607
     43 H8         -4.6915    2.3792    1.0563 H         1 <0>         0.0666
     44 H9         -3.2499    2.2093    2.0865 H         1 <0>         0.0636
     45 H10        -2.7726   -0.7889   -0.6136 H         1 <0>         0.0955
     46 H11        -2.3340    1.0015   -0.9320 H         1 <0>         0.0953
     47 H12        -5.9804    0.7908    0.9845 H         1 <0>         0.0705
     48 H13        -6.3571   -0.9408    1.1993 H         1 <0>         0.0743
     49 H14        -5.9544    1.2086    3.3253 H         1 <0>         0.0852
     50 H15        -7.1152   -0.1638    3.3103 H         1 <0>         0.0711
     51 H16        -1.6248   -1.2817    1.5241 H         1 <0>         0.0630
     52 H17        -1.0730   -0.0390    2.6584 H         1 <0>         0.0611
     53 H18        -0.5831   -3.0393    2.7965 H         1 <0>         0.0642
     54 H19         0.6141   -1.7729    2.4788 H         1 <0>         0.0608
     55 H20         2.3044   -2.1921    3.2045 H         1 <0>         0.0609
     56 H21         2.4813   -0.9842    4.5016 H         1 <0>         0.0644
     57 H22         3.6388   -3.8227    4.5332 H         1 <0>         0.0736
     58 H23         4.5371   -2.3399    4.2312 H         1 <0>         0.0559
     59 H24        -0.1175   -3.8941    7.0394 H         1 <0>         0.0606
     60 H25         0.2664   -2.7408    8.3239 H         1 <0>         0.0571
     61 H26        -1.9389   -2.2463    7.3845 H         1 <0>         0.0547
     62 H27        -0.7875   -0.9242    7.0820 H         1 <0>         0.0990
     63 H28        -3.9569   -2.2960    5.7933 H         1 <0>         0.0740
     64 H29        -3.4057   -0.9328    6.7630 H         1 <0>         0.0803
     65 H30        -4.5847    0.6613    5.3504 H         1 <0>         0.0766
     66 H31        -5.7108   -0.6262    5.8234 H         1 <0>         0.0713
     67 H32        -0.9150    0.4569    4.6284 H         1 <0>         0.0500
     68 H33        -2.5925    1.0466    4.7082 H         1 <0>         0.0428
     69 H34        -1.4096    1.4498    6.7438 H         1 <0>         0.3706
     70 H35        -1.1876   -4.2430    5.5241 H         1 <0>         0.0646
     71 H36        -2.8458   -3.5963    5.5435 H         1 <0>         0.0549
     72 H37        -1.9427   -3.6842    4.0122 H         1 <0>         0.0521
     73 H38         2.9100   -1.1769    8.3484 H         1 <0>         0.0651
     74 H39         1.9878   -2.4952    9.1101 H         1 <0>         0.0509
     75 H40         3.7536   -2.6315    8.9320 H         1 <0>         0.0476
     76 H41         3.4666   -4.7187    7.9491 H         1 <0>         0.0528
     77 H42         1.6915   -4.7095    7.8169 H         1 <0>         0.0636
     78 H43         2.6910   -4.9525    6.3642 H         1 <0>         0.0595
     79 H44         5.0082   -0.8752    6.0601 H         1 <0>         0.3717
     80 H45         0.8716   -4.1898    3.5495 H         1 <0>         0.0532
     81 H46         2.0158   -4.6045    4.8484 H         1 <0>         0.0581
     82 H47         0.2676   -4.5653    5.1813 H         1 <0>         0.0648
     83 H48        -6.8543   -4.2153    2.6628 H         1 <0>         0.0587
     84 H49        -5.7594   -4.4409    1.2777 H         1 <0>         0.1002
     85 H50        -5.1668   -4.7121    2.9341 H         1 <0>         0.0589
@<TRIPOS>BOND
     1    1    2 1
     2    1   42 1
     3    1   43 1
     4    1   44 1
     5    2    3 2
     6    2    4 1
     7    3   45 1
     8    3   46 1
     9    4    5 1
    10    4    9 1
    11    4    6 1
    12    6    7 1
    13    6   47 1
    14    6   48 1
    15    7    8 1
    16    7   49 1
    17    7   50 1
    18    8   30 1
    19    8    9 1
    20    8   38 1
    21    9   10 1
    22    9   11 1
    23   11   12 1
    24   11   28 1
    25   11   13 1
    26   13   14 1
    27   13   51 1
    28   13   52 1
    29   14   15 1
    30   14   53 1
    31   14   54 1
    32   15   16 1
    33   15   27 1
    34   15   17 1
    35   17   23 1
    36   17   18 1
    37   17   37 1
    38   18   19 1
    39   18   55 1
    40   18   56 1
    41   19   20 1
    42   19   57 1
    43   19   58 1
    44   20   21 1
    45   20   22 1
    46   20   36 1
    47   22   23 1
    48   22   34 1
    49   22   35 1
    50   23   24 1
    51   23   25 1
    52   25   26 1
    53   25   59 1
    54   25   60 1
    55   26   27 1
    56   26   61 1
    57   26   62 1
    58   27   28 1
    59   27   33 1
    60   28   29 1
    61   28   31 1
    62   29   30 1
    63   29   63 1
    64   29   64 1
    65   30   65 1
    66   30   66 1
    67   31   32 1
    68   31   67 1
    69   31   68 1
    70   32   69 1
    71   33   70 1
    72   33   71 1
    73   33   72 1
    74   34   73 1
    75   34   74 1
    76   34   75 1
    77   35   76 1
    78   35   77 1
    79   35   78 1
    80   36   79 1
    81   37   80 1
    82   37   81 1
    83   37   82 1
    84   38   39 2
    85   38   40 1
    86   40   41 1
    87   41   83 1
    88   41   84 1
    89   41   85 1
@<TRIPOS>MOLECULE
ZINC03794794
   62    64     0     0     0
SMALL
USER_CHARGES

@<TRIPOS>ATOM
      1 C1         -0.0138    1.3946    0.0641 C.ar      1 <0>        -0.1228
      2 C2          1.1630    2.1054    0.0573 C.ar      1 <0>        -0.1229
      3 C3          2.3908    1.4432   -0.0119 C.ar      1 <0>         0.2236
      4 C4          2.4265    0.0463   -0.0748 C.ar      1 <0>        -0.1530
      5 C5          1.2192   -0.6830   -0.0678 C.ar      1 <0>        -0.1529
      6 C6          0.0001   -0.0007    0.0019 C.ar      1 <0>         0.2236
      7 N1         -1.1932   -0.7087    0.0089 N.pl3     1 <0>        -0.7302
      8 C7         -2.4698    0.0068   -0.0575 C.3       1 <0>         0.0945
      9 C8         -3.6210   -1.0008   -0.0345 C.3       1 <0>        -0.0215
     10 N2         -4.9011   -0.2833   -0.1011 N.4       1 <0>        -0.5026
     11 C9         -6.0064   -1.2507   -0.0790 C.3       1 <0>        -0.0033
     12 C10        -7.3397   -0.5034   -0.1484 C.3       1 <0>         0.0440
     13 O1         -7.4466    0.1640   -1.4074 O.3       1 <0>        -0.5835
     14 C11         1.2455   -2.1529   -0.1331 C.2       1 <0>         0.4507
     15 O2          0.2040   -2.7819   -0.1273 O.2       1 <0>        -0.4405
     16 C12         2.5353   -2.8615   -0.2060 C.ar      1 <0>        -0.1420
     17 C13         2.5709   -4.2566   -0.2691 C.ar      1 <0>         0.1594
     18 C14         3.7951   -4.9170   -0.3382 C.ar      1 <0>        -0.1034
     19 C15         4.9742   -4.2046   -0.3445 C.ar      1 <0>        -0.1034
     20 C16         4.9594   -2.8135   -0.2818 C.ar      1 <0>         0.1593
     21 C17         3.7413   -2.1329   -0.2130 C.ar      1 <0>        -0.1420
     22 C18         3.7147   -0.6611   -0.1484 C.2       1 <0>         0.4506
     23 O3          4.7561   -0.0318   -0.1547 O.2       1 <0>        -0.4407
     24 O4          6.1255   -2.1206   -0.2877 O.3       1 <0>        -0.4733
     25 O5          1.4152   -4.9668   -0.2625 O.3       1 <0>        -0.4734
     26 N3          3.5729    2.1696   -0.0186 N.pl3     1 <0>        -0.7301
     27 C19         3.5335    3.6322   -0.0925 C.3       1 <0>         0.0944
     28 C20         4.9613    4.1820   -0.0843 C.3       1 <0>        -0.0215
     29 N4          4.9217    5.6486   -0.1585 N.4       1 <0>        -0.5026
     30 C21         6.2926    6.1764   -0.1506 C.3       1 <0>        -0.0033
     31 C22         6.2514    7.7039   -0.2278 C.3       1 <0>         0.0439
     32 O6          5.6391    8.2243    0.9539 O.3       1 <0>        -0.5834
     33 H1         -0.9562    1.9190    0.1224 H         1 <0>         0.1369
     34 H2          1.1379    3.1840    0.1054 H         1 <0>         0.1370
     35 H3         -1.1821   -1.6774    0.0578 H         1 <0>         0.4231
     36 H4         -2.5560    0.6765    0.7981 H         1 <0>         0.0825
     37 H5         -2.5134    0.5873   -0.9791 H         1 <0>         0.0837
     38 H6         -3.5348   -1.6705   -0.8901 H         1 <0>         0.1416
     39 H7         -3.5773   -1.5812    0.8871 H         1 <0>         0.1413
     40 H8         -4.9808    0.3367    0.6910 H         1 <0>         0.4285
     41 H9         -5.9202   -1.9204   -0.9347 H         1 <0>         0.1414
     42 H10        -5.9627   -1.8312    0.8426 H         1 <0>         0.1474
     43 H11        -8.1600   -1.2133   -0.0427 H         1 <0>         0.0994
     44 H12        -7.3876    0.2297    0.6567 H         1 <0>         0.0738
     45 H13        -8.2692    0.6595   -1.5213 H         1 <0>         0.4124
     46 H14         3.8203   -5.9956   -0.3869 H         1 <0>         0.1546
     47 H15         5.9169   -4.7288   -0.3981 H         1 <0>         0.1546
     48 H16         6.4358   -1.8802   -1.1714 H         1 <0>         0.4004
     49 H17         1.0510   -5.1336   -1.1427 H         1 <0>         0.4006
     50 H18         4.4255    1.7091    0.0256 H         1 <0>         0.4231
     51 H19         3.0324    3.9362   -1.0116 H         1 <0>         0.0833
     52 H20         2.9880    4.0248    0.7656 H         1 <0>         0.0830
     53 H21         5.4624    3.8780    0.8347 H         1 <0>         0.1415
     54 H22         5.5067    3.7894   -0.9425 H         1 <0>         0.1415
     55 H23         4.4578    5.9300   -1.0092 H         1 <0>         0.4284
     56 H24         6.7937    5.8725    0.7684 H         1 <0>         0.1415
     57 H25         6.8380    5.7839   -1.0088 H         1 <0>         0.1473
     58 H26         7.2669    8.0910   -0.3115 H         1 <0>         0.0994
     59 H27         5.6735    8.0082   -1.1005 H         1 <0>         0.0737
     60 H28         5.5792    9.1892    0.9736 H         1 <0>         0.4124
     61 H29        -4.9415    0.2541   -0.9542 H         1 <0>         0.4369
     62 H30         4.4168    6.0120    0.6359 H         1 <0>         0.4370
@<TRIPOS>BOND
     1    1    6 ar
     2    1    2 ar
     3    1   33 1
     4    2    3 ar
     5    2   34 1
     6    3    4 ar
     7    3   26 1
     8    4   22 1
     9    4    5 ar
    10    5    6 ar
    11    5   14 1
    12    6    7 1
    13    7    8 1
    14    7   35 1
    15    8    9 1
    16    8   36 1
    17    8   37 1
    18    9   10 1
    19    9   38 1
    20    9   39 1
    21   10   11 1
    22   10   40 1
    23   10   61 1
    24   11   12 1
    25   11   41 1
    26   11   42 1
    27   12   13 1
    28   12   43 1
    29   12   44 1
    30   13   45 1
    31   14   15 2
    32   14   16 1
    33   16   21 ar
    34   16   17 ar
    35   17   18 ar
    36   17   25 1
    37   18   19 ar
    38   18   46 1
    39   19   20 ar
    40   19   47 1
    41   20   21 ar
    42   20   24 1
    43   21   22 1
    44   22   23 2
    45   24   48 1
    46   25   49 1
    47   26   27 1
    48   26   50 1
    49   27   28 1
    50   27   51 1
    51   27   52 1
    52   28   29 1
    53   28   53 1
    54   28   54 1
    55   29   30 1
    56   29   55 1
    57   29   62 1
    58   30   31 1
    59   30   56 1
    60   30   57 1
    61   31   32 1
    62   31   58 1
    63   31   59 1
    64   32   60 1
@<TRIPOS>MOLECULE
ZINC00020220
   42    45     0     0     0
SMALL
USER_CHARGES

@<TRIPOS>ATOM
      1 C1          0.0085    1.3942    0.4546 C.ar      1 <0>        -0.0524
      2 C2          1.1990    2.0892    0.2267 C.ar      1 <0>        -0.1603
      3 C3          2.4277    1.4047    0.2038 C.ar      1 <0>         0.2079
      4 C4          2.4426    0.0303    0.4107 C.ar      1 <0>        -0.1586
      5 C5          1.2543   -0.6455    0.6358 C.ar      1 <0>         0.1643
      6 C6          0.0386    0.0436    0.6558 C.ar      1 <0>         0.0441
      7 F1         -1.1120   -0.6291    0.8766 F         1 <0>        -0.1374
      8 N1          1.2713   -2.0225    0.8429 N.pl3     1 <0>        -0.6709
      9 C7          1.1586   -2.9587   -0.2863 C.3       1 <0>         0.1161
     10 C8          2.2921   -3.9844   -0.1818 C.3       1 <0>        -0.0230
     11 N2          2.2535   -4.6221    1.1403 N.4       1 <0>        -0.5025
     12 C9          2.5249   -3.6257    2.1842 C.3       1 <0>        -0.0226
     13 C10         1.4086   -2.5822    2.1964 C.3       1 <0>         0.1154
     14 N3          3.6029    2.0906   -0.0220 N.pl3     1 <0>        -0.4659
     15 C11         3.6428    3.4125   -0.2271 C.2       1 <0>         0.1387
     16 C12         2.5016    4.1915   -0.2270 C.2       1 <0>        -0.2784
     17 C13         1.1985    3.5450    0.0060 C.2       1 <0>         0.4097
     18 O1          0.1633    4.1882    0.0157 O.2       1 <0>        -0.4329
     19 C14         2.5862    5.6377   -0.4546 C.2       1 <0>         0.5339
     20 O2          3.6743    6.1644   -0.6468 O.co2     1 <0>        -0.6969
     21 O3          1.5686    6.3181   -0.4524 O.co2     1 <0>        -0.6577
     22 C15         4.8610    1.3402   -0.0375 C.3       1 <0>         0.0420
     23 C16         6.1624    2.1413    0.0391 C.3       1 <0>        -0.1780
     24 C17         5.7496    1.4764   -1.2756 C.3       1 <0>        -0.1817
     25 H1         -0.9324    1.9241    0.4759 H         1 <0>         0.1548
     26 H2          3.3780   -0.5095    0.3956 H         1 <0>         0.1378
     27 H3          0.1969   -3.4699   -0.2436 H         1 <0>         0.0817
     28 H4          1.2448   -2.4120   -1.2253 H         1 <0>         0.1185
     29 H5          2.1684   -4.7428   -0.9548 H         1 <0>         0.1396
     30 H6          3.2502   -3.4821   -0.3152 H         1 <0>         0.1324
     31 H7          1.3411   -5.0256    1.2913 H         1 <0>         0.4275
     32 H8          2.5727   -4.1198    3.1546 H         1 <0>         0.1399
     33 H9          3.4760   -3.1343    1.9792 H         1 <0>         0.1320
     34 H10         1.6600   -1.7868    2.8979 H         1 <0>         0.1184
     35 H11         0.4726   -3.0548    2.4940 H         1 <0>         0.0813
     36 H12         4.5984    3.8860   -0.3979 H         1 <0>         0.1734
     37 H13         4.8364    0.3708    0.4601 H         1 <0>         0.1363
     38 H14         6.0824    3.2266    0.1010 H         1 <0>         0.1164
     39 H15         6.9941    1.6989    0.5873 H         1 <0>         0.1122
     40 H16         6.3098    0.5966   -1.5923 H         1 <0>         0.1074
     41 H17         5.3980    2.1242   -2.0786 H         1 <0>         0.1079
     42 H18         2.9514   -5.3496    1.1820 H         1 <0>         0.4296
@<TRIPOS>BOND
     1    1    6 ar
     2    1    2 ar
     3    1   25 1
     4    2   17 1
     5    2    3 ar
     6    3    4 ar
     7    3   14 1
     8    4    5 ar
     9    4   26 1
    10    5    6 ar
    11    5    8 1
    12    6    7 1
    13    8   13 1
    14    8    9 1
    15    9   10 1
    16    9   27 1
    17    9   28 1
    18   10   11 1
    19   10   29 1
    20   10   30 1
    21   11   12 1
    22   11   31 1
    23   11   42 1
    24   12   13 1
    25   12   32 1
    26   12   33 1
    27   13   34 1
    28   13   35 1
    29   14   15 1
    30   14   22 1
    31   15   16 2
    32   15   36 1
    33   16   17 1
    34   16   19 1
    35   17   18 2
    36   19   20 2
    37   19   21 1
    38   22   24 1
    39   22   23 1
    40   22   37 1
    41   23   24 1
    42   23   38 1
    43   23   39 1
    44   24   40 1
    45   24   41 1
@<TRIPOS>MOLECULE
ZINC00020220
   43    46     0     0     0
SMALL
USER_CHARGES

@<TRIPOS>ATOM
      1 C1         -0.0973    1.4829   -0.2906 C.2       1 <0>        -0.0028
      2 C2          1.1426    2.1108   -0.0459 C.2       1 <0>        -0.1630
      3 C3          2.3126    1.3408    0.1671 C.2       1 <0>         0.2522
      4 C4          2.2490   -0.0367    0.1368 C.2       1 <0>        -0.2505
      5 C5          1.0195   -0.6747   -0.1066 C.2       1 <0>         0.2840
      6 C6         -0.1812    0.1310   -0.3249 C.2       1 <0>         0.0100
      7 F1         -1.3684   -0.4698   -0.5591 F         1 <0>        -0.1151
      8 N1          0.9490   -2.0051   -0.1375 N.pl3     1 <0>        -0.6001
      9 C7          2.1664   -2.8249   -0.2373 C.3       1 <0>         0.0805
     10 C8          2.1235   -3.8936    0.8600 C.3       1 <0>        -0.0229
     11 N2          0.8712   -4.6528    0.7538 N.4       1 <0>        -0.5067
     12 C9         -0.2725   -3.7703    1.0170 C.3       1 <0>        -0.0206
     13 C10        -0.3480   -2.6957   -0.0668 C.3       1 <0>         0.0504
     14 N3          3.5171    1.9720    0.4055 N.pl3     1 <0>        -0.4101
     15 C11         3.6050    3.3087    0.4404 C.2       1 <0>         0.2443
     16 C12         2.4922    4.1080    0.2387 C.2       1 <0>        -0.2898
     17 C13         1.2318    3.5128   -0.0099 C.2       1 <0>         0.3600
     18 O1          0.1370    4.2773   -0.2090 O.3       1 <0>        -0.4287
     19 C14         2.6192    5.5711    0.2833 C.2       1 <0>         0.5376
     20 O2          3.7247    6.0866    0.3812 O.co2     1 <0>        -0.6319
     21 O3          1.6194    6.2742    0.2224 O.co2     1 <0>        -0.6504
     22 C15         4.7206    1.1659    0.6249 C.3       1 <0>         0.0042
     23 C16         5.9853    1.8949    1.0833 C.3       1 <0>        -0.1643
     24 C17         5.8869    1.3590   -0.3464 C.3       1 <0>        -0.1636
     25 H1         -0.9826    2.0815   -0.4466 H         1 <0>         0.1757
     26 H2          3.1409   -0.6237    0.2991 H         1 <0>         0.1588
     27 H3          2.2054   -3.3052   -1.2150 H         1 <0>         0.1087
     28 H4          3.0448   -2.1944   -0.1004 H         1 <0>         0.1340
     29 H5          2.9699   -4.5702    0.7416 H         1 <0>         0.1528
     30 H6          2.1758   -3.4135    1.8371 H         1 <0>         0.1390
     31 H7          0.7905   -5.0379   -0.1753 H         1 <0>         0.4314
     32 H8         -1.1917   -4.3560    1.0144 H         1 <0>         0.1539
     33 H9         -0.1478   -3.2939    1.9894 H         1 <0>         0.1382
     34 H10        -1.1311   -1.9797    0.1828 H         1 <0>         0.1631
     35 H11        -0.5672   -3.1627   -1.0270 H         1 <0>         0.1054
     36 H12         4.5622    3.7717    0.6297 H         1 <0>         0.2093
     37 H13         4.5497    0.1617    1.0127 H         1 <0>         0.1559
     38 H14         5.9218    2.9743    1.2217 H         1 <0>         0.1206
     39 H15         6.6465    1.3704    1.7730 H         1 <0>         0.1297
     40 H16         6.4835    0.4819   -0.5973 H         1 <0>         0.1248
     41 H17         5.7588    2.0858   -1.1486 H         1 <0>         0.1149
     42 H18         0.8767   -5.4041    1.4273 H         1 <0>         0.4391
     43 H19         0.3215    5.2257   -0.2487 H         1 <0>         0.4420
@<TRIPOS>BOND
     1    1    6 2
     2    1    2 1
     3    1   25 1
     4    2   17 2
     5    2    3 1
     6    3    4 2
     7    3   14 1
     8    4    5 1
     9    4   26 1
    10    5    6 1
    11    5    8 2
    12    6    7 1
    13    8   13 1
    14    8    9 1
    15    9   10 1
    16    9   27 1
    17    9   28 1
    18   10   11 1
    19   10   29 1
    20   10   30 1
    21   11   12 1
    22   11   31 1
    23   11   42 1
    24   12   13 1
    25   12   32 1
    26   12   33 1
    27   13   34 1
    28   13   35 1
    29   14   15 1
    30   14   22 1
    31   15   16 2
    32   15   36 1
    33   16   17 1
    34   16   19 1
    35   17   18 1
    36   18   43 1
    37   19   20 2
    38   19   21 1
    39   22   24 1
    40   22   23 1
    41   22   37 1
    42   23   24 1
    43   23   38 1
    44   23   39 1
    45   24   40 1
    46   24   41 1
@<TRIPOS>MOLECULE
ZINC01485869
   42    45     0     0     0
SMALL
USER_CHARGES
1-cyclopropyl-7-(2,6-dimethyl-4-pyridyl)-6,8-difluoro-4-oxo-quinoline-3-carboxylic acid
@<TRIPOS>ATOM
      1 C1         -0.2928    0.2788    0.2579 C.3       1 <0>        -0.1034
      2 C2         -0.2448    1.7843    0.2100 C.ar      1 <0>         0.1348
      3 C3          0.9763    2.4255    0.1747 C.ar      1 <0>        -0.1521
      4 C4          1.0075    3.8227    0.1299 C.ar      1 <0>         0.0031
      5 C5         -0.2099    4.5104    0.1228 C.ar      1 <0>        -0.1530
      6 C6         -1.3858    3.7898    0.1600 C.ar      1 <0>         0.1347
      7 N1         -1.3711    2.4711    0.1967 N.ar      1 <0>        -0.4825
      8 C7         -2.7048    4.5186    0.1529 C.3       1 <0>        -0.1032
      9 C8          2.2961    4.5548    0.0915 C.ar      1 <0>        -0.0701
     10 C9          3.1655    4.4920    1.1877 C.ar      1 <0>         0.0921
     11 C10         4.3585    5.1581    1.1600 C.ar      1 <0>        -0.0655
     12 C11         4.7081    5.9150    0.0399 C.ar      1 <0>        -0.1408
     13 C12         3.8434    5.9920   -1.0651 C.ar      1 <0>         0.1742
     14 C13         2.6320    5.3047   -1.0307 C.ar      1 <0>         0.0866
     15 F1          1.7873    5.3659   -2.0833 F         1 <0>        -0.1158
     16 N2          4.1916    6.7400   -2.1711 N.pl3     1 <0>        -0.4618
     17 C14         5.3423    7.4188   -2.2544 C.2       1 <0>         0.1649
     18 C15         6.2712    7.4193   -1.2329 C.2       1 <0>        -0.2781
     19 C16         5.9867    6.6484   -0.0122 C.2       1 <0>         0.4183
     20 O1          6.7748    6.6169    0.9168 O.2       1 <0>        -0.4401
     21 C17         7.5234    8.1776   -1.3625 C.2       1 <0>         0.5084
     22 O2          8.3343    8.1714   -0.4569 O.co2     1 <0>        -0.6062
     23 C18         3.2620    6.7942   -3.3020 C.3       1 <0>         0.0187
     24 C19         3.6755    7.6269   -4.5172 C.3       1 <0>        -0.1785
     25 C20         2.5711    8.1296   -3.5852 C.3       1 <0>        -0.1780
     26 F2          2.8259    3.7652    2.2747 F         1 <0>        -0.1263
     27 H1         -0.2916   -0.0519    1.2966 H         1 <0>         0.0796
     28 H2         -1.2001   -0.0717   -0.2340 H         1 <0>         0.0778
     29 H3          0.5788   -0.1290   -0.2541 H         1 <0>         0.0758
     30 H4          1.8943    1.8568    0.1813 H         1 <0>         0.1376
     31 H5         -0.2293    5.5897    0.0891 H         1 <0>         0.1368
     32 H6         -3.0353    4.6617   -0.8759 H         1 <0>         0.0791
     33 H7         -3.4469    3.9322    0.6947 H         1 <0>         0.0779
     34 H8         -2.5863    5.4891    0.6347 H         1 <0>         0.0758
     35 H9          5.0278    5.1036    2.0059 H         1 <0>         0.1618
     36 H10         5.5509    7.9849   -3.1502 H         1 <0>         0.1806
     37 H11         2.6918    5.8836   -3.4859 H         1 <0>         0.1640
     38 H12         4.6393    8.1343   -4.4751 H         1 <0>         0.1154
     39 H13         3.3775    7.2641   -5.5009 H         1 <0>         0.1131
     40 H14         1.5466    8.0977   -3.9558 H         1 <0>         0.1084
     41 H15         2.8083    8.9679   -2.9301 H         1 <0>         0.1034
     42 O3          7.7728    8.8801   -2.4858 O.co2     1 <0>        -0.7675
@<TRIPOS>BOND
     1    1    2 1
     2    1   27 1
     3    1   28 1
     4    1   29 1
     5    2    7 ar
     6    2    3 ar
     7    3    4 ar
     8    3   30 1
     9    4    5 ar
    10    4    9 1
    11    5    6 ar
    12    5   31 1
    13    6    7 ar
    14    6    8 1
    15    8   32 1
    16    8   33 1
    17    8   34 1
    18    9   14 ar
    19    9   10 ar
    20   10   11 ar
    21   10   26 1
    22   11   12 ar
    23   11   35 1
    24   12   19 1
    25   12   13 ar
    26   13   14 ar
    27   13   16 1
    28   14   15 1
    29   16   17 1
    30   16   23 1
    31   17   18 2
    32   17   36 1
    33   18   19 1
    34   18   21 1
    35   19   20 2
    36   21   22 2
    37   21   42 1
    38   23   25 1
    39   23   24 1
    40   23   37 1
    41   24   25 1
    42   24   38 1
    43   24   39 1
    44   25   40 1
    45   25   41 1
