@<TRIPOS>MOLECULE
ZINC00245045
   24    25     0     0     0
SMALL
USER_CHARGES
6-(3,4-dichlorophenyl)aminopyrimidine-2,4-diol
@<TRIPOS>ATOM
      1 C1          0.0578   -2.7898   -0.1251 C.ar      1 <0>        -0.1000
      2 C2          0.0819   -4.1669   -0.2313 C.ar      1 <0>        -0.0789
      3 C3         -1.1022   -4.8756   -0.3275 C.ar      1 <0>        -0.0480
      4 C4         -2.3154   -4.2071   -0.3119 C.ar      1 <0>        -0.0087
      5 C5         -2.3449   -2.8301   -0.2001 C.ar      1 <0>        -0.1279
      6 C6         -1.1569   -2.1170   -0.1034 C.ar      1 <0>         0.1273
      7 N1         -1.1837   -0.7234    0.0099 N.pl3     1 <0>        -0.5453
      8 C7         -0.1671    0.0374   -0.5479 C.2       1 <0>         0.4012
      9 C8         -0.1189    1.4136   -0.3388 C.2       1 <0>        -0.3031
     10 C9          0.9179    2.1340   -0.9180 C.2       1 <0>         0.4912
     11 N2          1.8250    1.4908   -1.6474 N.am      1 <0>        -0.5690
     12 C10         1.7485    0.1822   -1.8254 C.2       1 <0>         0.6180
     13 N3          0.7761   -0.5374   -1.2905 N.am      1 <0>        -0.6088
     14 O1          2.6911   -0.4373   -2.5754 O.2       1 <0>        -0.4675
     15 O2          1.0043    3.4751   -0.7417 O.2       1 <0>        -0.5924
     16 Cl1        -3.7994   -5.0998   -0.4323 Cl        1 <0>        -0.0392
     17 Cl2        -1.0678   -6.6056   -0.4675 Cl        1 <0>        -0.0457
     18 H1          0.9830   -2.2371   -0.0545 H         1 <0>         0.1495
     19 H2          1.0265   -4.6905   -0.2440 H         1 <0>         0.1466
     20 H3         -3.2908   -2.3088   -0.1883 H         1 <0>         0.1486
     21 H4         -2.0141   -0.3699   -0.4207 H         1 <0>         0.3837
     22 H5         -0.8696    1.9088    0.2593 H         1 <0>         0.1700
     23 H6          2.6460   -1.4260   -2.7185 H         1 <0>         0.4599
     24 H7          2.5745    2.0029   -2.0667 H         1 <0>         0.4385
@<TRIPOS>BOND
     1    1    6 ar
     2    1    2 ar
     3    1   18 1
     4    2    3 ar
     5    2   19 1
     6    3    4 ar
     7    3   17 1
     8    4    5 ar
     9    4   16 1
    10    5    6 ar
    11    5   20 1
    12    6    7 1
    13    7    8 1
    14    7   21 1
    15    8    9 2
    16    8   13 1
    17    9   22 1
    18    9   10 1
    19   10   11 am
    20   10   15 2
    21   11   12 am
    22   11   24 1
    23   12   13 am
    24   12   14 2
    25   13   23 1
@<TRIPOS>MOLECULE
ZINC00169542
   30    31     0     0     0
SMALL
USER_CHARGES

@<TRIPOS>ATOM
      1 C1          0.4179    1.4344   -0.8266 C.3       1 <0>        -0.1202
      2 C2          0.3224   -0.0543   -0.6125 C.ar      1 <0>        -0.0923
      3 C3         -0.1140   -0.8724   -1.6388 C.ar      1 <0>        -0.0819
      4 C4         -0.2026   -2.2368   -1.4460 C.ar      1 <0>        -0.1687
      5 C5          0.1476   -2.7876   -0.2197 C.ar      1 <0>         0.1275
      6 C6          0.5859   -1.9634    0.8086 C.ar      1 <0>        -0.1308
      7 C7          0.6768   -0.5999    0.6075 C.ar      1 <0>        -0.0540
      8 C8          1.1577    0.2947    1.7208 C.3       1 <0>        -0.1219
      9 N1          0.0586   -4.1688   -0.0209 N.pl3     1 <0>        -0.6532
     10 C9         -1.0124   -4.8667   -0.5215 C.2       1 <0>         0.4711
     11 C10        -1.0458   -6.2308   -0.4394 C.2       1 <0>        -0.3854
     12 C11        -2.1540   -6.9183   -0.9594 C.2       1 <0>         0.5655
     13 O1         -2.2057   -8.1347   -0.8970 O.2       1 <0>        -0.5250
     14 N2         -3.1605   -6.2253   -1.5275 N.am      1 <0>        -0.6626
     15 H1         -3.9270   -6.6985   -1.8872 H         1 <0>         0.4323
     16 C12        -3.1117   -4.8827   -1.5995 C.2       1 <0>         0.7136
     17 O2         -4.0310   -4.2769   -2.1155 O.2       1 <0>        -0.5355
     18 N3         -2.0631   -4.1999   -1.1044 N.am      1 <0>        -0.6513
     19 H2         -2.0474   -3.2317   -1.1622 H         1 <0>         0.4344
     20 H3          1.4080    1.6838   -1.2080 H         1 <0>         0.0745
     21 H4         -0.3383    1.7471   -1.5466 H         1 <0>         0.0702
     22 H5          0.2530    1.9489    0.1201 H         1 <0>         0.0720
     23 H6         -0.3861   -0.4435   -2.5919 H         1 <0>         0.1340
     24 H7         -0.5442   -2.8750   -2.2475 H         1 <0>         0.1297
     25 H8          0.8589   -2.3885    1.7631 H         1 <0>         0.1331
     26 H9          0.3065    0.6198    2.3191 H         1 <0>         0.0768
     27 H10         1.8568   -0.2543    2.3518 H         1 <0>         0.0706
     28 H11         1.6577    1.1656    1.2969 H         1 <0>         0.0747
     29 H12         0.7535   -4.6339    0.4706 H         1 <0>         0.4351
     30 H13        -0.2311   -6.7721    0.0185 H         1 <0>         0.1678
@<TRIPOS>BOND
     1    1    2 1
     2    1   20 1
     3    1   21 1
     4    1   22 1
     5    2    7 ar
     6    2    3 ar
     7    3    4 ar
     8    3   23 1
     9    4    5 ar
    10    4   24 1
    11    5    6 ar
    12    5    9 1
    13    6    7 ar
    14    6   25 1
    15    7    8 1
    16    8   26 1
    17    8   27 1
    18    8   28 1
    19    9   10 1
    20    9   29 1
    21   10   18 1
    22   10   11 2
    23   11   12 1
    24   11   30 1
    25   12   13 2
    26   12   14 am
    27   14   15 1
    28   14   16 am
    29   16   17 2
    30   16   18 am
    31   18   19 1
@<TRIPOS>MOLECULE
ZINC00262568
   27    28     0     0     0
SMALL
USER_CHARGES

@<TRIPOS>ATOM
      1 C1         -0.4534    1.4130    0.8478 C.3       1 <0>        -0.1242
      2 C2         -0.3173   -0.0700    0.6169 C.ar      1 <0>        -0.0803
      3 C3         -0.6513   -0.6106   -0.6113 C.ar      1 <0>        -0.0761
      4 C4         -0.5283   -1.9691   -0.8262 C.ar      1 <0>        -0.1238
      5 C5         -0.0679   -2.7937    0.1928 C.ar      1 <0>         0.1382
      6 C6          0.2674   -2.2487    1.4251 C.ar      1 <0>        -0.1579
      7 C7          0.1470   -0.8872    1.6326 C.ar      1 <0>        -0.0083
      8 Cl1         0.5724   -0.2032    3.1703 Cl        1 <0>        -0.0466
      9 N1          0.0572   -4.1696   -0.0221 N.pl3     1 <0>        -0.6522
     10 C8          1.1460   -4.8451    0.4706 C.2       1 <0>         0.4672
     11 C9          1.2150   -6.2069    0.3726 C.2       1 <0>        -0.3787
     12 C10         2.3406   -6.8712    0.8853 C.2       1 <0>         0.5653
     13 O1          2.4240   -8.0851    0.8087 O.2       1 <0>        -0.5228
     14 N2          3.3285   -6.1589    1.4622 N.am      1 <0>        -0.6620
     15 H1          4.1070   -6.6161    1.8167 H         1 <0>         0.4330
     16 C11         3.2444   -4.8190    1.5503 C.2       1 <0>         0.7136
     17 O2          4.1471   -4.1955    2.0743 O.2       1 <0>        -0.5323
     18 N3          2.1789   -4.1579    1.0617 N.am      1 <0>        -0.6527
     19 H2          2.1379   -3.1913    1.1307 H         1 <0>         0.4333
     20 H3          0.4776    1.9101    0.5752 H         1 <0>         0.0808
     21 H4         -1.2663    1.8030    0.2354 H         1 <0>         0.0759
     22 H5         -0.6697    1.5985    1.8999 H         1 <0>         0.0769
     23 H6         -1.0092    0.0304   -1.4034 H         1 <0>         0.1444
     24 H7         -0.7901   -2.3904   -1.7856 H         1 <0>         0.1413
     25 H8          0.6252   -2.8871    2.2193 H         1 <0>         0.1409
     26 H9         -0.6254   -4.6469   -0.5192 H         1 <0>         0.4379
     27 H10         0.4150   -6.7638   -0.0922 H         1 <0>         0.1693
@<TRIPOS>BOND
     1    1    2 1
     2    1   20 1
     3    1   21 1
     4    1   22 1
     5    2    7 ar
     6    2    3 ar
     7    3    4 ar
     8    3   23 1
     9    4    5 ar
    10    4   24 1
    11    5    6 ar
    12    5    9 1
    13    6    7 ar
    14    6   25 1
    15    7    8 1
    16    9   10 1
    17    9   26 1
    18   10   18 1
    19   10   11 2
    20   11   12 1
    21   11   27 1
    22   12   13 2
    23   12   14 am
    24   14   15 1
    25   14   16 am
    26   16   17 2
    27   16   18 am
    28   18   19 1
@<TRIPOS>MOLECULE
ZINC00169533
   27    28     0     0     0
SMALL
USER_CHARGES
6-(benzylamino)-1H-pyrimidine-2,4-dione
@<TRIPOS>ATOM
      1 C1          4.5318   -1.0156   -0.0467 C.ar      1 <0>        -0.1043
      2 C2          3.9890   -0.5672   -1.2363 C.ar      1 <0>        -0.1207
      3 C3          2.9260    0.3164   -1.2214 C.ar      1 <0>        -0.0966
      4 C4          2.4061    0.7519   -0.0169 C.ar      1 <0>        -0.1179
      5 C5          2.9525    0.3079    1.1727 C.ar      1 <0>        -0.0966
      6 C6          4.0119   -0.5801    1.1579 C.ar      1 <0>        -0.1207
      7 C7          1.2475    1.7155   -0.0006 C.3       1 <0>         0.1434
      8 N1         -0.0111    0.9658    0.0074 N.pl3     1 <0>        -0.7101
      9 C8         -1.2079    1.6353    0.0167 C.2       1 <0>         0.4810
     10 C9         -2.3862    0.9418    0.0128 C.2       1 <0>        -0.4051
     11 C10        -3.5961    1.6533    0.0291 C.2       1 <0>         0.5652
     12 O1         -4.6589    1.0560    0.0317 O.2       1 <0>        -0.5317
     13 N2         -3.5757    3.0007    0.0354 N.am      1 <0>        -0.6674
     14 H1         -4.4366    3.5094    0.0419 H         1 <0>         0.4374
     15 C11        -2.4071    3.6674    0.0330 C.2       1 <0>         0.7161
     16 O2         -2.4114    4.8833    0.0392 O.2       1 <0>        -0.5406
     17 N3         -1.2337    3.0088    0.0243 N.am      1 <0>        -0.6537
     18 H2         -0.3755    3.5221    0.0234 H         1 <0>         0.4370
     19 H3          5.3618   -1.7064   -0.0583 H         1 <0>         0.1264
     20 H4          4.3952   -0.9074   -2.1774 H         1 <0>         0.1273
     21 H5          2.5020    0.6667   -2.1508 H         1 <0>         0.1257
     22 H6          2.5492    0.6516    2.1138 H         1 <0>         0.1257
     23 H7          4.4357   -0.9307    2.0873 H         1 <0>         0.1273
     24 H8          1.2883    2.3477   -0.8877 H         1 <0>         0.0812
     25 H9          1.3053    2.3381    0.8922 H         1 <0>         0.0813
     26 H10         0.0021   -0.0041    0.0020 H         1 <0>         0.4274
     27 H11        -2.3860   -0.1381    0.0021 H         1 <0>         0.1629
@<TRIPOS>BOND
     1    1    6 ar
     2    1    2 ar
     3    1   19 1
     4    2    3 ar
     5    2   20 1
     6    3    4 ar
     7    3   21 1
     8    4    5 ar
     9    4    7 1
    10    5    6 ar
    11    5   22 1
    12    6   23 1
    13    7    8 1
    14    7   24 1
    15    7   25 1
    16    8    9 1
    17    8   26 1
    18    9   17 1
    19    9   10 2
    20   10   11 1
    21   10   27 1
    22   11   12 2
    23   11   13 am
    24   13   14 1
    25   13   15 am
    26   15   16 2
    27   15   17 am
    28   17   18 1
