@<TRIPOS>MOLECULE
ZINC02742665
   35    37     0     0     0
SMALL
USER_CHARGES
5-[(2-benzyloxy-5-bromo-phenyl)methylene]-2-thioxo-thiazolidin-4-one
@<TRIPOS>ATOM
      1 C1          5.8274   -2.0333    1.2222 C.ar      1 <0>        -0.1043
      2 C2          5.2858   -1.4477    2.3512 C.ar      1 <0>        -0.1223
      3 C3          4.0452   -0.8413    2.2879 C.ar      1 <0>        -0.0931
      4 C4          3.3461   -0.8205    1.0955 C.ar      1 <0>        -0.1053
      5 C5          3.8854   -1.4107   -0.0323 C.ar      1 <0>        -0.0931
      6 C6          5.1285   -2.0121    0.0297 C.ar      1 <0>        -0.1223
      7 C7          1.9934   -0.1598    1.0265 C.3       1 <0>         0.0990
      8 O1          2.1531    1.2175    0.6807 O.3       1 <0>        -0.2969
      9 C8          1.0228    1.9617    0.5764 C.ar      1 <0>         0.1927
     10 C9         -0.2153    1.3820    0.8012 C.ar      1 <0>        -0.2074
     11 C10        -1.3660    2.1389    0.6902 C.ar      1 <0>        -0.0159
     12 C11        -1.2928    3.4844    0.3640 C.ar      1 <0>        -0.1300
     13 C12        -0.0705    4.0794    0.1365 C.ar      1 <0>        -0.0240
     14 C13         1.1030    3.3231    0.2404 C.ar      1 <0>        -0.1302
     15 C14         2.4087    3.9488   -0.0007 C.2       1 <0>         0.1146
     16 C15         2.4834    5.1274   -0.6703 C.2       1 <0>        -0.2582
     17 C16         3.6469    6.0067   -0.9010 C.2       1 <0>         0.5478
     18 O2          4.7519    5.7308   -0.4718 O.2       1 <0>        -0.4575
     19 N1          3.4277    7.1090   -1.5979 N.am      1 <0>        -0.6279
     20 C17         2.2017    7.4110   -2.0716 C.2       1 <0>         0.2679
     21 S1          1.7217    8.7766   -2.9858 S.2       1 <0>        -0.3244
     22 S2          1.2019    6.0375   -1.5217 S.3       1 <0>         0.0821
     23 Br1        -2.8777    4.5063    0.2235 Br        1 <0>        -0.0288
     24 H1          6.7966   -2.5071    1.2718 H         1 <0>         0.1263
     25 H2          5.8318   -1.4642    3.2829 H         1 <0>         0.1273
     26 H3          3.6219   -0.3841    3.1700 H         1 <0>         0.1254
     27 H4          3.3373   -1.3983   -0.9628 H         1 <0>         0.1251
     28 H5          5.5518   -2.4694   -0.8524 H         1 <0>         0.1272
     29 H6          1.5018   -0.2363    1.9963 H         1 <0>         0.0804
     30 H7          1.3849   -0.6560    0.2705 H         1 <0>         0.0802
     31 H8         -0.2814    0.3355    1.0594 H         1 <0>         0.1488
     32 H9         -2.3284    1.6803    0.8626 H         1 <0>         0.1468
     33 H10        -0.0181    5.1267   -0.1217 H         1 <0>         0.1499
     34 H11         3.3101    3.4715    0.3546 H         1 <0>         0.1699
     35 H12         4.1654    7.7143   -1.7720 H         1 <0>         0.4302
@<TRIPOS>BOND
     1    1    6 ar
     2    1    2 ar
     3    1   24 1
     4    2    3 ar
     5    2   25 1
     6    3    4 ar
     7    3   26 1
     8    4    5 ar
     9    4    7 1
    10    5    6 ar
    11    5   27 1
    12    6   28 1
    13    7    8 1
    14    7   29 1
    15    7   30 1
    16    8    9 1
    17    9   14 ar
    18    9   10 ar
    19   10   11 ar
    20   10   31 1
    21   11   12 ar
    22   11   32 1
    23   12   13 ar
    24   12   23 1
    25   13   14 ar
    26   13   33 1
    27   14   15 1
    28   15   16 2
    29   15   34 1
    30   16   22 1
    31   16   17 1
    32   17   18 2
    33   17   19 am
    34   19   20 1
    35   19   35 1
    36   20   21 2
    37   20   22 1
@<TRIPOS>MOLECULE
ZINC36184602
   34    36     0     0     0
SMALL
USER_CHARGES

@<TRIPOS>ATOM
      1 C1          0.2938    1.1046    0.9683 C.ar      1 <0>        -0.0989
      2 C2          1.4995    1.7013    1.2875 C.ar      1 <0>        -0.1126
      3 C3          2.6164    0.9214    1.5202 C.ar      1 <0>        -0.0902
      4 C4          2.5279   -0.4565    1.4338 C.ar      1 <0>        -0.0873
      5 C5          1.3216   -1.0529    1.1145 C.ar      1 <0>        -0.0648
      6 C6          0.2049   -0.2720    0.8819 C.ar      1 <0>        -0.0889
      7 C7          1.2247   -2.5538    1.0198 C.3       1 <0>         0.0951
      8 O1         -0.1129   -2.9242    0.6796 O.3       1 <0>        -0.2977
      9 C8         -0.3719   -4.2503    0.5541 C.ar      1 <0>         0.1705
     10 C9          0.6359   -5.1789    0.7590 C.ar      1 <0>        -0.2083
     11 C10         0.3716   -6.5289    0.6311 C.ar      1 <0>        -0.0392
     12 C11        -0.9011   -6.9677    0.2979 C.ar      1 <0>        -0.1239
     13 C12        -1.9172   -6.0607    0.0900 C.ar      1 <0>        -0.0341
     14 C13        -1.6653   -4.6889    0.2214 C.ar      1 <0>        -0.0925
     15 C14        -2.7418   -3.7171    0.0079 C.2       1 <0>         0.0335
     16 C15        -3.8682   -4.0851   -0.6642 C.2       1 <0>        -0.1727
     17 C16        -5.0838   -3.3641   -0.8717 C.2       1 <0>         0.4852
     18 O2         -5.2459   -2.1198   -0.3681 O.3       1 <0>        -0.5784
     19 N1         -6.0265   -3.9317   -1.5544 N.2       1 <0>        -0.6212
     20 C17        -5.8853   -5.1672   -2.0638 C.2       1 <0>         0.3780
     21 S1         -6.9985   -6.0852   -2.9853 S.2       1 <0>        -0.5245
     22 S2         -4.2330   -5.6022   -1.5388 S.3       1 <0>        -0.1534
     23 Br1        -1.2432   -8.8197    0.1274 Br        1 <0>        -0.0444
     24 Br2         4.0560   -1.5242    1.7515 Br        1 <0>        -0.0502
     25 H1         -0.5799    1.7142    0.7909 H         1 <0>         0.1349
     26 H2          1.5686    2.7770    1.3545 H         1 <0>         0.1333
     27 H3          3.5583    1.3876    1.7691 H         1 <0>         0.1347
     28 H4         -0.7373   -0.7376    0.6330 H         1 <0>         0.1458
     29 H5          1.9081   -2.9142    0.2510 H         1 <0>         0.0870
     30 H6          1.4913   -2.9964    1.9795 H         1 <0>         0.0870
     31 H7          1.6301   -4.8466    1.0188 H         1 <0>         0.1405
     32 H8          1.1618   -7.2475    0.7914 H         1 <0>         0.1379
     33 H9         -2.9068   -6.4068   -0.1698 H         1 <0>         0.1623
     34 H10        -2.6420   -2.7095    0.3835 H         1 <0>         0.1576
@<TRIPOS>BOND
     1    1    6 ar
     2    1    2 ar
     3    1   25 1
     4    2    3 ar
     5    2   26 1
     6    3    4 ar
     7    3   27 1
     8    4    5 ar
     9    4   24 1
    10    5    6 ar
    11    5    7 1
    12    6   28 1
    13    7    8 1
    14    7   29 1
    15    7   30 1
    16    8    9 1
    17    9   14 ar
    18    9   10 ar
    19   10   11 ar
    20   10   31 1
    21   11   12 ar
    22   11   32 1
    23   12   13 ar
    24   12   23 1
    25   13   14 ar
    26   13   33 1
    27   14   15 1
    28   15   16 2
    29   15   34 1
    30   16   22 1
    31   16   17 1
    32   17   18 1
    33   17   19 2
    34   19   20 1
    35   20   21 2
    36   20   22 1
@<TRIPOS>MOLECULE
ZINC12339022
   22    23     0     0     0
SMALL
USER_CHARGES
(5Z)-5-[(5-bromo-2-hydroxy-phenyl)methylene]-2-thioxo-thiazolidin-4-one
@<TRIPOS>ATOM
      1 C1          0.2554    1.7033    0.6781 C.ar      1 <0>        -0.0436
      2 C2          0.1737    0.3283    0.7921 C.ar      1 <0>        -0.1402
      3 C3          1.2914   -0.4562    0.5606 C.ar      1 <0>         0.1694
      4 C4          2.5082    0.1522    0.2101 C.ar      1 <0>        -0.1238
      5 C5          2.5770    1.5455    0.0986 C.ar      1 <0>        -0.0488
      6 C6          1.4530    2.3092    0.3325 C.ar      1 <0>        -0.1019
      7 Br1         1.5461    4.1919    0.1812 Br        1 <0>        -0.0254
      8 C7          3.6998   -0.6683   -0.0382 C.2       1 <0>         0.0988
      9 C8          4.7521   -0.1482   -0.7203 C.2       1 <0>        -0.2468
     10 C9          6.0924   -0.7187   -0.9609 C.2       1 <0>         0.5470
     11 O1          6.4087   -1.8121   -0.5296 O.2       1 <0>        -0.4551
     12 N1          6.9318    0.0180   -1.6689 N.am      1 <0>        -0.6278
     13 C10         6.5772    1.2288   -2.1453 C.2       1 <0>         0.2651
     14 S1          7.5124    2.3217   -3.0737 S.2       1 <0>        -0.3156
     15 S2          4.8931    1.4124   -1.5808 S.3       1 <0>         0.0827
     16 O2          1.2114   -1.8066    0.6716 O.3       1 <0>        -0.4883
     17 H1         -0.6209    2.3093    0.8551 H         1 <0>         0.1482
     18 H2         -0.7637   -0.1354    1.0618 H         1 <0>         0.1510
     19 H3          3.5084    2.0216   -0.1701 H         1 <0>         0.1474
     20 H4          3.7393   -1.6858    0.3217 H         1 <0>         0.1722
     21 H5          7.8229   -0.3199   -1.8495 H         1 <0>         0.4310
     22 H6          0.9711   -2.2553   -0.1506 H         1 <0>         0.4045
@<TRIPOS>BOND
     1    1    6 ar
     2    1    2 ar
     3    1   17 1
     4    2    3 ar
     5    2   18 1
     6    3    4 ar
     7    3   16 1
     8    4    5 ar
     9    4    8 1
    10    5    6 ar
    11    5   19 1
    12    6    7 1
    13    8    9 2
    14    8   20 1
    15    9   15 1
    16    9   10 1
    17   10   11 2
    18   10   12 am
    19   12   13 1
    20   12   21 1
    21   13   14 2
    22   13   15 1
    23   16   22 1
@<TRIPOS>MOLECULE
ZINC16449901
   35    37     0     0     0
SMALL
USER_CHARGES
(5Z)-5-[[5-bromo-2-[(2-chlorophenyl)methoxy]phenyl]methylene]-2-thioxo-thiazolidin-4-one
@<TRIPOS>ATOM
      1 C1          7.9201    5.0377   -0.2325 C.ar      1 <0>        -0.1112
      2 C2          8.8167    6.0862   -0.3240 C.ar      1 <0>        -0.1015
      3 C3          8.3544    7.3857   -0.4080 C.ar      1 <0>        -0.1058
      4 C4          6.9938    7.6376   -0.4012 C.ar      1 <0>        -0.0292
      5 C5          6.0972    6.5881   -0.3101 C.ar      1 <0>        -0.0886
      6 C6          6.5610    5.2889   -0.2208 C.ar      1 <0>        -0.0868
      7 C7          4.6152    6.8615   -0.3021 C.3       1 <0>         0.0992
      8 O1          3.9035    5.6265   -0.2013 O.3       1 <0>        -0.2991
      9 C8          2.5481    5.6962   -0.1811 C.ar      1 <0>         0.1928
     10 C9          1.9133    6.9254   -0.2561 C.ar      1 <0>        -0.2049
     11 C10         0.5335    6.9959   -0.2346 C.ar      1 <0>        -0.0156
     12 C11        -0.2273    5.8409   -0.1386 C.ar      1 <0>        -0.1280
     13 C12         0.3855    4.6082   -0.0693 C.ar      1 <0>        -0.0244
     14 C13         1.7827    4.5226   -0.0837 C.ar      1 <0>        -0.1276
     15 C14         2.4435    3.2143   -0.0036 C.2       1 <0>         0.1120
     16 C15         1.7465    2.0835   -0.2841 C.2       1 <0>        -0.2561
     17 C16         2.1452    0.6701   -0.1319 C.2       1 <0>         0.5483
     18 O2          3.2393    0.3573    0.3000 O.2       1 <0>        -0.4579
     19 N1          1.2533   -0.2389   -0.4882 N.am      1 <0>        -0.6279
     20 C17         0.0419    0.1119   -0.9660 C.2       1 <0>         0.2668
     21 S1         -1.2357   -0.9071   -1.4761 S.2       1 <0>        -0.3215
     22 S2          0.0935    1.8965   -0.9386 S.3       1 <0>         0.0826
     23 Br1        -2.1145    5.9567   -0.1106 Br        1 <0>        -0.0274
     24 Cl1         6.4123    9.2699   -0.5062 Cl        1 <0>        -0.0635
     25 H1          8.2819    4.0222   -0.1668 H         1 <0>         0.1341
     26 H2          9.8787    5.8895   -0.3293 H         1 <0>         0.1361
     27 H3          9.0549    8.2047   -0.4787 H         1 <0>         0.1388
     28 H4          5.8611    4.4698   -0.1452 H         1 <0>         0.1404
     29 H5          4.3343    7.3685   -1.2252 H         1 <0>         0.0896
     30 H6          4.3671    7.4944    0.5500 H         1 <0>         0.0897
     31 H7          2.4981    7.8302   -0.3311 H         1 <0>         0.1493
     32 H8          0.0446    7.9571   -0.2926 H         1 <0>         0.1476
     33 H9         -0.2109    3.7105    0.0005 H         1 <0>         0.1503
     34 H10         3.4841    3.1513    0.2784 H         1 <0>         0.1692
     35 H11         1.4753   -1.1794   -0.4037 H         1 <0>         0.4304
@<TRIPOS>BOND
     1    1    6 ar
     2    1    2 ar
     3    1   25 1
     4    2    3 ar
     5    2   26 1
     6    3    4 ar
     7    3   27 1
     8    4    5 ar
     9    4   24 1
    10    5    6 ar
    11    5    7 1
    12    6   28 1
    13    7    8 1
    14    7   29 1
    15    7   30 1
    16    8    9 1
    17    9   14 ar
    18    9   10 ar
    19   10   11 ar
    20   10   31 1
    21   11   12 ar
    22   11   32 1
    23   12   13 ar
    24   12   23 1
    25   13   14 ar
    26   13   33 1
    27   14   15 1
    28   15   16 2
    29   15   34 1
    30   16   22 1
    31   16   17 1
    32   17   18 2
    33   17   19 am
    34   19   20 1
    35   19   35 1
    36   20   21 2
    37   20   22 1
