@<TRIPOS>MOLECULE
ZINC03777328
   64    65     0     0     0
SMALL
USER_CHARGES
N-(1-formyl-4-guanidino-butyl)-1-(2-methylamino-3-phenyl-propanoyl)-pyrrolidine-2-carboxamide
@<TRIPOS>ATOM
      1 C1         -1.1006   11.6463   -1.5224 C.3       1 <0>        -0.0461
      2 C2         -0.9630   11.2349    0.8596 C.3       1 <0>         0.0169
      3 H1         -1.8685   11.8411    0.8348 H         1 <0>         0.1593
      4 C3         -0.1070   11.6456    2.0594 C.3       1 <0>        -0.0917
      5 C4          0.1631   13.1271    2.0002 C.ar      1 <0>        -0.1306
      6 C5          1.2821   13.5998    1.3406 C.ar      1 <0>        -0.1429
      7 C6          1.5270   14.9590    1.2817 C.ar      1 <0>        -0.1028
      8 C7          0.6589   15.8448    1.8922 C.ar      1 <0>        -0.0988
      9 C8         -0.4574   15.3717    2.5563 C.ar      1 <0>        -0.1020
     10 C9         -0.7053   14.0129    2.6102 C.ar      1 <0>        -0.1030
     11 C10        -1.3357    9.7799    0.9830 C.2       1 <0>         0.5339
     12 O1         -0.6480    8.9310    0.4564 O.2       1 <0>        -0.5146
     13 N1         -2.4332    9.4221    1.6787 N.am      1 <0>        -0.5806
     14 C11        -3.3535   10.3459    2.3665 C.3       1 <0>         0.0813
     15 C12        -4.0211    9.4904    3.4720 C.3       1 <0>        -0.1308
     16 C13        -4.1772    8.1228    2.7560 C.3       1 <0>        -0.1285
     17 C14        -2.9104    8.0459    1.8779 C.3       1 <0>         0.1215
     18 H2         -2.1435    7.4566    2.3804 H         1 <0>         0.1120
     19 C15        -3.2460    7.4222    0.5477 C.2       1 <0>         0.5198
     20 O2         -3.1031    8.0595   -0.4742 O.2       1 <0>        -0.5250
     21 N2         -3.7051    6.1561    0.4937 N.am      1 <0>        -0.7157
     22 C16        -4.0313    5.5498   -0.7994 C.3       1 <0>         0.0934
     23 H3         -3.3938    5.8829   -1.4941 H         1 <0>         0.1097
     24 C17        -3.9188    4.0277   -0.6920 C.3       1 <0>        -0.1228
     25 C18        -2.4636    3.6418   -0.4196 C.3       1 <0>        -0.1314
     26 C19        -2.3512    2.1198   -0.3120 C.3       1 <0>         0.0917
     27 N3         -0.9577    1.7502   -0.0513 N.pl3     1 <0>        -0.7015
     28 C20        -0.6115    0.4267    0.0849 C.cat     1 <0>         0.7402
     29 N4          0.6971    0.0796    0.3240 N.pl3     1 <0>        -0.8052
     30 C21        -5.4384    5.9233   -1.1887 C.2       1 <0>         0.3242
     31 O3         -6.1004    6.6237   -0.4610 O.2       1 <0>        -0.4336
     32 H4         -1.7933   10.8080   -1.5941 H         1 <0>         0.1248
     33 H5         -1.6614   12.5704   -1.3827 H         1 <0>         0.1257
     34 H6         -0.5140   11.7124   -2.4389 H         1 <0>         0.1325
     35 H7         -0.6374   11.4096    2.9820 H         1 <0>         0.1230
     36 H8          0.8379   11.1028    2.0345 H         1 <0>         0.1070
     37 H9          1.9630   12.9075    0.8678 H         1 <0>         0.1239
     38 H10         2.3990   15.3287    0.7626 H         1 <0>         0.1351
     39 H11         0.8526   16.9065    1.8500 H         1 <0>         0.1355
     40 H12        -1.1357   16.0637    3.0331 H         1 <0>         0.1356
     41 H13        -1.5773   13.6432    3.1294 H         1 <0>         0.1298
     42 H14        -2.7994   11.1733    2.8098 H         1 <0>         0.0903
     43 H15        -4.1047   10.7206    1.6713 H         1 <0>         0.0881
     44 H16        -3.3726    9.4033    4.3438 H         1 <0>         0.0897
     45 H17        -4.9924    9.8998    3.7496 H         1 <0>         0.1035
     46 H18        -5.0756    8.1109    2.1388 H         1 <0>         0.0942
     47 H19        -4.1946    7.3082    3.4801 H         1 <0>         0.1022
     48 H20        -3.8194    5.6464    1.3110 H         1 <0>         0.4059
     49 H21        -4.2467    3.5723   -1.6264 H         1 <0>         0.1024
     50 H22        -4.5476    3.6737    0.1251 H         1 <0>         0.0872
     51 H23        -2.1357    4.0972    0.5149 H         1 <0>         0.0828
     52 H24        -1.8348    3.9957   -1.2365 H         1 <0>         0.0868
     53 H25        -2.6790    1.6643   -1.2465 H         1 <0>         0.0960
     54 H26        -2.9800    1.7658    0.5049 H         1 <0>         0.0946
     55 H27        -0.2787    2.4390    0.0213 H         1 <0>         0.4328
     56 H28        -1.3784   -1.4601    0.0685 H         1 <0>         0.4538
     57 H29         1.3761    0.7684    0.3966 H         1 <0>         0.4401
     58 H30         0.9414   -0.8543    0.4201 H         1 <0>         0.4409
     59 H31        -5.8548    5.5646   -2.1184 H         1 <0>         0.1125
     60 N5         -0.1904   11.4419   -0.3798 N.4       1 <0>        -0.5078
     61 H32         0.4084   12.2689   -0.2715 H         1 <0>         0.4350
     62 H33         0.3945   10.6166   -0.5561 H         1 <0>         0.4390
     63 N6         -1.5851   -0.4656   -0.0249 N.pl3     1 <0>        -0.7942
     64 H34        -2.5475   -0.1559   -0.2040 H         1 <0>         0.4551
@<TRIPOS>BOND
     1    1   32 1
     2    1   33 1
     3    1   34 1
     4    1   60 1
     5    2    3 1
     6    2    4 1
     7    2   11 1
     8    2   60 1
     9    4    5 1
    10    4   35 1
    11    4   36 1
    12    5   10 ar
    13    5    6 ar
    14    6    7 ar
    15    6   37 1
    16    7    8 ar
    17    7   38 1
    18    8    9 ar
    19    8   39 1
    20    9   10 ar
    21    9   40 1
    22   10   41 1
    23   11   12 2
    24   11   13 am
    25   13   17 1
    26   13   14 1
    27   14   15 1
    28   14   42 1
    29   14   43 1
    30   15   16 1
    31   15   44 1
    32   15   45 1
    33   16   17 1
    34   16   46 1
    35   16   47 1
    36   17   18 1
    37   17   19 1
    38   19   20 2
    39   19   21 am
    40   21   22 1
    41   21   48 1
    42   22   23 1
    43   22   24 1
    44   22   30 1
    45   24   25 1
    46   24   49 1
    47   24   50 1
    48   25   26 1
    49   25   51 1
    50   25   52 1
    51   26   27 1
    52   26   53 1
    53   26   54 1
    54   27   28 1
    55   27   55 1
    56   28   29 1
    57   28   63 2
    58   29   57 1
    59   29   58 1
    60   30   31 2
    61   30   59 1
    62   56   63 1
    63   60   61 1
    64   60   62 1
    65   63   64 1
