@<TRIPOS>MOLECULE
ZINC03848516
   45    48     0     0     0
SMALL
USER_CHARGES
3-hydroxy-4-(5-hydroxy-3-methyl-1-phenyl-pyrazol-4-yl)azo-naphthalene-1-sulfonic acid
@<TRIPOS>ATOM
      1 C1          0.7647    4.3049   -2.6872 C.3       1 <0>        -0.0767
      2 C2          0.4504    3.3131   -3.7774 C.2       1 <0>         0.1522
      3 C3          0.2151    1.9304   -3.5974 C.2       1 <0>        -0.0859
      4 C4         -0.0408    1.3935   -4.8536 C.2       1 <0>         0.2988
      5 N1          0.0434    2.4067   -5.7446 N.pl3     1 <0>        -0.3228
      6 N2          0.3522    3.5815   -5.0504 N.2       1 <0>        -0.2739
      7 C5         -0.1461    2.2985   -7.1290 C.ar      1 <0>         0.1393
      8 C6          0.2658    1.1550   -7.8002 C.ar      1 <0>        -0.1175
      9 C7          0.0729    1.0492   -9.1638 C.ar      1 <0>        -0.1006
     10 C8         -0.5197    2.0852   -9.8621 C.ar      1 <0>        -0.1176
     11 C9         -0.9262    3.2275   -9.1972 C.ar      1 <0>        -0.1044
     12 C10        -0.7409    3.3371   -7.8329 C.ar      1 <0>        -0.1053
     13 O1         -0.3226    0.0980   -5.1326 O.3       1 <0>        -0.4408
     14 N3          0.2306    1.2535   -2.4153 N.2       1 <0>        -0.1554
     15 N4         -0.0080   -0.0141   -2.3946 N.2       1 <0>        -0.2254
     16 C11         0.0076   -0.6908   -1.2128 C.ar      1 <0>         0.0522
     17 C12        -0.2555   -2.1282   -1.1717 C.ar      1 <0>        -0.0127
     18 C13        -0.5313   -2.8540   -2.3366 C.ar      1 <0>        -0.1080
     19 C14        -0.7762   -4.1926   -2.2544 C.ar      1 <0>        -0.1129
     20 C15        -0.7559   -4.8492   -1.0264 C.ar      1 <0>        -0.1256
     21 C16        -0.4916   -4.1734    0.1259 C.ar      1 <0>        -0.1041
     22 C17        -0.2345   -2.7926    0.0787 C.ar      1 <0>         0.0001
     23 C18         0.0419   -2.0617    1.2478 C.ar      1 <0>        -0.6024
     24 C19         0.2888   -0.7262    1.1913 C.ar      1 <0>        -0.0632
     25 C20         0.2797   -0.0282   -0.0154 C.ar      1 <0>         0.1237
     26 O2          0.5318    1.3057   -0.0249 O.3       1 <0>        -0.4708
     27 S1          0.0679   -2.8866    2.8045 S.o2      1 <0>         2.6917
     28 O3          0.5238   -4.2093    2.5557 O.2       1 <0>        -1.0431
     29 O4          0.7220   -2.0142    3.7157 O.2       1 <0>        -1.0481
     30 H1          1.8440    4.3577   -2.5442 H         1 <0>         0.0861
     31 H2          0.3872    5.2875   -2.9700 H         1 <0>         0.0784
     32 H3          0.2904    3.9868   -1.7588 H         1 <0>         0.0959
     33 H4          0.7331    0.3476   -7.2561 H         1 <0>         0.1377
     34 H5          0.3894    0.1583   -9.6858 H         1 <0>         0.1340
     35 H6         -0.6658    2.0018  -10.9289 H         1 <0>         0.1299
     36 H7         -1.3888    4.0349   -9.7453 H         1 <0>         0.1332
     37 H8         -1.0585    4.2295   -7.3142 H         1 <0>         0.1351
     38 H9         -1.2658   -0.1135   -5.1081 H         1 <0>         0.4049
     39 H10        -0.5502   -2.3562   -3.2948 H         1 <0>         0.1303
     40 H11        -0.9892   -4.7514   -3.1538 H         1 <0>         0.1204
     41 H12        -0.9531   -5.9103   -0.9873 H         1 <0>         0.1249
     42 H13        -0.4792   -4.6958    1.0710 H         1 <0>         0.1771
     43 H14         0.4979   -0.1915    2.1060 H         1 <0>         0.1484
     44 H15         1.4671    1.5285   -0.1288 H         1 <0>         0.3874
     45 O5         -1.3747   -3.0051    3.2752 O.3       1 <0>        -1.0644
@<TRIPOS>BOND
     1    1    2 1
     2    1   30 1
     3    1   31 1
     4    1   32 1
     5    2    6 2
     6    2    3 1
     7    3    4 2
     8    3   14 1
     9    4    5 1
    10    4   13 1
    11    5    6 1
    12    5    7 1
    13    7   12 ar
    14    7    8 ar
    15    8    9 ar
    16    8   33 1
    17    9   10 ar
    18    9   34 1
    19   10   11 ar
    20   10   35 1
    21   11   12 ar
    22   11   36 1
    23   12   37 1
    24   13   38 1
    25   14   15 2
    26   15   16 1
    27   16   25 ar
    28   16   17 ar
    29   17   22 ar
    30   17   18 ar
    31   18   19 ar
    32   18   39 1
    33   19   20 ar
    34   19   40 1
    35   20   21 ar
    36   20   41 1
    37   21   22 ar
    38   21   42 1
    39   22   23 ar
    40   23   24 ar
    41   23   27 1
    42   24   25 ar
    43   24   43 1
    44   25   26 1
    45   26   44 1
    46   27   28 2
    47   27   29 2
    48   27   45 1
@<TRIPOS>MOLECULE
ZINC12358966
   38    40     0     0     0
SMALL
USER_CHARGES
3-hydroxy-4-(2-hydroxy-5-methyl-phenyl)azo-naphthalene-1-sulfonic acid
@<TRIPOS>ATOM
      1 C1          0.0276    1.3337   -0.0359 C.3       1 <0>        -0.1135
      2 C2         -0.7235    1.5386    1.2544 C.ar      1 <0>        -0.1010
      3 C3         -0.0439    1.5031    2.4609 C.ar      1 <0>        -0.0862
      4 C4         -0.7214    1.6891    3.6509 C.ar      1 <0>        -0.1480
      5 C5         -2.0884    1.9137    3.6446 C.ar      1 <0>         0.1586
      6 C6         -2.7811    1.9510    2.4252 C.ar      1 <0>         0.0320
      7 C7         -2.0827    1.7660    1.2284 C.ar      1 <0>        -0.0923
      8 N1         -4.1278    2.1715    2.4071 N.2       1 <0>        -0.2025
      9 N2         -4.7609    2.2050    1.2837 N.2       1 <0>        -0.2053
     10 C8         -6.1025    2.4247    1.2657 C.ar      1 <0>         0.0368
     11 C9         -6.8353    2.4719    0.0007 C.ar      1 <0>        -0.0067
     12 C10        -6.1879    2.2830   -1.2256 C.ar      1 <0>        -0.1126
     13 C11        -6.9086    2.3279   -2.3823 C.ar      1 <0>        -0.1068
     14 C12        -8.2823    2.5548   -2.3601 C.ar      1 <0>        -0.1263
     15 C13        -8.9439    2.7381   -1.1838 C.ar      1 <0>        -0.1003
     16 C14        -8.2327    2.6979    0.0273 C.ar      1 <0>        -0.0052
     17 C15        -8.8824    2.8825    1.2612 C.ar      1 <0>        -0.5897
     18 C16        -8.1863    2.8413    2.4276 C.ar      1 <0>        -0.0716
     19 C17        -6.8105    2.6160    2.4544 C.ar      1 <0>         0.1448
     20 O1         -6.1556    2.5830    3.6422 O.3       1 <0>        -0.4656
     21 S1        -10.6203    3.1713    1.2948 S.o2      1 <0>         2.6906
     22 O2        -11.1711    2.4627    0.1932 O.2       1 <0>        -1.0410
     23 O3        -11.0433    2.9477    2.6328 O.2       1 <0>        -1.0457
     24 O4         -2.7548    2.0974    4.8132 O.3       1 <0>        -0.4800
     25 H1          0.0425    0.2722   -0.2831 H         1 <0>         0.0715
     26 H2          1.0499    1.6947    0.0775 H         1 <0>         0.0673
     27 H3         -0.4661    1.8861   -0.8354 H         1 <0>         0.0679
     28 H4          1.0218    1.3287    2.4716 H         1 <0>         0.1299
     29 H5         -0.1842    1.6596    4.5874 H         1 <0>         0.1369
     30 H6         -2.6079    1.7972    0.2852 H         1 <0>         0.1390
     31 H7         -5.1228    2.1066   -1.2558 H         1 <0>         0.1287
     32 H8         -6.4073    2.1859   -3.3283 H         1 <0>         0.1225
     33 H9         -8.8312    2.5862   -3.2897 H         1 <0>         0.1268
     34 H10       -10.0096    2.9132   -1.1820 H         1 <0>         0.1784
     35 H11        -8.7130    2.9867    3.3592 H         1 <0>         0.1509
     36 H12        -5.8225    3.4434    3.9318 H         1 <0>         0.3891
     37 H13        -2.8046    3.0206    5.0966 H         1 <0>         0.3916
     38 O5        -10.8361    4.6512    1.0120 O.3       1 <0>        -1.0631
@<TRIPOS>BOND
     1    1    2 1
     2    1   25 1
     3    1   26 1
     4    1   27 1
     5    2    7 ar
     6    2    3 ar
     7    3    4 ar
     8    3   28 1
     9    4    5 ar
    10    4   29 1
    11    5    6 ar
    12    5   24 1
    13    6    7 ar
    14    6    8 1
    15    7   30 1
    16    8    9 2
    17    9   10 1
    18   10   19 ar
    19   10   11 ar
    20   11   16 ar
    21   11   12 ar
    22   12   13 ar
    23   12   31 1
    24   13   14 ar
    25   13   32 1
    26   14   15 ar
    27   14   33 1
    28   15   16 ar
    29   15   34 1
    30   16   17 ar
    31   17   18 ar
    32   17   21 1
    33   18   19 ar
    34   18   35 1
    35   19   20 1
    36   20   36 1
    37   21   22 2
    38   21   23 2
    39   21   38 1
    40   24   37 1
@<TRIPOS>MOLECULE
ZINC12405071
   41    44     0     0     0
SMALL
USER_CHARGES
3-hydroxy-4-[(2-hydroxy-1-naphthyl)azo]naphthalene-1-sulfonic acid
@<TRIPOS>ATOM
      1 C1          0.0372    1.1923   -1.1072 C.ar      1 <0>        -0.1177
      2 C2         -1.1834    1.8625   -1.0966 C.ar      1 <0>        -0.1126
      3 C3         -1.2473    3.1962   -0.8199 C.ar      1 <0>        -0.0904
      4 C4         -0.0700    3.9048   -0.5542 C.ar      1 <0>         0.0007
      5 C5          1.1736    3.2276   -0.5695 C.ar      1 <0>        -0.0638
      6 C6          1.2015    1.8515   -0.8527 C.ar      1 <0>        -0.1037
      7 C7          2.3554    3.9413   -0.3024 C.ar      1 <0>        -0.0711
      8 C8          2.3185    5.2727   -0.0298 C.ar      1 <0>        -0.1464
      9 C9          1.1203    5.9839   -0.0034 C.ar      1 <0>         0.1318
     10 C10        -0.0915    5.3370   -0.2592 C.ar      1 <0>         0.0428
     11 N1         -1.2642    6.0238   -0.2352 N.2       1 <0>        -0.2174
     12 N2         -1.2666    7.2871    0.0259 N.2       1 <0>        -0.1846
     13 C11        -2.4393    7.9739    0.0499 C.ar      1 <0>         0.0377
     14 C12        -2.4613    9.4053    0.3500 C.ar      1 <0>        -0.0064
     15 C13        -1.2833   10.1152    0.6088 C.ar      1 <0>        -0.1101
     16 C14        -1.3463   11.4505    0.8781 C.ar      1 <0>        -0.1086
     17 C15        -2.5672   12.1198    0.8930 C.ar      1 <0>        -0.1258
     18 C16        -3.7316   11.4603    0.6397 C.ar      1 <0>        -0.1021
     19 C17        -3.7039   10.0839    0.3584 C.ar      1 <0>        -0.0052
     20 C18        -4.8862    9.3698    0.0922 C.ar      1 <0>        -0.5905
     21 C19        -4.8494    8.0384   -0.1790 C.ar      1 <0>        -0.0715
     22 C20        -3.6508    7.3272   -0.2059 C.ar      1 <0>         0.1405
     23 O1         -3.6611    5.9985   -0.4817 O.3       1 <0>        -0.4715
     24 S1         -6.4340   10.2116    0.1111 S.o2      1 <0>         2.6904
     25 O2         -6.1796   11.5393   -0.3267 O.2       1 <0>        -1.0411
     26 O3         -7.3672    9.3603   -0.5399 O.2       1 <0>        -1.0463
     27 O4          1.1305    7.3125    0.2730 O.3       1 <0>        -0.4704
     28 H1          0.0614    0.1348   -1.3249 H         1 <0>         0.1237
     29 H2         -2.0921    1.3177   -1.3061 H         1 <0>         0.1263
     30 H3         -2.2005    3.7040   -0.8109 H         1 <0>         0.1416
     31 H4          2.1411    1.3194   -0.8681 H         1 <0>         0.1289
     32 H5          3.3042    3.4254   -0.3143 H         1 <0>         0.1333
     33 H6          3.2430    5.7936    0.1713 H         1 <0>         0.1323
     34 H7         -0.3302    9.6072    0.6005 H         1 <0>         0.1341
     35 H8         -0.4371   11.9962    1.0829 H         1 <0>         0.1221
     36 H9         -2.5913   13.1777    1.1089 H         1 <0>         0.1260
     37 H10        -4.6713   11.9925    0.6547 H         1 <0>         0.1778
     38 H11        -5.7740    7.5175   -0.3794 H         1 <0>         0.1499
     39 H12        -3.7507    5.4353    0.2993 H         1 <0>         0.3896
     40 H13         1.2203    7.8759   -0.5078 H         1 <0>         0.3911
     41 O5         -6.8751   10.3098    1.5645 O.3       1 <0>        -1.0631
@<TRIPOS>BOND
     1    1    6 ar
     2    1    2 ar
     3    1   28 1
     4    2    3 ar
     5    2   29 1
     6    3    4 ar
     7    3   30 1
     8    4   10 ar
     9    4    5 ar
    10    5    6 ar
    11    5    7 ar
    12    6   31 1
    13    7    8 ar
    14    7   32 1
    15    8    9 ar
    16    8   33 1
    17    9   10 ar
    18    9   27 1
    19   10   11 1
    20   11   12 2
    21   12   13 1
    22   13   22 ar
    23   13   14 ar
    24   14   19 ar
    25   14   15 ar
    26   15   16 ar
    27   15   34 1
    28   16   17 ar
    29   16   35 1
    30   17   18 ar
    31   17   36 1
    32   18   19 ar
    33   18   37 1
    34   19   20 ar
    35   20   21 ar
    36   20   24 1
    37   21   22 ar
    38   21   38 1
    39   22   23 1
    40   23   39 1
    41   24   25 2
    42   24   26 2
    43   24   41 1
    44   27   40 1
@<TRIPOS>MOLECULE
ZINC03861030
   43    46     0     0     0
SMALL
USER_CHARGES
3-hydroxy-4-[(2-hydroxy-4-sulfo-1-naphthyl)azo]naphthalene-2-carboxylic acid
@<TRIPOS>ATOM
      1 C1          2.3926   -2.6508    1.0874 C.ar      1 <0>        -0.1341
      2 C2          3.5917   -1.9424    1.0753 C.ar      1 <0>        -0.1182
      3 C3          3.6122   -0.6038    0.8159 C.ar      1 <0>        -0.0957
      4 C4          2.4133    0.0708    0.5573 C.ar      1 <0>         0.0123
      5 C5          1.1910   -0.6468    0.5682 C.ar      1 <0>        -0.0759
      6 C6          1.2080   -2.0274    0.8394 C.ar      1 <0>        -0.0916
      7 C7         -0.0127    0.0251    0.3106 C.ar      1 <0>        -0.0221
      8 C8         -0.0186    1.3851    0.0456 C.ar      1 <0>        -0.1579
      9 C9          1.1748    2.1302    0.0262 C.ar      1 <0>         0.2054
     10 C10         2.3974    1.5058    0.2757 C.ar      1 <0>        -0.0089
     11 N1          3.5542    2.2196    0.2586 N.2       1 <0>        -0.1873
     12 N2          3.5277    3.4849    0.0090 N.2       1 <0>        -0.2162
     13 C11         4.6844    4.1987   -0.0080 C.ar      1 <0>         0.0659
     14 C12         4.6737    5.6328   -0.2952 C.ar      1 <0>        -0.0161
     15 C13         3.4800    6.3176   -0.5496 C.ar      1 <0>        -0.0989
     16 C14         3.5125    7.6563   -0.8071 C.ar      1 <0>        -0.1188
     17 C15         4.7178    8.3535   -0.8151 C.ar      1 <0>        -0.1234
     18 C16         5.8969    7.7187   -0.5667 C.ar      1 <0>        -0.1133
     19 C17         5.9006    6.3396   -0.2975 C.ar      1 <0>         0.0024
     20 C18         7.0987    5.6507   -0.0361 C.ar      1 <0>        -0.6146
     21 C19         7.0923    4.3164    0.2234 C.ar      1 <0>        -0.0577
     22 C20         5.9104    3.5776    0.2426 C.ar      1 <0>         0.1070
     23 O1          5.9509    2.2469    0.5060 O.3       1 <0>        -0.4714
     24 S1          8.6267    6.5279   -0.0458 S.o2      1 <0>         2.6973
     25 O2          8.3414    7.8455    0.4033 O.2       1 <0>        -1.0461
     26 O3          9.5786    5.6927    0.5989 O.2       1 <0>        -1.0531
     27 O4          1.1367    3.4592   -0.2362 O.3       1 <0>        -0.4446
     28 C21        -1.2993    2.0634   -0.2273 C.2       1 <0>         0.4910
     29 O5         -1.3177    3.2556   -0.4610 O.co2     1 <0>        -0.6083
     30 H1          2.4027   -3.7103    1.2962 H         1 <0>         0.1179
     31 H2          4.5182   -2.4603    1.2745 H         1 <0>         0.1195
     32 H3          4.5490   -0.0665    0.8103 H         1 <0>         0.1375
     33 H4          0.2858   -2.5894    0.8520 H         1 <0>         0.1276
     34 H5         -0.9436   -0.5225    0.3191 H         1 <0>         0.1445
     35 H6          2.5389    5.7878   -0.5465 H         1 <0>         0.1395
     36 H7          2.5911    8.1827   -1.0079 H         1 <0>         0.1212
     37 H8          4.7177    9.4136   -1.0218 H         1 <0>         0.1217
     38 H9          6.8241    8.2724   -0.5763 H         1 <0>         0.1740
     39 H10         8.0284    3.8151    0.4204 H         1 <0>         0.1442
     40 H11         6.0540    1.6933   -0.2801 H         1 <0>         0.3840
     41 H12         1.0350    4.0126    0.5503 H         1 <0>         0.3908
     42 O6          9.0669    6.6490   -1.4977 O.3       1 <0>        -1.0700
     43 O7         -2.4492    1.3610   -0.2174 O.co2     1 <0>        -0.7596
@<TRIPOS>BOND
     1    1    6 ar
     2    1    2 ar
     3    1   30 1
     4    2    3 ar
     5    2   31 1
     6    3    4 ar
     7    3   32 1
     8    4   10 ar
     9    4    5 ar
    10    5    6 ar
    11    5    7 ar
    12    6   33 1
    13    7    8 ar
    14    7   34 1
    15    8    9 ar
    16    8   28 1
    17    9   10 ar
    18    9   27 1
    19   10   11 1
    20   11   12 2
    21   12   13 1
    22   13   22 ar
    23   13   14 ar
    24   14   19 ar
    25   14   15 ar
    26   15   16 ar
    27   15   35 1
    28   16   17 ar
    29   16   36 1
    30   17   18 ar
    31   17   37 1
    32   18   19 ar
    33   18   38 1
    34   19   20 ar
    35   20   21 ar
    36   20   24 1
    37   21   22 ar
    38   21   39 1
    39   22   23 1
    40   23   40 1
    41   24   25 2
    42   24   26 2
    43   24   42 1
    44   27   41 1
    45   28   29 2
    46   28   43 1
@<TRIPOS>MOLECULE
ZINC04521479
   41    44     0     0     0
SMALL
USER_CHARGES
3-hydroxy-4-[(1-hydroxy-2-naphthyl)azo]naphthalene-1-sulfonic acid
@<TRIPOS>ATOM
      1 C1         -1.0017   -4.8858   -0.5953 C.ar      1 <0>        -0.1054
      2 C2         -2.2015   -4.2246   -0.8484 C.ar      1 <0>        -0.1243
      3 C3         -2.2660   -2.8645   -0.8404 C.ar      1 <0>        -0.0868
      4 C4         -1.1083   -2.1147   -0.5727 C.ar      1 <0>        -0.0812
      5 C5          0.1125   -2.7872   -0.3146 C.ar      1 <0>        -0.0250
      6 C6          0.1399   -4.1913   -0.3320 C.ar      1 <0>        -0.1124
      7 C7          1.2771   -2.0429   -0.0459 C.ar      1 <0>        -0.1193
      8 C8          1.2342   -0.6870   -0.0388 C.ar      1 <0>        -0.0956
      9 C9          0.0307   -0.0007   -0.2873 C.ar      1 <0>         0.0300
     10 C10        -1.1409   -0.7072   -0.5569 C.ar      1 <0>         0.1853
     11 O1         -2.2993   -0.0457   -0.8009 O.3       1 <0>        -0.4750
     12 N1          0.0116    1.3621   -0.2698 N.2       1 <0>        -0.2040
     13 N2          1.0934    2.0192   -0.0207 N.2       1 <0>        -0.2049
     14 C11         1.0743    3.3787   -0.0033 C.ar      1 <0>         0.0372
     15 C12         2.2900    4.1396    0.2833 C.ar      1 <0>        -0.0067
     16 C13         3.5091    3.5002    0.5359 C.ar      1 <0>        -0.1126
     17 C14         4.6209    4.2464    0.7939 C.ar      1 <0>        -0.1067
     18 C15         4.5615    5.6376    0.8038 C.ar      1 <0>        -0.1262
     19 C16         3.3926    6.2914    0.5568 C.ar      1 <0>        -0.1003
     20 C17         2.2273    5.5541    0.2871 C.ar      1 <0>        -0.0053
     21 C18         1.0023    6.1949    0.0276 C.ar      1 <0>        -0.5895
     22 C19        -0.1196    5.4732   -0.2322 C.ar      1 <0>        -0.0719
     23 C20        -0.1079    4.0792   -0.2528 C.ar      1 <0>         0.1456
     24 O2         -1.2521    3.3989   -0.5165 O.3       1 <0>        -0.4693
     25 S1          0.9213    7.9550    0.0402 S.o2      1 <0>         2.6903
     26 O3          2.1856    8.4230   -0.4090 O.2       1 <0>        -1.0410
     27 O4         -0.2950    8.3102   -0.6030 O.2       1 <0>        -1.0458
     28 H1         -0.9765   -5.9655   -0.6077 H         1 <0>         0.1245
     29 H2         -3.0928   -4.7987   -1.0541 H         1 <0>         0.1254
     30 H3         -3.2026   -2.3645   -1.0383 H         1 <0>         0.1336
     31 H4          1.0624   -4.7181   -0.1376 H         1 <0>         0.1301
     32 H5          2.2085   -2.5529    0.1510 H         1 <0>         0.1322
     33 H6          2.1348   -0.1267    0.1642 H         1 <0>         0.1402
     34 H7         -2.4454    0.1605   -1.7343 H         1 <0>         0.3973
     35 H8          3.5678    2.4218    0.5314 H         1 <0>         0.1290
     36 H9          5.5599    3.7518    0.9937 H         1 <0>         0.1225
     37 H10         5.4558    6.2066    1.0108 H         1 <0>         0.1267
     38 H11         3.3616    7.3709    0.5678 H         1 <0>         0.1783
     39 H12        -1.0455    5.9937   -0.4278 H         1 <0>         0.1508
     40 H13        -1.7741    3.1877    0.2696 H         1 <0>         0.3931
     41 O5          0.7879    8.3890    1.4930 O.3       1 <0>        -1.0628
@<TRIPOS>BOND
     1    1    6 ar
     2    1    2 ar
     3    1   28 1
     4    2    3 ar
     5    2   29 1
     6    3    4 ar
     7    3   30 1
     8    4   10 ar
     9    4    5 ar
    10    5    6 ar
    11    5    7 ar
    12    6   31 1
    13    7    8 ar
    14    7   32 1
    15    8    9 ar
    16    8   33 1
    17    9   10 ar
    18    9   12 1
    19   10   11 1
    20   11   34 1
    21   12   13 2
    22   13   14 1
    23   14   23 ar
    24   14   15 ar
    25   15   20 ar
    26   15   16 ar
    27   16   17 ar
    28   16   35 1
    29   17   18 ar
    30   17   36 1
    31   18   19 ar
    32   18   37 1
    33   19   20 ar
    34   19   38 1
    35   20   21 ar
    36   21   22 ar
    37   21   25 1
    38   22   23 ar
    39   22   39 1
    40   23   24 1
    41   24   40 1
    42   25   26 2
    43   25   27 2
    44   25   41 1
