@<TRIPOS>MOLECULE
ZINC04102234
   34    34     0     0     0
SMALL
USER_CHARGES
N-(2-oxotetrahydrofuran-3-yl)heptanamide
@<TRIPOS>ATOM
      1 C1          7.9276    7.1602   -5.3770 C.3       1 <0>        -0.1548
      2 C2          6.7082    6.2419   -5.4805 C.3       1 <0>        -0.1252
      3 C3          6.2703    5.8157   -4.0779 C.3       1 <0>        -0.1217
      4 C4          5.0509    4.8974   -4.1814 C.3       1 <0>        -0.1201
      5 C5          4.6129    4.4711   -2.7787 C.3       1 <0>        -0.1069
      6 C6          3.3935    3.5528   -2.8822 C.3       1 <0>        -0.1378
      7 C7          2.9621    3.1330   -1.5006 C.2       1 <0>         0.5114
      8 O1          3.5701    3.5293   -0.5289 O.2       1 <0>        -0.5199
      9 N1          1.9007    2.3172   -1.3449 N.am      1 <0>        -0.7177
     10 C8          1.4813    1.9091   -0.0018 C.3       1 <0>         0.0852
     11 H1          1.6877    2.6976    0.7219 H         1 <0>         0.1308
     12 C9         -0.0188    1.5384    0.0105 C.3       1 <0>        -0.1650
     13 C10         0.0021   -0.0041    0.0020 C.3       1 <0>         0.0529
     14 O2          1.4038   -0.3952   -0.0397 O.3       1 <0>        -0.3526
     15 C11         2.1694    0.6183    0.4036 C.2       1 <0>         0.4724
     16 O3          3.2093    0.5196    1.0109 O.2       1 <0>        -0.4220
     17 H2          7.6688    8.0435   -4.7931 H         1 <0>         0.0537
     18 H3          8.7432    6.6275   -4.8879 H         1 <0>         0.0538
     19 H4          8.2396    7.4638   -6.3763 H         1 <0>         0.0535
     20 H5          6.9671    5.3586   -6.0644 H         1 <0>         0.0604
     21 H6          5.8927    6.7746   -5.9696 H         1 <0>         0.0603
     22 H7          6.0114    6.6989   -3.4940 H         1 <0>         0.0625
     23 H8          7.0858    5.2830   -3.5888 H         1 <0>         0.0627
     24 H9          5.3097    4.0141   -4.7653 H         1 <0>         0.0626
     25 H10         4.2353    5.4300   -4.6705 H         1 <0>         0.0626
     26 H11         4.3541    5.3544   -2.1948 H         1 <0>         0.0710
     27 H12         5.4285    3.9384   -2.2896 H         1 <0>         0.0710
     28 H13         3.6524    2.6696   -3.4661 H         1 <0>         0.0963
     29 H14         2.5780    4.0855   -3.3713 H         1 <0>         0.0972
     30 H15         1.4144    2.0003   -2.1221 H         1 <0>         0.4081
     31 H16        -0.5176    1.9217   -0.8797 H         1 <0>         0.1052
     32 H17        -0.5005    1.9120    0.9141 H         1 <0>         0.1076
     33 H18        -0.4672   -0.3896    0.9071 H         1 <0>         0.0929
     34 H19        -0.5178   -0.3805   -0.8790 H         1 <0>         0.1097
@<TRIPOS>BOND
     1    1    2 1
     2    1   17 1
     3    1   18 1
     4    1   19 1
     5    2    3 1
     6    2   20 1
     7    2   21 1
     8    3    4 1
     9    3   22 1
    10    3   23 1
    11    4    5 1
    12    4   24 1
    13    4   25 1
    14    5    6 1
    15    5   26 1
    16    5   27 1
    17    6    7 1
    18    6   28 1
    19    6   29 1
    20    7    8 2
    21    7    9 am
    22    9   10 1
    23    9   30 1
    24   10   11 1
    25   10   15 1
    26   10   12 1
    27   12   13 1
    28   12   31 1
    29   12   32 1
    30   13   14 1
    31   13   33 1
    32   13   34 1
    33   14   15 1
    34   15   16 2
