@<TRIPOS>MOLECULE
ZINC01530846
   19    18     0     0     0
SMALL
USER_CHARGES
3-allylsulfanylsulfinylprop-1-ene
@<TRIPOS>ATOM
      1 C1         -2.8534   -0.8977    2.9353 C.2       1 <0>        -0.1548
      2 C2         -2.3887   -0.2416    1.9011 C.2       1 <0>        -0.1796
      3 C3         -2.4092    1.2653    1.8933 C.3       1 <0>         0.0382
      4 S1         -0.7074    1.8931    1.8804 S.3       1 <0>        -0.6646
      5 S2         -0.0172    1.4168    0.0098 S.o       1 <0>         1.2949
      6 O1          0.0021   -0.0041    0.0020 O.2       1 <0>        -0.7560
      7 C4          1.6846    2.0446   -0.0030 C.3       1 <0>        -0.3922
      8 C5          2.3166    1.7556   -1.3403 C.2       1 <0>        -0.1576
      9 C6          2.6608    2.7432   -2.1292 C.2       1 <0>        -0.1560
     10 H1         -2.8387   -1.9775    2.9409 H         1 <0>         0.1047
     11 H2         -3.2512   -0.3587    3.7825 H         1 <0>         0.1017
     12 H3         -1.9909   -0.7805    1.0539 H         1 <0>         0.1229
     13 H4         -2.9229    1.6262    2.7844 H         1 <0>         0.1169
     14 H5         -2.9330    1.6170    1.0044 H         1 <0>         0.0990
     15 H6          1.6762    3.1208    0.1699 H         1 <0>         0.1345
     16 H7          2.2586    1.5548    0.7835 H         1 <0>         0.1126
     17 H8          2.4856    0.7344   -1.6482 H         1 <0>         0.1185
     18 H9          2.4918    3.7644   -1.8212 H         1 <0>         0.1069
     19 H10         3.1137    2.5361   -3.0875 H         1 <0>         0.1101
@<TRIPOS>BOND
     1    1    2 2
     2    1   10 1
     3    1   11 1
     4    2    3 1
     5    2   12 1
     6    3    4 1
     7    3   13 1
     8    3   14 1
     9    4    5 1
    10    5    6 2
    11    5    7 1
    12    7    8 1
    13    7   15 1
    14    7   16 1
    15    8    9 2
    16    8   17 1
    17    9   18 1
    18    9   19 1
@<TRIPOS>MOLECULE
ZINC04097409
   19    18     0     0     0
SMALL
USER_CHARGES
3-allylsulfanylsulfinylprop-1-ene
@<TRIPOS>ATOM
      1 C1         -0.7022   -1.0693    3.4481 C.2       1 <0>        -0.1479
      2 C2         -0.2005   -0.1106    2.7097 C.2       1 <0>        -0.1759
      3 C3          0.7558   -0.4415    1.5930 C.3       1 <0>         0.0348
      4 S1          0.0021   -0.0041    0.0020 S.3       1 <0>        -0.6612
      5 S2         -0.0257    2.0457    0.0133 S.o       1 <0>         1.2915
      6 O1          1.3482    2.4082    0.0021 O.2       1 <0>        -0.7580
      7 C4         -0.7794    2.4831   -1.5777 C.3       1 <0>        -0.3928
      8 C5         -0.8608    3.9830   -1.6995 C.2       1 <0>        -0.1592
      9 C6         -0.1676    4.6038   -2.6215 C.2       1 <0>        -0.1567
     10 H1         -1.3875   -0.8322    4.2485 H         1 <0>         0.1087
     11 H2         -0.4305   -2.0969    3.2566 H         1 <0>         0.1024
     12 H3         -0.4722    0.9170    2.9013 H         1 <0>         0.1169
     13 H4          0.9776   -1.5086    1.6088 H         1 <0>         0.1163
     14 H5          1.6785    0.1234    1.7254 H         1 <0>         0.0950
     15 H6         -0.1708    2.0851   -2.3897 H         1 <0>         0.1061
     16 H7         -1.7820    2.0591   -1.6336 H         1 <0>         0.1408
     17 H8         -1.4906    4.5460   -1.0267 H         1 <0>         0.1286
     18 H9          0.4622    4.0408   -3.2944 H         1 <0>         0.0990
     19 H10        -0.2259    5.6787   -2.7089 H         1 <0>         0.1116
@<TRIPOS>BOND
     1    1    2 2
     2    1   10 1
     3    1   11 1
     4    2    3 1
     5    2   12 1
     6    3    4 1
     7    3   13 1
     8    3   14 1
     9    4    5 1
    10    5    6 2
    11    5    7 1
    12    7    8 1
    13    7   15 1
    14    7   16 1
    15    8    9 2
    16    8   17 1
    17    9   18 1
    18    9   19 1
