@<TRIPOS>MOLECULE
ZINC26820309
   39    41     0     0     0
SMALL
USER_CHARGES
3-(5-isoquinolyl)-1-phenethyl-urea
@<TRIPOS>ATOM
      1 C1         -0.1061    4.2673    0.0286 C.ar      1 <0>        -0.1200
      2 C2          1.1029    3.5974    0.0056 C.ar      1 <0>        -0.1180
      3 C3          1.1273    2.2153   -0.0021 C.ar      1 <0>        -0.1136
      4 C4         -0.0573    1.5030    0.0127 C.ar      1 <0>        -0.0853
      5 C5         -1.2664    2.1729    0.0299 C.ar      1 <0>        -0.1137
      6 C6         -1.2908    3.5550    0.0429 C.ar      1 <0>        -0.1181
      7 C7         -0.0307   -0.0037    0.0038 C.3       1 <0>        -0.0906
      8 C8          0.0011   -0.5217    1.4431 C.3       1 <0>         0.1455
      9 N1          0.0270   -1.9865    1.4345 N.am      1 <0>        -0.7514
     10 C9          0.0574   -2.6668    2.5975 C.2       1 <0>         0.7068
     11 O1          0.0634   -2.0648    3.6539 O.2       1 <0>        -0.5744
     12 N2          0.0812   -4.0143    2.5896 N.am      1 <0>        -0.6943
     13 C10         0.2076   -4.7175    3.7895 C.ar      1 <0>         0.1699
     14 C11        -0.3728   -4.2364    4.9445 C.ar      1 <0>        -0.1070
     15 C12        -0.2521   -4.9304    6.1448 C.ar      1 <0>        -0.0950
     16 C13         0.4406   -6.1013    6.2160 C.ar      1 <0>        -0.1074
     17 C14         1.0462   -6.6249    5.0633 C.ar      1 <0>        -0.0970
     18 C15         0.9241   -5.9288    3.8330 C.ar      1 <0>        -0.0383
     19 C16         1.5351   -6.4788    2.6933 C.ar      1 <0>        -0.1564
     20 C17         2.2109   -7.6552    2.8172 C.ar      1 <0>         0.0765
     21 N3          2.3057   -8.2888    3.9781 N.ar      1 <0>        -0.4884
     22 C18         1.7705   -7.8283    5.0844 C.ar      1 <0>         0.1497
     23 H1         -0.1252    5.3471    0.0350 H         1 <0>         0.1226
     24 H2          2.0284    4.1539   -0.0059 H         1 <0>         0.1232
     25 H3          2.0718    1.6920   -0.0201 H         1 <0>         0.1220
     26 H4         -2.1920    1.6164    0.0369 H         1 <0>         0.1221
     27 H5         -2.2353    4.0783    0.0605 H         1 <0>         0.1232
     28 H6         -0.9303   -0.3833   -0.5027 H         1 <0>         0.0810
     29 H7          0.8655   -0.3515   -0.5310 H         1 <0>         0.0809
     30 H8          0.9007   -0.1420    1.9496 H         1 <0>         0.0687
     31 H9         -0.8951   -0.1740    1.9779 H         1 <0>         0.0690
     32 H10         0.0216   -2.5311    0.4788 H         1 <0>         0.4175
     33 H11         0.0011   -4.5602    1.6380 H         1 <0>         0.4280
     34 H12        -0.9273   -3.3100    4.9171 H         1 <0>         0.1455
     35 H13        -0.7156   -4.5333    7.0358 H         1 <0>         0.1311
     36 H14         0.5238   -6.6250    7.1569 H         1 <0>         0.1350
     37 H15         1.4700   -5.9790    1.7382 H         1 <0>         0.1317
     38 H16         2.6830   -8.0836    1.9454 H         1 <0>         0.1531
     39 H17         1.8753   -8.3805    6.0066 H         1 <0>         0.1660
@<TRIPOS>BOND
     1    1    6 ar
     2    1    2 ar
     3    1   23 1
     4    2    3 ar
     5    2   24 1
     6    3    4 ar
     7    3   25 1
     8    4    5 ar
     9    4    7 1
    10    5    6 ar
    11    5   26 1
    12    6   27 1
    13    7    8 1
    14    7   28 1
    15    7   29 1
    16    8    9 1
    17    8   30 1
    18    8   31 1
    19    9   10 am
    20    9   32 1
    21   10   11 2
    22   10   12 am
    23   12   13 1
    24   12   33 1
    25   13   18 ar
    26   13   14 ar
    27   14   15 ar
    28   14   34 1
    29   15   16 ar
    30   15   35 1
    31   16   17 ar
    32   16   36 1
    33   17   22 ar
    34   17   18 ar
    35   18   19 ar
    36   19   20 ar
    37   19   37 1
    38   20   21 ar
    39   20   38 1
    40   21   22 ar
    41   22   39 1
@<TRIPOS>MOLECULE
ZINC06746067
   39    41     0     0     0
SMALL
USER_CHARGES
1-(5-isoquinolyl)-3-[[4-(trifluoromethyl)phenyl]methyl]urea
@<TRIPOS>ATOM
      1 C1          2.0944   -7.9971   -2.5399 C.ar      1 <0>        -0.0926
      2 C2          1.6148   -8.5465   -3.6906 C.ar      1 <0>        -0.1083
      3 C3          0.9810   -7.7318   -4.6414 C.ar      1 <0>        -0.0944
      4 C4          0.4701   -8.2498   -5.8431 C.ar      1 <0>         0.1505
      5 N1         -0.1147   -7.4500   -6.7037 N.ar      1 <0>        -0.4872
      6 C5         -0.2524   -6.1480   -6.4944 C.ar      1 <0>         0.0786
      7 C6          0.2089   -5.5493   -5.3608 C.ar      1 <0>        -0.1592
      8 C7          0.8472   -6.3416   -4.3915 C.ar      1 <0>        -0.0399
      9 C8          1.3521   -5.8004   -3.1938 C.ar      1 <0>         0.1659
     10 C9          1.9731   -6.6339   -2.2872 C.ar      1 <0>        -0.1146
     11 N2          1.2307   -4.4345   -2.9294 N.am      1 <0>        -0.6771
     12 C10         1.2409   -3.9909   -1.6568 C.2       1 <0>         0.7057
     13 O1          1.2526   -4.7852   -0.7362 O.2       1 <0>        -0.5640
     14 N3          1.2380   -2.6670   -1.4045 N.am      1 <0>        -0.7365
     15 C11         1.2490   -2.1848   -0.0212 C.3       1 <0>         0.1758
     16 C12         1.2432   -0.6778   -0.0144 C.ar      1 <0>        -0.0812
     17 C13         0.0434    0.0086   -0.0001 C.ar      1 <0>        -0.0990
     18 C14         0.0380    1.3909    0.0070 C.ar      1 <0>        -0.0710
     19 C15         1.2324    2.0868   -0.0001 C.ar      1 <0>        -0.1723
     20 C16         2.4322    1.4003   -0.0158 C.ar      1 <0>        -0.0710
     21 C17         2.4376    0.0180   -0.0221 C.ar      1 <0>        -0.0987
     22 C18         1.2266    3.5938    0.0072 C.3       1 <0>         0.5069
     23 F1          1.2363    4.0537    1.3284 F         1 <0>        -0.1742
     24 F2          2.3612    4.0678   -0.6600 F         1 <0>        -0.1755
     25 F3          0.0768    4.0588   -0.6400 F         1 <0>        -0.1755
     26 H1          2.5814   -8.6300   -1.8128 H         1 <0>         0.1322
     27 H2          1.7217   -9.6061   -3.8705 H         1 <0>         0.1357
     28 H3          0.5582   -9.3045   -6.0582 H         1 <0>         0.1670
     29 H4         -0.7437   -5.5450   -7.2437 H         1 <0>         0.1539
     30 H5          0.0860   -4.4870   -5.2100 H         1 <0>         0.1304
     31 H6          2.3666   -6.2245   -1.3685 H         1 <0>         0.1529
     32 H7          1.1391   -3.8050   -3.6617 H         1 <0>         0.4079
     33 H8          1.2287   -2.0334   -2.1390 H         1 <0>         0.4008
     34 H9          2.1452   -2.5469    0.4826 H         1 <0>         0.0850
     35 H10         0.3653   -2.5539    0.4993 H         1 <0>         0.0847
     36 H11        -0.8898   -0.5351    0.0058 H         1 <0>         0.1389
     37 H12        -0.8994    1.9272    0.0136 H         1 <0>         0.1402
     38 H13         3.3654    1.9440   -0.0214 H         1 <0>         0.1403
     39 H14         3.3750   -0.5183   -0.0325 H         1 <0>         0.1391
@<TRIPOS>BOND
     1    1   10 ar
     2    1    2 ar
     3    1   26 1
     4    2    3 ar
     5    2   27 1
     6    3    8 ar
     7    3    4 ar
     8    4    5 ar
     9    4   28 1
    10    5    6 ar
    11    6    7 ar
    12    6   29 1
    13    7    8 ar
    14    7   30 1
    15    8    9 ar
    16    9   10 ar
    17    9   11 1
    18   10   31 1
    19   11   12 am
    20   11   32 1
    21   12   13 2
    22   12   14 am
    23   14   15 1
    24   14   33 1
    25   15   16 1
    26   15   34 1
    27   15   35 1
    28   16   21 ar
    29   16   17 ar
    30   17   18 ar
    31   17   36 1
    32   18   19 ar
    33   18   37 1
    34   19   20 ar
    35   19   22 1
    36   20   21 ar
    37   20   38 1
    38   21   39 1
    39   22   23 1
    40   22   24 1
    41   22   25 1
@<TRIPOS>MOLECULE
ZINC26837368
   94    99     0     0     0
SMALL
USER_CHARGES

@<TRIPOS>ATOM
      1 C1         -0.0377    1.5378   -0.0219 C.3       1 <0>        -0.1523
      2 C2         -0.0087    0.0045   -0.0151 C.3       1 <0>        -0.1167
      3 H1          0.5096   -0.3274   -0.9165 H         1 <0>         0.1081
      4 C3         -1.4652   -0.4683   -0.0558 C.3       1 <0>         0.1232
      5 H2         -2.0228    0.0883    0.7077 H         1 <0>         0.1071
      6 C4         -1.6486   -1.9457    0.1947 C.3       1 <0>         0.0672
      7 C5         -0.5018   -2.7416    0.8222 C.3       1 <0>        -0.1135
      8 H3         -0.7902   -3.4576    1.6046 H         1 <0>         0.1142
      9 C6         -0.9792   -3.0469   -0.6006 C.3       1 <0>        -0.0683
     10 C7         -0.1166   -2.6765   -1.8019 C.3       1 <0>        -0.1293
     11 C8         -1.7869   -4.3461   -0.7885 C.3       1 <0>        -0.1148
     12 C9          0.8323   -2.0650    1.0363 C.3       1 <0>        -0.0316
     13 H4          1.4283   -2.2026    0.1253 H         1 <0>         0.1074
     14 C10         0.6821   -0.5509    1.2207 C.3       1 <0>         0.1916
     15 C11         2.0395    0.0002    1.5352 C.3       1 <0>        -0.0939
     16 H5          2.2616   -0.3785    2.5679 H         1 <0>         0.1144
     17 C12         2.2258    1.4792    1.6412 C.2       1 <0>        -0.0547
     18 C13         3.4342    1.8082    1.1730 C.2       1 <0>        -0.2204
     19 C14         4.1802    0.6310    0.7130 C.2       1 <0>         0.3750
     20 O1          5.3531    0.5833    0.3987 O.2       1 <0>        -0.4247
     21 C15         3.1852   -0.5127    0.6791 C.3       1 <0>         0.1105
     22 C16         3.7584   -1.8134    1.1520 C.3       1 <0>        -0.0999
     23 C17         2.9454   -2.5424    2.1581 C.2       1 <0>        -0.1455
     24 C18         1.6575   -2.6584    2.1276 C.2       1 <0>        -0.0882
     25 C19         3.6730   -3.2001    3.2981 C.3       1 <0>         0.1042
     26 O2          2.7301   -3.8468    4.1552 O.3       1 <0>        -0.3478
     27 C20         3.2207   -4.4859    5.2288 C.2       1 <0>         0.4629
     28 O3          4.4114   -4.4960    5.4339 O.2       1 <0>        -0.4931
     29 C21         2.2865   -5.1909    6.1781 C.3       1 <0>        -0.0726
     30 C22         3.0833   -5.8234    7.2899 C.ar      1 <0>        -0.0501
     31 C23         3.5555   -7.1154    7.1514 C.ar      1 <0>        -0.1220
     32 C24         4.2869   -7.7001    8.1684 C.ar      1 <0>        -0.1042
     33 C25         4.5487   -6.9908    9.3296 C.ar      1 <0>         0.0808
     34 C26         4.0738   -5.6902    9.4689 C.ar      1 <0>         0.1053
     35 C27         3.3454   -5.1084    8.4437 C.ar      1 <0>        -0.1772
     36 O4          4.3281   -4.9900   10.6066 O.3       1 <0>        -0.3065
     37 C28         3.8094   -3.6605   10.6798 C.3       1 <0>         0.0239
     38 O5          5.2677   -7.5646   10.3312 O.3       1 <0>        -0.4865
     39 O6          2.7553   -0.6677   -0.6738 O.3       1 <0>        -0.5343
     40 C29         3.9616    3.2206    1.1232 C.3       1 <0>        -0.0993
     41 O7         -0.1659   -0.3370    2.3539 O.3       1 <0>        -0.5224
     42 O8         -2.9487   -2.2807    0.7106 O.3       1 <0>        -0.3253
     43 C30        -3.2567   -1.8192    1.9329 C.2       1 <0>         0.4389
     44 O9         -2.4932   -1.0821    2.5105 O.2       1 <0>        -0.4685
     45 C31        -4.5548   -2.2206    2.5848 C.3       1 <0>        -0.1478
     46 O10        -2.0228   -0.1290   -1.3301 O.3       1 <0>        -0.3444
     47 C32        -2.6150    1.0709   -1.4362 C.2       1 <0>         0.4583
     48 O11        -2.6593    1.8093   -0.4808 O.2       1 <0>        -0.4888
     49 C33        -3.2245    1.4971   -2.7468 C.3       1 <0>        -0.0741
     50 C34        -3.8197    2.8738   -2.5999 C.ar      1 <0>        -0.0793
     51 C35        -5.1349    3.0191   -2.1998 C.ar      1 <0>        -0.1020
     52 C36        -5.6808    4.2819   -2.0650 C.ar      1 <0>        -0.1183
     53 C37        -4.9115    5.3994   -2.3300 C.ar      1 <0>        -0.1145
     54 C38        -3.5960    5.2541   -2.7293 C.ar      1 <0>        -0.1185
     55 C39        -3.0488    3.9914   -2.8599 C.ar      1 <0>        -0.1021
     56 H6          0.9829    1.9204   -0.0315 H         1 <0>         0.0667
     57 H7         -0.5651    1.8873   -0.9094 H         1 <0>         0.0591
     58 H8         -0.5514    1.8954    0.8705 H         1 <0>         0.0604
     59 H9          0.7050   -2.0385   -1.4763 H         1 <0>         0.0743
     60 H10         0.2847   -3.5832   -2.2545 H         1 <0>         0.0690
     61 H11        -0.7230   -2.1428   -2.5338 H         1 <0>         0.0737
     62 H12        -2.7168   -4.1234   -1.3117 H         1 <0>         0.0681
     63 H13        -1.2020   -5.0561   -1.3733 H         1 <0>         0.0648
     64 H14        -2.0130   -4.7777    0.1865 H         1 <0>         0.0591
     65 H15         1.5197    2.1860    2.0561 H         1 <0>         0.1530
     66 H16         3.8914   -2.4594    0.2868 H         1 <0>         0.0995
     67 H17         4.7370   -1.6128    1.5872 H         1 <0>         0.0853
     68 H18         1.1668   -3.2011    2.9124 H         1 <0>         0.1277
     69 H19         4.3726   -3.9379    2.9053 H         1 <0>         0.0806
     70 H20         4.2201   -2.4456    3.8634 H         1 <0>         0.0767
     71 H21         1.5843   -4.4710    6.5985 H         1 <0>         0.1176
     72 H22         1.7367   -5.9633    5.6403 H         1 <0>         0.1206
     73 H23         3.3522   -7.6693    6.2468 H         1 <0>         0.1296
     74 H24         4.6540   -8.7097    8.0580 H         1 <0>         0.1393
     75 H25         2.9789   -4.0978    8.5477 H         1 <0>         0.1322
     76 H26         4.2259   -3.0629    9.8689 H         1 <0>         0.0555
     77 H27         2.7235   -3.6886   10.5897 H         1 <0>         0.0567
     78 H28         4.0832   -3.2158   11.6365 H         1 <0>         0.1032
     79 H29         6.2214   -7.4203   10.2633 H         1 <0>         0.3888
     80 H30         3.4434   -0.9928   -1.2703 H         1 <0>         0.3855
     81 H31         4.4846    3.4461    2.0525 H         1 <0>         0.0719
     82 H32         4.6508    3.3217    0.2847 H         1 <0>         0.0694
     83 H33         3.1307    3.9145    0.9962 H         1 <0>         0.0708
     84 H34        -0.3674    0.5933    2.5243 H         1 <0>         0.3685
     85 H35        -4.4035   -3.1303    3.1658 H         1 <0>         0.1022
     86 H36        -4.8931   -1.4208    3.2435 H         1 <0>         0.1008
     87 H37        -5.3066   -2.4010    1.8165 H         1 <0>         0.0896
     88 H38        -2.4537    1.5149   -3.5173 H         1 <0>         0.1147
     89 H39        -4.0057    0.7919   -3.0306 H         1 <0>         0.1149
     90 H40        -5.7359    2.1460   -1.9928 H         1 <0>         0.1204
     91 H41        -6.7085    4.3954   -1.7531 H         1 <0>         0.1236
     92 H42        -5.3382    6.3860   -2.2254 H         1 <0>         0.1229
     93 H43        -2.9951    6.1272   -2.9366 H         1 <0>         0.1234
     94 H44        -2.0200    3.8780   -3.1683 H         1 <0>         0.1203
@<TRIPOS>BOND
     1    1    2 1
     2    1   56 1
     3    1   57 1
     4    1   58 1
     5    2    3 1
     6    2   14 1
     7    2    4 1
     8    4    5 1
     9    4    6 1
    10    4   46 1
    11    6    9 1
    12    6    7 1
    13    6   42 1
    14    7    8 1
    15    7    9 1
    16    7   12 1
    17    9   10 1
    18    9   11 1
    19   10   59 1
    20   10   60 1
    21   10   61 1
    22   11   62 1
    23   11   63 1
    24   11   64 1
    25   12   13 1
    26   12   24 1
    27   12   14 1
    28   14   15 1
    29   14   41 1
    30   15   16 1
    31   15   21 1
    32   15   17 1
    33   17   18 2
    34   17   65 1
    35   18   19 1
    36   18   40 1
    37   19   20 2
    38   19   21 1
    39   21   22 1
    40   21   39 1
    41   22   23 1
    42   22   66 1
    43   22   67 1
    44   23   24 2
    45   23   25 1
    46   24   68 1
    47   25   26 1
    48   25   69 1
    49   25   70 1
    50   26   27 1
    51   27   28 2
    52   27   29 1
    53   29   30 1
    54   29   71 1
    55   29   72 1
    56   30   35 ar
    57   30   31 ar
    58   31   32 ar
    59   31   73 1
    60   32   33 ar
    61   32   74 1
    62   33   34 ar
    63   33   38 1
    64   34   35 ar
    65   34   36 1
    66   35   75 1
    67   36   37 1
    68   37   76 1
    69   37   77 1
    70   37   78 1
    71   38   79 1
    72   39   80 1
    73   40   81 1
    74   40   82 1
    75   40   83 1
    76   41   84 1
    77   42   43 1
    78   43   44 2
    79   43   45 1
    80   45   85 1
    81   45   86 1
    82   45   87 1
    83   46   47 1
    84   47   48 2
    85   47   49 1
    86   49   50 1
    87   49   88 1
    88   49   89 1
    89   50   55 ar
    90   50   51 ar
    91   51   52 ar
    92   51   90 1
    93   52   53 ar
    94   52   91 1
    95   53   54 ar
    96   53   92 1
    97   54   55 ar
    98   54   93 1
    99   55   94 1
@<TRIPOS>MOLECULE
ZINC21219614
   37    39     0     0     0
SMALL
USER_CHARGES
3-(4-chlorophenyl)-N-(5-isoquinolyl)propanamide
@<TRIPOS>ATOM
      1 C1         -2.4508    3.2148   -4.7101 C.ar      1 <0>        -0.0977
      2 C2         -2.5002    2.4273   -5.8207 C.ar      1 <0>        -0.1033
      3 C3         -1.8029    1.2095   -5.8441 C.ar      1 <0>        -0.0985
      4 C4         -1.8217    0.3626   -6.9646 C.ar      1 <0>         0.1504
      5 N1         -1.1402   -0.7589   -6.9481 N.ar      1 <0>        -0.4877
      6 C5         -0.4321   -1.1529   -5.8987 C.ar      1 <0>         0.0789
      7 C6         -0.3551   -0.4060   -4.7619 C.ar      1 <0>        -0.1583
      8 C7         -1.0485    0.8152   -4.7090 C.ar      1 <0>        -0.0367
      9 C8         -1.0200    1.6456   -3.5723 C.ar      1 <0>         0.1484
     10 C9         -1.7185    2.8348   -3.5893 C.ar      1 <0>        -0.1060
     11 N2         -0.2884    1.2723   -2.4431 N.am      1 <0>        -0.6832
     12 C10        -0.7387    1.5900   -1.2131 C.2       1 <0>         0.5153
     13 O1         -1.7354    2.2699   -1.0891 O.2       1 <0>        -0.5186
     14 C11        -0.0038    1.1004    0.0081 C.3       1 <0>        -0.1343
     15 C12        -0.7177    1.5979    1.2665 C.3       1 <0>        -0.0680
     16 C13         0.0173    1.1083    2.4877 C.ar      1 <0>        -0.0804
     17 C14        -0.3235   -0.1032    3.0598 C.ar      1 <0>        -0.1030
     18 C15         0.3540   -0.5553    4.1764 C.ar      1 <0>        -0.1077
     19 C16         1.3658    0.2100    4.7283 C.ar      1 <0>        -0.0374
     20 C17         1.7026    1.4250    4.1587 C.ar      1 <0>        -0.1078
     21 C18         1.0282    1.8735    3.0387 C.ar      1 <0>        -0.1030
     22 Cl1         2.2128   -0.3542    6.1347 Cl        1 <0>        -0.0689
     23 H1         -2.9898    4.1506   -4.6992 H         1 <0>         0.1318
     24 H2         -3.0746    2.7390   -6.6805 H         1 <0>         0.1357
     25 H3         -2.3847    0.6406   -7.8434 H         1 <0>         0.1665
     26 H4          0.0983   -2.0925   -5.9462 H         1 <0>         0.1541
     27 H5          0.2275   -0.7454   -3.9183 H         1 <0>         0.1330
     28 H6         -1.6973    3.4786   -2.7224 H         1 <0>         0.1440
     29 H7          0.6554    0.7190   -2.5574 H         1 <0>         0.4354
     30 H8          0.0155    0.0006    0.0080 H         1 <0>         0.1013
     31 H9          1.0266    1.4851   -0.0052 H         1 <0>         0.1016
     32 H10        -0.7370    2.6977    1.2665 H         1 <0>         0.0855
     33 H11        -1.7481    1.2131    1.2799 H         1 <0>         0.0852
     34 H12        -1.1164   -0.6984    2.6315 H         1 <0>         0.1324
     35 H13         0.0906   -1.5038    4.6207 H         1 <0>         0.1343
     36 H14         2.4926    2.0227    4.5888 H         1 <0>         0.1343
     37 H15         1.2913    2.8217    2.5937 H         1 <0>         0.1326
@<TRIPOS>BOND
     1    1   10 ar
     2    1    2 ar
     3    1   23 1
     4    2    3 ar
     5    2   24 1
     6    3    8 ar
     7    3    4 ar
     8    4    5 ar
     9    4   25 1
    10    5    6 ar
    11    6    7 ar
    12    6   26 1
    13    7    8 ar
    14    7   27 1
    15    8    9 ar
    16    9   10 ar
    17    9   11 1
    18   10   28 1
    19   11   12 am
    20   11   29 1
    21   12   13 2
    22   12   14 1
    23   14   15 1
    24   14   30 1
    25   14   31 1
    26   15   16 1
    27   15   32 1
    28   15   33 1
    29   16   21 ar
    30   16   17 ar
    31   17   18 ar
    32   17   34 1
    33   18   19 ar
    34   18   35 1
    35   19   20 ar
    36   19   22 1
    37   20   21 ar
    38   20   36 1
    39   21   37 1
@<TRIPOS>MOLECULE
ZINC07655239
   35    37     0     0     0
SMALL
USER_CHARGES
N-(5-isoquinolyl)-3-phenyl-prop-2-enamide
@<TRIPOS>ATOM
      1 C1         -0.0572    4.2380   -0.0265 C.ar      1 <0>        -0.1035
      2 C2          1.1528    3.5662   -0.0327 C.ar      1 <0>        -0.1228
      3 C3          1.1802    2.1876   -0.0291 C.ar      1 <0>        -0.0905
      4 C4         -0.0189    1.4682   -0.0185 C.ar      1 <0>        -0.0855
      5 C5         -1.2375    2.1542   -0.0172 C.ar      1 <0>        -0.0984
      6 C6         -1.2483    3.5331   -0.0161 C.ar      1 <0>        -0.1231
      7 C7          0.0014   -0.0036   -0.0151 C.2       1 <0>         0.0009
      8 C8         -1.1569   -0.6939   -0.0049 C.2       1 <0>        -0.2253
      9 C9         -1.1367   -2.1575   -0.0015 C.2       1 <0>         0.5501
     10 O1         -0.0743   -2.7514   -0.0077 O.2       1 <0>        -0.5195
     11 N1         -2.2944   -2.8474    0.0087 N.am      1 <0>        -0.6616
     12 C10        -2.2789   -4.2377   -0.1042 C.ar      1 <0>         0.1488
     13 C11        -1.2213   -4.8762   -0.7186 C.ar      1 <0>        -0.1147
     14 C12        -1.1951   -6.2629   -0.8314 C.ar      1 <0>        -0.0939
     15 C13        -2.2136   -7.0293   -0.3501 C.ar      1 <0>        -0.1066
     16 C14        -3.3105   -6.4183    0.2770 C.ar      1 <0>        -0.0954
     17 C15        -3.3452   -5.0055    0.4023 C.ar      1 <0>        -0.0396
     18 C16        -4.4551   -4.4203    1.0348 C.ar      1 <0>        -0.1594
     19 C17        -5.4464   -5.2317    1.4988 C.ar      1 <0>         0.0792
     20 N2         -5.3897   -6.5500    1.3690 N.ar      1 <0>        -0.4870
     21 C18        -4.3848   -7.1641    0.7899 C.ar      1 <0>         0.1503
     22 H1         -0.0722    5.3179   -0.0294 H         1 <0>         0.1263
     23 H2          2.0781    4.1233   -0.0408 H         1 <0>         0.1283
     24 H3          2.1252    1.6648   -0.0339 H         1 <0>         0.1297
     25 H4         -2.1678    1.6056   -0.0132 H         1 <0>         0.1275
     26 H5         -2.1885    4.0644   -0.0110 H         1 <0>         0.1274
     27 H6          0.9440   -0.5306   -0.0206 H         1 <0>         0.1389
     28 H7         -2.0995   -0.1668    0.0006 H         1 <0>         0.1337
     29 H8         -3.1385   -2.3772    0.0945 H         1 <0>         0.4126
     30 H9         -0.4021   -4.2932   -1.1129 H         1 <0>         0.1511
     31 H10        -0.3543   -6.7400   -1.3131 H         1 <0>         0.1325
     32 H11        -2.1768   -8.1040   -0.4506 H         1 <0>         0.1360
     33 H12        -4.5209   -3.3486    1.1511 H         1 <0>         0.1319
     34 H13        -6.3024   -4.7886    1.9860 H         1 <0>         0.1545
     35 H14        -4.3839   -8.2409    0.7075 H         1 <0>         0.1670
@<TRIPOS>BOND
     1    1    6 ar
     2    1    2 ar
     3    1   22 1
     4    2    3 ar
     5    2   23 1
     6    3    4 ar
     7    3   24 1
     8    4    5 ar
     9    4    7 1
    10    5    6 ar
    11    5   25 1
    12    6   26 1
    13    7    8 2
    14    7   27 1
    15    8    9 1
    16    8   28 1
    17    9   10 2
    18    9   11 am
    19   11   12 1
    20   11   29 1
    21   12   17 ar
    22   12   13 ar
    23   13   14 ar
    24   13   30 1
    25   14   15 ar
    26   14   31 1
    27   15   16 ar
    28   15   32 1
    29   16   21 ar
    30   16   17 ar
    31   17   18 ar
    32   18   19 ar
    33   18   33 1
    34   19   20 ar
    35   19   34 1
    36   20   21 ar
    37   21   35 1
@<TRIPOS>MOLECULE
ZINC34189055
   44    43     0     0     0
SMALL
USER_CHARGES

@<TRIPOS>ATOM
      1 C1         -0.3978    1.4750    0.2355 C.3       1 <0>        -0.1295
      2 C2         -0.3207   -0.0295    0.1958 C.2       1 <0>        -0.1422
      3 C3          0.3479   -0.6878    1.1425 C.2       1 <0>        -0.1427
      4 C4          0.4228   -2.1501    1.1039 C.2       1 <0>        -0.1158
      5 C5          1.0995   -2.8163    2.0620 C.2       1 <0>        -0.1282
      6 C6          1.1744   -4.2786    2.0234 C.2       1 <0>        -0.1325
      7 C7          1.9204   -4.9315    2.9145 C.2       1 <0>        -0.1429
      8 C8          2.5750   -4.1795    4.0446 C.3       1 <0>        -0.0978
      9 C9          2.1878   -4.8235    5.3774 C.3       1 <0>        -0.0955
     10 C10         2.8423   -4.0716    6.5075 C.2       1 <0>        -0.0559
     11 C11         2.1016   -3.5827    7.4980 C.2       1 <0>        -0.2231
     12 C12         2.7405   -2.8487    8.6011 C.2       1 <0>         0.5449
     13 O1          3.9460   -2.6889    8.6074 O.2       1 <0>        -0.5481
     14 N1          1.9898   -2.3533    9.6049 N.am      1 <0>        -0.7207
     15 C13         2.6261   -1.6224   10.7035 C.3       1 <0>         0.0935
     16 C14         1.5581   -1.1712   11.7019 C.3       1 <0>         0.1154
     17 C15         0.8303   -2.3965   12.2586 C.3       1 <0>        -0.1415
     18 C16         2.2226   -0.4078   12.8493 C.3       1 <0>        -0.1778
     19 O2          0.6198   -0.3185   11.0429 O.3       1 <0>        -0.5572
     20 H1          0.6081    1.8918    0.1856 H         1 <0>         0.0677
     21 H2         -0.9813    1.8315   -0.6134 H         1 <0>         0.0631
     22 H3         -0.8760    1.7900    1.1629 H         1 <0>         0.0676
     23 H4         -0.8072   -0.5743   -0.5998 H         1 <0>         0.1108
     24 H5          0.8344   -0.1429    1.9380 H         1 <0>         0.1125
     25 H6         -0.0637   -2.6949    0.3083 H         1 <0>         0.1135
     26 H7          1.5860   -2.2715    2.8576 H         1 <0>         0.1193
     27 H8          0.6252   -4.8278    1.2730 H         1 <0>         0.1150
     28 H9          2.0558   -5.9993    2.8265 H         1 <0>         0.1161
     29 H10         3.6578   -4.2145    3.9252 H         1 <0>         0.0777
     30 H11         2.2413   -3.1419    4.0319 H         1 <0>         0.0773
     31 H12         1.1049   -4.7886    5.4968 H         1 <0>         0.0752
     32 H13         2.5214   -5.8611    5.3900 H         1 <0>         0.0859
     33 H14         3.9129   -3.9297    6.5131 H         1 <0>         0.1276
     34 H15         1.0309   -3.7246    7.4924 H         1 <0>         0.1266
     35 H16         1.0282   -2.4808    9.5999 H         1 <0>         0.4055
     36 H17         3.3418   -2.2728   11.2063 H         1 <0>         0.0773
     37 H18         3.1446   -0.7495   10.3069 H         1 <0>         0.0704
     38 H19         1.5460   -3.0469   12.7614 H         1 <0>         0.0737
     39 H20         0.0695   -2.0750   12.9699 H         1 <0>         0.0685
     40 H21         0.3569   -2.9403   11.4412 H         1 <0>         0.0624
     41 H22         2.7412    0.4651   12.4527 H         1 <0>         0.0626
     42 H23         1.4618   -0.0864   13.5606 H         1 <0>         0.0715
     43 H24         2.9384   -1.0582   13.3521 H         1 <0>         0.0705
     44 H25         1.0123    0.4802   10.6646 H         1 <0>         0.3795
@<TRIPOS>BOND
     1    1    2 1
     2    1   20 1
     3    1   21 1
     4    1   22 1
     5    2    3 2
     6    2   23 1
     7    3    4 1
     8    3   24 1
     9    4    5 2
    10    4   25 1
    11    5    6 1
    12    5   26 1
    13    6    7 2
    14    6   27 1
    15    7    8 1
    16    7   28 1
    17    8    9 1
    18    8   29 1
    19    8   30 1
    20    9   10 1
    21    9   31 1
    22    9   32 1
    23   10   11 2
    24   10   33 1
    25   11   12 1
    26   11   34 1
    27   12   13 2
    28   12   14 am
    29   14   15 1
    30   14   35 1
    31   15   16 1
    32   15   36 1
    33   15   37 1
    34   16   17 1
    35   16   18 1
    36   16   19 1
    37   17   38 1
    38   17   39 1
    39   17   40 1
    40   18   41 1
    41   18   42 1
    42   18   43 1
    43   19   44 1
@<TRIPOS>MOLECULE
ZINC08036052
   48    48     0     0     0
SMALL
USER_CHARGES
N-[(4-hydroxy-2-iodo-5-methoxy-phenyl)methyl]nonanamide
@<TRIPOS>ATOM
      1 C1         -4.3006   10.3515    0.0787 C.3       1 <0>        -0.1544
      2 C2         -4.5597    8.8436    0.0717 C.3       1 <0>        -0.1259
      3 C3         -3.2245    8.0967    0.0614 C.3       1 <0>        -0.1217
      4 C4         -3.4836    6.5888    0.0544 C.3       1 <0>        -0.1206
      5 C5         -2.1484    5.8419    0.0440 C.3       1 <0>        -0.1205
      6 C6         -2.4075    4.3340    0.0370 C.3       1 <0>        -0.1202
      7 C7         -1.0722    3.5871    0.0266 C.3       1 <0>        -0.1043
      8 C8         -1.3314    2.0792    0.0197 C.3       1 <0>        -0.1407
      9 C9         -0.0162    1.3436    0.0094 C.2       1 <0>         0.5160
     10 O1          1.0258    1.9642    0.0028 O.2       1 <0>        -0.5349
     11 N1          0.0021   -0.0041    0.0020 N.am      1 <0>        -0.7265
     12 C10         1.2806   -0.7192   -0.0140 C.3       1 <0>         0.1520
     13 C11         1.0253   -2.2044   -0.0196 C.ar      1 <0>        -0.0445
     14 C12         1.2031   -2.9307   -1.1828 C.ar      1 <0>        -0.1741
     15 C13         0.9689   -4.2960   -1.1897 C.ar      1 <0>         0.1237
     16 C14         0.5547   -4.9341   -0.0240 C.ar      1 <0>         0.0880
     17 C15         0.3784   -4.2012    1.1381 C.ar      1 <0>        -0.0726
     18 C16         0.6193   -2.8389    1.1398 C.ar      1 <0>        -0.1148
     19 I1          0.3610   -1.7338    2.9008 I         1 <0>        -0.0223
     20 O2          0.3232   -6.2742   -0.0262 O.3       1 <0>        -0.4806
     21 O3          1.1429   -5.0114   -2.3331 O.3       1 <0>        -0.3012
     22 C17         1.5689   -4.2904   -3.4910 C.3       1 <0>         0.0211
     23 H1         -3.7284   10.6177    0.9674 H         1 <0>         0.0534
     24 H2         -3.7369   10.6274   -0.8125 H         1 <0>         0.0533
     25 H3         -5.2519   10.8836    0.0861 H         1 <0>         0.0533
     26 H4         -5.1319    8.5774   -0.8170 H         1 <0>         0.0601
     27 H5         -5.1235    8.5677    0.9629 H         1 <0>         0.0601
     28 H6         -2.6523    8.3629    0.9501 H         1 <0>         0.0609
     29 H7         -2.6608    8.3726   -0.8298 H         1 <0>         0.0608
     30 H8         -4.0558    6.3226   -0.8344 H         1 <0>         0.0605
     31 H9         -4.0473    6.3129    0.9456 H         1 <0>         0.0606
     32 H10        -1.5762    6.1081    0.9327 H         1 <0>         0.0622
     33 H11        -1.5846    6.1178   -0.8472 H         1 <0>         0.0619
     34 H12        -2.9797    4.0678   -0.8517 H         1 <0>         0.0618
     35 H13        -2.9712    4.0581    0.9282 H         1 <0>         0.0622
     36 H14        -0.5001    3.8533    0.9154 H         1 <0>         0.0700
     37 H15        -0.5085    3.8630   -0.8645 H         1 <0>         0.0694
     38 H16        -1.9035    1.8130   -0.8691 H         1 <0>         0.0932
     39 H17        -1.8951    1.8033    0.9108 H         1 <0>         0.0946
     40 H18        -0.8313   -0.5005    0.0073 H         1 <0>         0.4016
     41 H19         1.8400   -0.4434   -0.9079 H         1 <0>         0.0823
     42 H20         1.8570   -0.4529    0.8719 H         1 <0>         0.0883
     43 H21         1.5242   -2.4334   -2.0861 H         1 <0>         0.1441
     44 H22         0.0574   -4.6940    2.0439 H         1 <0>         0.1462
     45 H23         1.0994   -6.8077    0.1928 H         1 <0>         0.3926
     46 H24         1.6687   -4.9780   -4.3309 H         1 <0>         0.1066
     47 H25         0.8321   -3.5248   -3.7338 H         1 <0>         0.0594
     48 H26         2.5310   -3.8185   -3.2916 H         1 <0>         0.0596
@<TRIPOS>BOND
     1    1    2 1
     2    1   23 1
     3    1   24 1
     4    1   25 1
     5    2    3 1
     6    2   26 1
     7    2   27 1
     8    3    4 1
     9    3   28 1
    10    3   29 1
    11    4    5 1
    12    4   30 1
    13    4   31 1
    14    5    6 1
    15    5   32 1
    16    5   33 1
    17    6    7 1
    18    6   34 1
    19    6   35 1
    20    7    8 1
    21    7   36 1
    22    7   37 1
    23    8    9 1
    24    8   38 1
    25    8   39 1
    26    9   10 2
    27    9   11 am
    28   11   12 1
    29   11   40 1
    30   12   13 1
    31   12   41 1
    32   12   42 1
    33   13   18 ar
    34   13   14 ar
    35   14   15 ar
    36   14   43 1
    37   15   16 ar
    38   15   21 1
    39   16   17 ar
    40   16   20 1
    41   17   18 ar
    42   17   44 1
    43   18   19 1
    44   20   45 1
    45   21   22 1
    46   22   46 1
    47   22   47 1
    48   22   48 1
@<TRIPOS>MOLECULE
ZINC00397867
   39    41     0     0     0
SMALL
USER_CHARGES
3-(7-hydroxy-1-naphthyl)-1-(3-methylsulfanylphenyl)-urea
@<TRIPOS>ATOM
      1 C1          2.5684   -1.8193    1.2139 C.3       1 <0>        -0.1465
      2 S1          2.2162   -2.0535    2.9778 S.3       1 <0>        -0.1086
      3 C2          1.5167   -0.5164    3.4806 C.ar      1 <0>        -0.0634
      4 C3          1.3674    0.5149    2.5599 C.ar      1 <0>        -0.1495
      5 C4          0.8138    1.7178    2.9523 C.ar      1 <0>        -0.0775
      6 C5          0.4173    1.9047    4.2629 C.ar      1 <0>        -0.1505
      7 C6          0.5689    0.8806    5.1893 C.ar      1 <0>         0.1807
      8 C7          1.1192   -0.3313    4.7978 C.ar      1 <0>        -0.1009
      9 N1          0.1674    1.0714    6.5161 N.am      1 <0>        -0.6798
     10 C8          0.8439    0.4744    7.5174 C.2       1 <0>         0.7038
     11 O1          1.8596   -0.1494    7.2775 O.2       1 <0>        -0.5440
     12 N2          0.3945    0.5689    8.7845 N.am      1 <0>        -0.6719
     13 C9          1.1535    0.0486    9.8354 C.ar      1 <0>         0.1662
     14 C10         2.5066   -0.1592    9.6790 C.ar      1 <0>        -0.1319
     15 C11         3.2732   -0.6710   10.7221 C.ar      1 <0>        -0.0903
     16 C12         2.7075   -0.9921   11.9182 C.ar      1 <0>        -0.1235
     17 C13         1.3294   -0.8013   12.1167 C.ar      1 <0>        -0.0413
     18 C14         0.5402   -0.2743   11.0646 C.ar      1 <0>        -0.0514
     19 C15        -0.8356   -0.0824   11.2632 C.ar      1 <0>        -0.1410
     20 C16        -1.3962   -0.4064   12.4662 C.ar      1 <0>         0.1127
     21 C17        -0.6162   -0.9263   13.5034 C.ar      1 <0>        -0.1390
     22 C18         0.7198   -1.1235   13.3421 C.ar      1 <0>        -0.0834
     23 O2         -2.7289   -0.2205   12.6572 O.3       1 <0>        -0.4994
     24 H1          3.2655   -0.9906    1.0895 H         1 <0>         0.0848
     25 H2          1.6418   -1.5971    0.6847 H         1 <0>         0.0846
     26 H3          3.0097   -2.7294    0.8075 H         1 <0>         0.1105
     27 H4          1.6807    0.3736    1.5360 H         1 <0>         0.1255
     28 H5          0.6951    2.5159    2.2344 H         1 <0>         0.1319
     29 H6         -0.0107    2.8483    4.5675 H         1 <0>         0.1293
     30 H7          1.2384   -1.1288    5.5163 H         1 <0>         0.1425
     31 H8         -0.5978    1.6333    6.7153 H         1 <0>         0.4107
     32 H9         -0.4560    0.9983    8.9667 H         1 <0>         0.4086
     33 H10         2.9788    0.0828    8.7383 H         1 <0>         0.1571
     34 H11         4.3330   -0.8212   10.5783 H         1 <0>         0.1292
     35 H12         3.3176   -1.3929   12.7142 H         1 <0>         0.1301
     36 H13        -1.4480    0.3189   10.4693 H         1 <0>         0.1258
     37 H14        -1.0812   -1.1752   14.4459 H         1 <0>         0.1318
     38 H15         1.3101   -1.5256   14.1521 H         1 <0>         0.1361
     39 H16        -2.9584    0.6520   13.0054 H         1 <0>         0.3918
@<TRIPOS>BOND
     1    1    2 1
     2    1   24 1
     3    1   25 1
     4    1   26 1
     5    2    3 1
     6    3    8 ar
     7    3    4 ar
     8    4    5 ar
     9    4   27 1
    10    5    6 ar
    11    5   28 1
    12    6    7 ar
    13    6   29 1
    14    7    8 ar
    15    7    9 1
    16    8   30 1
    17    9   10 am
    18    9   31 1
    19   10   11 2
    20   10   12 am
    21   12   13 1
    22   12   32 1
    23   13   18 ar
    24   13   14 ar
    25   14   15 ar
    26   14   33 1
    27   15   16 ar
    28   15   34 1
    29   16   17 ar
    30   16   35 1
    31   17   22 ar
    32   17   18 ar
    33   18   19 ar
    34   19   20 ar
    35   19   36 1
    36   20   21 ar
    37   20   23 1
    38   21   22 ar
    39   21   37 1
    40   22   38 1
    41   23   39 1
@<TRIPOS>MOLECULE
ZINC12369679
   44    46     0     0     0
SMALL
USER_CHARGES
2-[(2,6-dichlorophenyl)methyl]-N-(4-isopropylphenyl)thiazole-4-carboxamide
@<TRIPOS>ATOM
      1 C1          1.1474    4.0864    1.4907 C.3       1 <0>        -0.1450
      2 C2          1.1486    3.5926    0.0426 C.3       1 <0>        -0.0559
      3 C3          2.3862    4.1302   -0.6786 C.3       1 <0>        -0.1455
      4 C4          1.1723    2.0858    0.0257 C.ar      1 <0>        -0.0889
      5 C5          0.1425    1.3864   -0.5765 C.ar      1 <0>        -0.0994
      6 C6          0.1612    0.0055   -0.5937 C.ar      1 <0>        -0.1390
      7 C7          1.2158   -0.6806   -0.0053 C.ar      1 <0>         0.1375
      8 C8          2.2485    0.0250    0.5986 C.ar      1 <0>        -0.1170
      9 C9          2.2237    1.4058    0.6123 C.ar      1 <0>        -0.0964
     10 N1          1.2375   -2.0789   -0.0205 N.am      1 <0>        -0.6557
     11 C10         2.4099   -2.7334   -0.1370 C.2       1 <0>         0.5958
     12 O1          3.4554   -2.1117   -0.1443 O.2       1 <0>        -0.5158
     13 C11         2.4251   -4.2009   -0.2555 C.2       1 <0>        -0.0096
     14 C12         3.6035   -4.8923   -0.3805 C.2       1 <0>        -0.1676
     15 S1          3.0362   -6.5292   -0.4751 S.3       1 <0>         0.1568
     16 C13         1.3359   -6.2097   -0.3574 C.2       1 <0>         0.0744
     17 N2          1.2935   -4.9070   -0.2508 N.2       1 <0>        -0.4666
     18 C14         0.1913   -7.1899   -0.3740 C.3       1 <0>         0.0027
     19 C15        -0.2668   -7.4033   -1.7937 C.ar      1 <0>        -0.0764
     20 C16        -1.2576   -6.6001   -2.3292 C.ar      1 <0>        -0.0107
     21 C17        -1.6734   -6.7925   -3.6347 C.ar      1 <0>        -0.1050
     22 C18        -1.1077   -7.7949   -4.3999 C.ar      1 <0>        -0.0883
     23 C19        -0.1216   -8.6015   -3.8636 C.ar      1 <0>        -0.1038
     24 C20         0.2994   -8.4061   -2.5601 C.ar      1 <0>        -0.0191
     25 Cl1         1.5382   -9.4188   -1.8869 Cl        1 <0>        -0.0480
     26 Cl2        -1.9737   -5.3460   -1.3658 Cl        1 <0>        -0.0407
     27 H1          2.0454    3.7315    1.9963 H         1 <0>         0.0568
     28 H2          1.1303    5.1762    1.5029 H         1 <0>         0.0582
     29 H3          0.2657    3.7034    2.0044 H         1 <0>         0.0558
     30 H4          0.2506    3.9475   -0.4631 H         1 <0>         0.0770
     31 H5          3.2842    3.7752   -0.1730 H         1 <0>         0.0570
     32 H6          2.3871    3.7784   -1.7103 H         1 <0>         0.0558
     33 H7          2.3691    5.2200   -0.6664 H         1 <0>         0.0582
     34 H8         -0.6749    1.9205   -1.0378 H         1 <0>         0.1255
     35 H9         -0.6435   -0.5402   -1.0638 H         1 <0>         0.1246
     36 H10         3.0697   -0.5056    1.0574 H         1 <0>         0.1381
     37 H11         3.0265    1.9550    1.0818 H         1 <0>         0.1246
     38 H12         0.4088   -2.5777    0.0528 H         1 <0>         0.4194
     39 H13         4.6158   -4.5171   -0.4108 H         1 <0>         0.2097
     40 H14         0.5200   -8.1395    0.0483 H         1 <0>         0.1128
     41 H15        -0.6338   -6.7949    0.2186 H         1 <0>         0.1205
     42 H16        -2.4433   -6.1621   -4.0546 H         1 <0>         0.1434
     43 H17        -1.4359   -7.9478   -5.4174 H         1 <0>         0.1456
     44 H18         0.3206   -9.3842   -4.4621 H         1 <0>         0.1443
@<TRIPOS>BOND
     1    1    2 1
     2    1   27 1
     3    1   28 1
     4    1   29 1
     5    2    3 1
     6    2    4 1
     7    2   30 1
     8    3   31 1
     9    3   32 1
    10    3   33 1
    11    4    9 ar
    12    4    5 ar
    13    5    6 ar
    14    5   34 1
    15    6    7 ar
    16    6   35 1
    17    7    8 ar
    18    7   10 1
    19    8    9 ar
    20    8   36 1
    21    9   37 1
    22   10   11 am
    23   10   38 1
    24   11   12 2
    25   11   13 1
    26   13   17 1
    27   13   14 2
    28   14   15 1
    29   14   39 1
    30   15   16 1
    31   16   17 2
    32   16   18 1
    33   18   19 1
    34   18   40 1
    35   18   41 1
    36   19   24 ar
    37   19   20 ar
    38   20   21 ar
    39   20   26 1
    40   21   22 ar
    41   21   42 1
    42   22   23 ar
    43   22   43 1
    44   23   24 ar
    45   23   44 1
    46   24   25 1
@<TRIPOS>MOLECULE
ZINC38149571
   43    46     0     0     0
SMALL
USER_CHARGES

@<TRIPOS>ATOM
      1 C1          0.1040    1.5016   -0.1223 C.ar      1 <0>        -0.1686
      2 C2          0.7834    1.0604   -1.2491 C.ar      1 <0>        -0.0230
      3 C3          1.8974    0.2571   -1.0765 C.ar      1 <0>        -0.2267
      4 C4          2.2960   -0.0790    0.2156 C.ar      1 <0>         0.2184
      5 N1          1.6186    0.3637    1.2668 N.ar      1 <0>        -0.4652
      6 C5          0.5553    1.1294    1.1307 C.ar      1 <0>         0.1374
      7 C6          3.4873   -0.9394    0.4174 C.ar      1 <0>        -0.0212
      8 C7          4.7195   -0.5615   -0.1365 C.ar      1 <0>        -0.1238
      9 C8          5.8267   -1.3344    0.0350 C.ar      1 <0>        -0.0690
     10 C9          5.7400   -2.5215    0.7726 C.ar      1 <0>        -0.1768
     11 C10         4.5018   -2.9148    1.3379 C.ar      1 <0>         0.1869
     12 C11         3.3744   -2.1052    1.1555 C.ar      1 <0>        -0.0531
     13 N2          4.4472   -4.0567    2.0404 N.ar      1 <0>        -0.5351
     14 C12         5.5218   -4.7925    2.1987 C.ar      1 <0>         0.3447
     15 N3          6.6989   -4.4658    1.6903 N.ar      1 <0>        -0.5766
     16 C13         6.8637   -3.3584    0.9788 C.ar      1 <0>         0.4635
     17 N4          8.0968   -3.0307    0.4538 N.pl3     1 <0>        -0.6361
     18 C14         9.1670   -3.9216    0.5748 C.ar      1 <0>         0.1868
     19 C15        10.4709   -3.4436    0.6027 C.ar      1 <0>        -0.1527
     20 C16        11.5261   -4.3266    0.7222 C.ar      1 <0>        -0.0462
     21 C17        11.2856   -5.6853    0.8141 C.ar      1 <0>        -0.2030
     22 C18         9.9887   -6.1646    0.7866 C.ar      1 <0>        -0.0470
     23 C19         8.9287   -5.2866    0.6730 C.ar      1 <0>        -0.1214
     24 C20        12.4395   -6.6459    0.9439 C.3       1 <0>         0.5099
     25 F1         12.7322   -6.8429    2.2976 F         1 <0>        -0.1766
     26 F2         12.0962   -7.8691    0.3581 F         1 <0>        -0.1771
     27 F3         13.5614   -6.1173    0.2964 F         1 <0>        -0.1780
     28 C21         2.6679   -0.2472   -2.2694 C.3       1 <0>         0.5155
     29 F4          1.9897    0.0990   -3.4430 F         1 <0>        -0.1724
     30 F5          3.9421    0.3302   -2.2796 F         1 <0>        -0.1684
     31 F6          2.7872   -1.6390   -2.1930 F         1 <0>        -0.1669
     32 H1         -0.7662    2.1333   -0.2230 H         1 <0>         0.1538
     33 H2          0.4503    1.3374   -2.2384 H         1 <0>         0.1557
     34 H3          0.0290    1.4713    2.0096 H         1 <0>         0.1740
     35 H4          4.7903    0.3534   -0.7060 H         1 <0>         0.1554
     36 H5          6.7695   -1.0330   -0.3971 H         1 <0>         0.1330
     37 H6          2.4243   -2.3895    1.5833 H         1 <0>         0.1476
     38 H7          5.4422   -5.7056    2.7700 H         1 <0>         0.2018
     39 H8          8.2210   -2.1820    0.0008 H         1 <0>         0.4247
     40 H9         10.6594   -2.3826    0.5306 H         1 <0>         0.1375
     41 H10        12.5401   -3.9556    0.7436 H         1 <0>         0.1405
     42 H11         9.8044   -7.2263    0.8585 H         1 <0>         0.1401
     43 H12         7.9159   -5.6612    0.6561 H         1 <0>         0.1580
@<TRIPOS>BOND
     1    1    6 ar
     2    1    2 ar
     3    1   32 1
     4    2    3 ar
     5    2   33 1
     6    3    4 ar
     7    3   28 1
     8    4    5 ar
     9    4    7 1
    10    5    6 ar
    11    6   34 1
    12    7   12 ar
    13    7    8 ar
    14    8    9 ar
    15    8   35 1
    16    9   10 ar
    17    9   36 1
    18   10   16 ar
    19   10   11 ar
    20   11   12 ar
    21   11   13 ar
    22   12   37 1
    23   13   14 ar
    24   14   15 ar
    25   14   38 1
    26   15   16 ar
    27   16   17 1
    28   17   18 1
    29   17   39 1
    30   18   23 ar
    31   18   19 ar
    32   19   20 ar
    33   19   40 1
    34   20   21 ar
    35   20   41 1
    36   21   22 ar
    37   21   24 1
    38   22   23 ar
    39   22   42 1
    40   23   43 1
    41   24   25 1
    42   24   26 1
    43   24   27 1
    44   28   29 1
    45   28   30 1
    46   28   31 1
@<TRIPOS>MOLECULE
ZINC14974132
   43    46     0     0     0
SMALL
USER_CHARGES
N-[4-[6-[4-(trifluoromethyl)phenyl]pyrimidin-4-yl]oxy-1,3-benzothiazol-2-yl]acetamide
@<TRIPOS>ATOM
      1 C1         -2.2254    7.3810    7.3580 C.3       1 <0>        -0.1666
      2 C2         -1.8036    7.4215    5.9118 C.2       1 <0>         0.5147
      3 O1         -0.6696    7.7366    5.6195 O.2       1 <0>        -0.4962
      4 N1         -2.6850    7.1021    4.9435 N.am      1 <0>        -0.6128
      5 C3         -2.2970    7.1393    3.6134 C.2       1 <0>         0.3608
      6 N2         -3.0034    6.8659    2.5419 N.2       1 <0>        -0.5411
      7 C4         -2.4906    6.9452    1.2944 C.ar      1 <0>         0.1101
      8 C5         -3.1405    6.6796    0.0620 C.ar      1 <0>         0.1311
      9 C6         -2.4651    6.8105   -1.1287 C.ar      1 <0>        -0.0970
     10 C7         -1.1353    7.2037   -1.1668 C.ar      1 <0>        -0.0919
     11 C8         -0.4730    7.4705    0.0170 C.ar      1 <0>        -0.0482
     12 C9         -1.1382    7.3430    1.2124 C.ar      1 <0>        -0.1752
     13 S1         -0.7094    7.5794    2.9204 S.3       1 <0>         0.1149
     14 O2         -4.4432    6.2916    0.0578 O.3       1 <0>        -0.2317
     15 C10        -5.3932    7.2512    0.1722 C.ar      1 <0>         0.3763
     16 C11        -6.7367    6.9045    0.2864 C.ar      1 <0>        -0.2268
     17 C12        -7.6743    7.9288    0.4020 C.ar      1 <0>         0.2368
     18 N3         -7.2524    9.1937    0.3989 N.ar      1 <0>        -0.5317
     19 C13        -5.9719    9.4776    0.2888 C.ar      1 <0>         0.3437
     20 N4         -5.0552    8.5364    0.1827 N.ar      1 <0>        -0.5606
     21 C14        -9.1190    7.6169    0.5269 C.ar      1 <0>        -0.0266
     22 C15        -9.5513    6.2919    0.5239 C.ar      1 <0>        -0.0921
     23 C16       -10.8963    6.0074    0.6463 C.ar      1 <0>        -0.0731
     24 C17       -11.8155    7.0347    0.7608 C.ar      1 <0>        -0.1657
     25 C18       -11.3927    8.3518    0.7581 C.ar      1 <0>        -0.0754
     26 C19       -10.0497    8.6478    0.6421 C.ar      1 <0>        -0.0707
     27 C20       -13.2833    6.7178    0.8883 C.3       1 <0>         0.5072
     28 F1        -13.8594    6.6563   -0.3851 F         1 <0>        -0.1739
     29 F2        -13.4401    5.4852    1.5311 F         1 <0>        -0.1751
     30 F3        -13.9129    7.7178    1.6372 F         1 <0>        -0.1748
     31 H1         -1.3836    7.6637    7.9901 H         1 <0>         0.1081
     32 H2         -3.0485    8.0779    7.5160 H         1 <0>         0.1009
     33 H3         -2.5492    6.3722    7.6139 H         1 <0>         0.1012
     34 H4         -3.5909    6.8462    5.1775 H         1 <0>         0.4293
     35 H5         -2.9811    6.6024   -2.0544 H         1 <0>         0.1411
     36 H6         -0.6222    7.3000   -2.1123 H         1 <0>         0.1484
     37 H7          0.5624    7.7772    0.0023 H         1 <0>         0.1406
     38 H8         -7.0440    5.8691    0.2850 H         1 <0>         0.1572
     39 H9         -5.6627   10.5124    0.2897 H         1 <0>         0.2036
     40 H10        -8.8349    5.4892    0.4301 H         1 <0>         0.1425
     41 H11       -11.2320    4.9810    0.6482 H         1 <0>         0.1440
     42 H12       -12.1148    9.1499    0.8474 H         1 <0>         0.1436
     43 H13        -9.7207    9.6765    0.6402 H         1 <0>         0.1511
@<TRIPOS>BOND
     1    1    2 1
     2    1   31 1
     3    1   32 1
     4    1   33 1
     5    2    3 2
     6    2    4 am
     7    4    5 1
     8    4   34 1
     9    5   13 1
    10    5    6 2
    11    6    7 1
    12    7   12 ar
    13    7    8 ar
    14    8    9 ar
    15    8   14 1
    16    9   10 ar
    17    9   35 1
    18   10   11 ar
    19   10   36 1
    20   11   12 ar
    21   11   37 1
    22   12   13 1
    23   14   15 1
    24   15   20 ar
    25   15   16 ar
    26   16   17 ar
    27   16   38 1
    28   17   18 ar
    29   17   21 1
    30   18   19 ar
    31   19   20 ar
    32   19   39 1
    33   21   26 ar
    34   21   22 ar
    35   22   23 ar
    36   22   40 1
    37   23   24 ar
    38   23   41 1
    39   24   25 ar
    40   24   27 1
    41   25   26 ar
    42   25   42 1
    43   26   43 1
    44   27   28 1
    45   27   29 1
    46   27   30 1
@<TRIPOS>MOLECULE
ZINC28964595
   50    53     0     0     0
SMALL
USER_CHARGES
1-[(1S)-5-tert-butylindan-1-yl]-3-(1H-indazol-4-yl)urea
@<TRIPOS>ATOM
      1 C1          0.6218   -7.8054   -6.5583 C.3       1 <0>        -0.1399
      2 C2          1.9261   -8.2058   -5.8659 C.3       1 <0>        -0.0294
      3 C3          3.1094   -7.5765   -6.6041 C.3       1 <0>        -0.1471
      4 C4          2.0660   -9.7293   -5.8834 C.3       1 <0>        -0.1402
      5 C5          1.9077   -7.7194   -4.4397 C.ar      1 <0>        -0.0582
      6 C6          2.8755   -6.8370   -3.9970 C.ar      1 <0>        -0.1272
      7 C7          2.8564   -6.3922   -2.6897 C.ar      1 <0>        -0.0795
      8 C8          1.8704   -6.8272   -1.8198 C.ar      1 <0>        -0.1187
      9 C9          0.9028   -7.7094   -2.2624 C.ar      1 <0>        -0.0867
     10 C10         0.9237   -8.1543   -3.5738 C.ar      1 <0>        -0.1099
     11 C11        -0.0524   -8.0302   -1.1329 C.3       1 <0>        -0.0878
     12 C12         0.6832   -7.5978    0.1533 C.3       1 <0>        -0.1215
     13 C13         1.6316   -6.4948   -0.3625 C.3       1 <0>         0.2089
     14 H1          2.5687   -6.4107    0.2074 H         1 <0>         0.1002
     15 N1          0.9973   -5.1800   -0.2384 N.am      1 <0>        -0.7435
     16 C14         1.7577   -4.0717   -0.1386 C.2       1 <0>         0.7097
     17 O1          2.9701   -4.1630   -0.1516 O.2       1 <0>        -0.5719
     18 N2          1.1742   -2.8622   -0.0244 N.am      1 <0>        -0.6958
     19 C15         1.9586   -1.7064   -0.0154 C.ar      1 <0>         0.2470
     20 C16         3.2080   -1.7189    0.5735 C.ar      1 <0>        -0.1691
     21 C17         3.9916   -0.5733    0.5859 C.ar      1 <0>        -0.0451
     22 C18         3.5389    0.5935    0.0127 C.ar      1 <0>        -0.1684
     23 C19         2.2829    0.6331   -0.5877 C.ar      1 <0>         0.1370
     24 C20         1.4810   -0.5228   -0.6054 C.ar      1 <0>        -0.2058
     25 C21         0.2812   -0.1815   -1.2734 C.2       1 <0>         0.0691
     26 N3          0.3446    1.0683   -1.6308 N.2       1 <0>        -0.2408
     27 N4          1.5688    1.6146   -1.2264 N.pl3     1 <0>        -0.5157
     28 H2          1.9966    2.6218   -1.3380 H         1 <0>         0.4723
     29 H3         -0.2289   -8.2578   -6.0276 H         1 <0>         0.0569
     30 H4          0.6353   -8.1605   -7.5993 H         1 <0>         0.0598
     31 H5          0.5213   -6.7101   -6.5457 H         1 <0>         0.0561
     32 H6          4.0471   -7.8644   -6.1063 H         1 <0>         0.0598
     33 H7          3.0088   -6.4812   -6.5915 H         1 <0>         0.0589
     34 H8          3.1229   -7.9316   -7.6451 H         1 <0>         0.0596
     35 H9          3.0037  -10.0171   -5.3856 H         1 <0>         0.0571
     36 H10         2.0796  -10.0843   -6.9245 H         1 <0>         0.0596
     37 H11         1.2153  -10.1817   -5.3527 H         1 <0>         0.0571
     38 H12         3.6460   -6.4961   -4.6727 H         1 <0>         0.1267
     39 H13         3.6128   -5.7029   -2.3446 H         1 <0>         0.1224
     40 H14         0.1677   -8.8434   -3.9205 H         1 <0>         0.1177
     41 H15        -0.9874   -7.4679   -1.2726 H         1 <0>         0.0798
     42 H16        -0.2697   -9.1085   -1.1316 H         1 <0>         0.0785
     43 H17        -0.0477   -7.2253    0.8861 H         1 <0>         0.0865
     44 H18         1.2197   -8.4599    0.5763 H         1 <0>         0.0904
     45 H19        -0.0995   -5.0974   -0.2267 H         1 <0>         0.4131
     46 H20         0.0803   -2.7852    0.0617 H         1 <0>         0.4282
     47 H21         3.5778   -2.6265    1.0272 H         1 <0>         0.1446
     48 H22         4.9667   -0.5978    1.0496 H         1 <0>         0.1321
     49 H23         4.1579    1.4784    0.0287 H         1 <0>         0.1256
     50 H24        -0.5492   -0.8473   -1.4559 H         1 <0>         0.1874
@<TRIPOS>BOND
     1    1    2 1
     2    1   29 1
     3    1   30 1
     4    1   31 1
     5    2    3 1
     6    2    4 1
     7    2    5 1
     8    3   32 1
     9    3   33 1
    10    3   34 1
    11    4   35 1
    12    4   36 1
    13    4   37 1
    14    5   10 ar
    15    5    6 ar
    16    6    7 ar
    17    6   38 1
    18    7    8 ar
    19    7   39 1
    20    8   13 1
    21    8    9 ar
    22    9   10 ar
    23    9   11 1
    24   10   40 1
    25   11   12 1
    26   11   41 1
    27   11   42 1
    28   12   13 1
    29   12   43 1
    30   12   44 1
    31   13   14 1
    32   13   15 1
    33   15   16 am
    34   15   45 1
    35   16   17 2
    36   16   18 am
    37   18   19 1
    38   18   46 1
    39   19   24 ar
    40   19   20 ar
    41   20   21 ar
    42   20   47 1
    43   21   22 ar
    44   21   48 1
    45   22   23 ar
    46   22   49 1
    47   23   27 1
    48   23   24 ar
    49   24   25 1
    50   25   26 2
    51   25   50 1
    52   26   27 1
    53   27   28 1
@<TRIPOS>MOLECULE
ZINC28964600
   50    53     0     0     0
SMALL
USER_CHARGES
1-[(1R)-5-tert-butylindan-1-yl]-3-(1H-indazol-4-yl)urea
@<TRIPOS>ATOM
      1 C1          5.5059    4.5397    0.4247 C.3       1 <0>        -0.1471
      2 C2          3.9887    4.6330    0.5985 C.3       1 <0>        -0.0293
      3 C3          3.4351    5.7182   -0.3271 C.3       1 <0>        -0.1399
      4 C4          3.6625    4.9865    2.0510 C.3       1 <0>        -0.1402
      5 C5          3.3608    3.3079    0.2508 C.ar      1 <0>        -0.0582
      6 C6          4.1551    2.2499   -0.1506 C.ar      1 <0>        -0.1272
      7 C7          3.5775    1.0366   -0.4692 C.ar      1 <0>        -0.0795
      8 C8          2.2043    0.8756   -0.3879 C.ar      1 <0>        -0.1187
      9 C9          1.4102    1.9333    0.0135 C.ar      1 <0>        -0.0867
     10 C10         1.9913    3.1493    0.3325 C.ar      1 <0>        -0.1099
     11 C11        -0.0426    1.5085    0.0211 C.3       1 <0>        -0.0879
     12 C12        -0.0122   -0.0346    0.0055 C.3       1 <0>        -0.1214
     13 C13         1.3394   -0.3324   -0.6775 C.3       1 <0>         0.2089
     14 H1          1.8082   -1.2714   -0.3481 H         1 <0>         0.1001
     15 N1          1.1546   -0.4933   -2.1219 N.am      1 <0>        -0.7434
     16 C14         2.0322   -1.2254   -2.8362 C.2       1 <0>         0.7097
     17 O1          2.9773   -1.7524   -2.2819 O.2       1 <0>        -0.5718
     18 N2          1.8621   -1.3733   -4.1650 N.am      1 <0>        -0.6958
     19 C15         2.8208   -2.0526   -4.9205 C.ar      1 <0>         0.2472
     20 C16         3.4999   -3.1263   -4.3783 C.ar      1 <0>        -0.1692
     21 C17         4.4539   -3.8048   -5.1241 C.ar      1 <0>        -0.0449
     22 C18         4.7393   -3.4213   -6.4150 C.ar      1 <0>        -0.1685
     23 C19         4.0686   -2.3423   -6.9856 C.ar      1 <0>         0.1371
     24 C20         3.0964   -1.6512   -6.2395 C.ar      1 <0>        -0.2060
     25 C21         2.5984   -0.6184   -7.0686 C.2       1 <0>         0.0691
     26 N3          3.2047   -0.6787   -8.2187 N.2       1 <0>        -0.2409
     27 N4          4.1258   -1.7331   -8.2132 N.pl3     1 <0>        -0.5157
     28 H2          4.8210   -2.1053   -8.9801 H         1 <0>         0.4723
     29 H3          5.9039    3.7595    1.0902 H         1 <0>         0.0598
     30 H4          5.9642    5.5069    0.6785 H         1 <0>         0.0596
     31 H5          5.7404    4.2856   -0.6195 H         1 <0>         0.0589
     32 H6          2.3443    5.7853   -0.2021 H         1 <0>         0.0569
     33 H7          3.6696    5.4641   -1.3713 H         1 <0>         0.0561
     34 H8          3.8934    6.6854   -0.0733 H         1 <0>         0.0598
     35 H9          2.5717    5.0536    2.1759 H         1 <0>         0.0571
     36 H10         4.1208    5.9537    2.3047 H         1 <0>         0.0596
     37 H11         4.0605    4.2063    2.7165 H         1 <0>         0.0572
     38 H12         5.2262    2.3721   -0.2147 H         1 <0>         0.1267
     39 H13         4.1986    0.2107   -0.7831 H         1 <0>         0.1224
     40 H14         1.3715    3.9763    0.6462 H         1 <0>         0.1177
     41 H15        -0.5327    1.8943    0.9272 H         1 <0>         0.0785
     42 H16        -0.5474    1.9122   -0.8690 H         1 <0>         0.0799
     43 H17        -0.0626   -0.4128    1.0372 H         1 <0>         0.0904
     44 H18        -0.8727   -0.4126   -0.5660 H         1 <0>         0.0865
     45 H19         0.2995   -0.0166   -2.6235 H         1 <0>         0.4131
     46 H20         0.9684   -0.9591   -4.6546 H         1 <0>         0.4282
     47 H21         3.2873   -3.4400   -3.3670 H         1 <0>         0.1446
     48 H22         4.9774   -4.6423   -4.6873 H         1 <0>         0.1321
     49 H23         5.4832   -3.9575   -6.9856 H         1 <0>         0.1255
     50 H24         1.8384    0.0982   -6.7942 H         1 <0>         0.1874
@<TRIPOS>BOND
     1    1    2 1
     2    1   29 1
     3    1   30 1
     4    1   31 1
     5    2    3 1
     6    2    4 1
     7    2    5 1
     8    3   32 1
     9    3   33 1
    10    3   34 1
    11    4   35 1
    12    4   36 1
    13    4   37 1
    14    5   10 ar
    15    5    6 ar
    16    6    7 ar
    17    6   38 1
    18    7    8 ar
    19    7   39 1
    20    8   13 1
    21    8    9 ar
    22    9   10 ar
    23    9   11 1
    24   10   40 1
    25   11   12 1
    26   11   41 1
    27   11   42 1
    28   12   13 1
    29   12   43 1
    30   12   44 1
    31   13   14 1
    32   13   15 1
    33   15   16 am
    34   15   45 1
    35   16   17 2
    36   16   18 am
    37   18   19 1
    38   18   46 1
    39   19   24 ar
    40   19   20 ar
    41   20   21 ar
    42   20   47 1
    43   21   22 ar
    44   21   48 1
    45   22   23 ar
    46   22   49 1
    47   23   27 1
    48   23   24 ar
    49   24   25 1
    50   25   26 2
    51   25   50 1
    52   26   27 1
    53   27   28 1
@<TRIPOS>MOLECULE
ZINC00302143
   43    45     0     0     0
SMALL
USER_CHARGES
N-(3-quinolyl)-4-tert-butyl-benzamide
@<TRIPOS>ATOM
      1 C1          3.7963   -1.5764   -1.2641 C.3       1 <0>        -0.1408
      2 C2          3.7100   -0.7052   -0.0093 C.3       1 <0>        -0.0355
      3 C3          4.8618    0.3019   -0.0075 C.3       1 <0>        -0.1471
      4 C4          3.8052   -1.5913    1.2343 C.3       1 <0>        -0.1406
      5 C5          2.3966    0.0338   -0.0003 C.ar      1 <0>        -0.0367
      6 C6          1.2080   -0.6743   -0.0003 C.ar      1 <0>        -0.1231
      7 C7          0.0022   -0.0040    0.0080 C.ar      1 <0>        -0.0512
      8 C8         -0.0168    1.3917    0.0163 C.ar      1 <0>        -0.1453
      9 C9          1.1861    2.1000    0.0163 C.ar      1 <0>        -0.0810
     10 C10         2.3849    1.4173    0.0084 C.ar      1 <0>        -0.1285
     11 C11        -1.3050    2.1166    0.0191 C.2       1 <0>         0.5621
     12 O1         -2.3510    1.4971    0.0140 O.2       1 <0>        -0.5164
     13 N1         -1.3199    3.4642    0.0271 N.am      1 <0>        -0.6639
     14 C12        -2.5345    4.1506   -0.0690 C.ar      1 <0>         0.0830
     15 C13        -3.6727    3.6348    0.5211 C.ar      1 <0>        -0.0612
     16 C14        -4.8694    4.3630    0.3966 C.ar      1 <0>        -0.0837
     17 C15        -6.0668    3.9021    0.9688 C.ar      1 <0>        -0.0965
     18 C16        -7.2056    4.6344    0.8276 C.ar      1 <0>        -0.1113
     19 C17        -7.1997    5.8360    0.1217 C.ar      1 <0>        -0.1033
     20 C18        -6.0581    6.3118   -0.4457 C.ar      1 <0>        -0.0892
     21 C19        -4.8609    5.5847   -0.3219 C.ar      1 <0>         0.1121
     22 N2         -3.7266    6.0307   -0.8705 N.ar      1 <0>        -0.4548
     23 C20        -2.6030    5.3669   -0.7584 C.ar      1 <0>         0.1219
     24 H1          3.7285   -0.9452   -2.1501 H         1 <0>         0.0580
     25 H2          4.7463   -2.1109   -1.2706 H         1 <0>         0.0623
     26 H3          2.9757   -2.2939   -1.2654 H         1 <0>         0.0589
     27 H4          4.8003    0.9225    0.8864 H         1 <0>         0.0602
     28 H5          5.8118   -0.2326   -0.0140 H         1 <0>         0.0618
     29 H6          4.7940    0.9331   -0.8935 H         1 <0>         0.0603
     30 H7          2.9846   -2.3087    1.2330 H         1 <0>         0.0589
     31 H8          4.7551   -2.1257    1.2278 H         1 <0>         0.0623
     32 H9          3.7437   -0.9706    2.1282 H         1 <0>         0.0579
     33 H10         1.2241   -1.7542   -0.0071 H         1 <0>         0.1312
     34 H11        -0.9249   -0.5579    0.0084 H         1 <0>         0.1374
     35 H12         1.1783    3.1799    0.0223 H         1 <0>         0.1260
     36 H13         3.3163    1.9640    0.0091 H         1 <0>         0.1360
     37 H14        -0.4881    3.9580    0.0996 H         1 <0>         0.4136
     38 H15        -3.6442    2.7002    1.0615 H         1 <0>         0.1551
     39 H16        -6.0837    2.9722    1.5179 H         1 <0>         0.1316
     40 H17        -8.1255    4.2797    1.2685 H         1 <0>         0.1296
     41 H18        -8.1163    6.3985    0.0230 H         1 <0>         0.1315
     42 H19        -6.0715    7.2451   -0.9891 H         1 <0>         0.1365
     43 H20        -1.7082    5.7655   -1.2133 H         1 <0>         0.1622
@<TRIPOS>BOND
     1    1    2 1
     2    1   24 1
     3    1   25 1
     4    1   26 1
     5    2    3 1
     6    2    4 1
     7    2    5 1
     8    3   27 1
     9    3   28 1
    10    3   29 1
    11    4   30 1
    12    4   31 1
    13    4   32 1
    14    5   10 ar
    15    5    6 ar
    16    6    7 ar
    17    6   33 1
    18    7    8 ar
    19    7   34 1
    20    8    9 ar
    21    8   11 1
    22    9   10 ar
    23    9   35 1
    24   10   36 1
    25   11   12 2
    26   11   13 am
    27   13   14 1
    28   13   37 1
    29   14   23 ar
    30   14   15 ar
    31   15   16 ar
    32   15   38 1
    33   16   21 ar
    34   16   17 ar
    35   17   18 ar
    36   17   39 1
    37   18   19 ar
    38   18   40 1
    39   19   20 ar
    40   19   41 1
    41   20   21 ar
    42   20   42 1
    43   21   22 ar
    44   22   23 ar
    45   23   43 1
@<TRIPOS>MOLECULE
ZINC00243356
   31    32     0     0     0
SMALL
USER_CHARGES
4-ethyl-N-(3-pyridyl)benzamide
@<TRIPOS>ATOM
      1 C1         -0.1567   10.4410    0.9220 C.3       1 <0>        -0.1483
      2 C2         -0.0995    9.8317   -0.4802 C.3       1 <0>        -0.0925
      3 C3         -0.0810    8.3285   -0.3744 C.ar      1 <0>        -0.0487
      4 C4         -1.2717    7.6239   -0.3673 C.ar      1 <0>        -0.1254
      5 C5         -1.2619    6.2478   -0.2710 C.ar      1 <0>        -0.0508
      6 C6         -0.0470    5.5663   -0.1808 C.ar      1 <0>        -0.1462
      7 C7          1.1505    6.2836   -0.1827 C.ar      1 <0>        -0.0806
      8 C8          1.1267    7.6592   -0.2852 C.ar      1 <0>        -0.1251
      9 C9         -0.0288    4.0918   -0.0775 C.2       1 <0>         0.5630
     10 O1         -1.0734    3.4701   -0.0710 O.2       1 <0>        -0.5164
     11 N1          1.1458    3.4368    0.0096 N.am      1 <0>        -0.6659
     12 C10         1.1685    2.0383    0.0083 C.ar      1 <0>         0.0925
     13 C11         0.1477    1.3143    0.6202 C.ar      1 <0>        -0.0779
     14 C12         0.2144   -0.0688    0.5928 C.ar      1 <0>        -0.1519
     15 C13         1.2830   -0.6811   -0.0358 C.ar      1 <0>         0.0826
     16 N2          2.2338    0.0330   -0.6056 N.ar      1 <0>        -0.4658
     17 C14         2.2091    1.3510   -0.6024 C.ar      1 <0>         0.0790
     18 H1          0.7190   10.1276    1.4904 H         1 <0>         0.0570
     19 H2         -0.1700   11.5283    0.8454 H         1 <0>         0.0620
     20 H3         -1.0597   10.1014    1.4292 H         1 <0>         0.0574
     21 H4          0.8036   10.1713   -0.9874 H         1 <0>         0.0766
     22 H5         -0.9751   10.1452   -1.0486 H         1 <0>         0.0769
     23 H6         -2.2110    8.1524   -0.4375 H         1 <0>         0.1322
     24 H7         -2.1920    5.6989   -0.2659 H         1 <0>         0.1381
     25 H8          2.0936    5.7627   -0.1082 H         1 <0>         0.1263
     26 H9          2.0526    8.2151   -0.2913 H         1 <0>         0.1312
     27 H10         1.9755    3.9353    0.0730 H         1 <0>         0.4132
     28 H11        -0.6752    1.8191    1.1043 H         1 <0>         0.1499
     29 H12        -0.5592   -0.6623    1.0573 H         1 <0>         0.1405
     30 H13         1.3399   -1.7593   -0.0601 H         1 <0>         0.1596
     31 H14         3.0084    1.9018   -1.0758 H         1 <0>         0.1575
@<TRIPOS>BOND
     1    1    2 1
     2    1   18 1
     3    1   19 1
     4    1   20 1
     5    2    3 1
     6    2   21 1
     7    2   22 1
     8    3    8 ar
     9    3    4 ar
    10    4    5 ar
    11    4   23 1
    12    5    6 ar
    13    5   24 1
    14    6    7 ar
    15    6    9 1
    16    7    8 ar
    17    7   25 1
    18    8   26 1
    19    9   10 2
    20    9   11 am
    21   11   12 1
    22   11   27 1
    23   12   17 ar
    24   12   13 ar
    25   13   14 ar
    26   13   28 1
    27   14   15 ar
    28   14   29 1
    29   15   16 ar
    30   15   30 1
    31   16   17 ar
    32   17   31 1
@<TRIPOS>MOLECULE
ZINC02228626
   43    45     0     0     0
SMALL
USER_CHARGES
4-butyl-N-(3-quinolyl)benzamide
@<TRIPOS>ATOM
      1 C1         -0.7366    1.5910   -3.7185 C.3       1 <0>        -0.1548
      2 C2         -0.0045    1.0836   -2.4746 C.3       1 <0>        -0.1255
      3 C3         -0.7258    1.5805   -1.2201 C.3       1 <0>        -0.1147
      4 C4          0.0063    1.0730    0.0239 C.3       1 <0>        -0.0884
      5 C5         -0.7042    1.5625    1.2595 C.ar      1 <0>        -0.0478
      6 C6         -0.3427    2.7707    1.8287 C.ar      1 <0>        -0.1246
      7 C7         -0.9923    3.2268    2.9570 C.ar      1 <0>        -0.0807
      8 C8         -2.0091    2.4614    3.5306 C.ar      1 <0>        -0.1453
      9 C9         -2.3651    1.2409    2.9543 C.ar      1 <0>        -0.0509
     10 C10        -1.7111    0.7989    1.8230 C.ar      1 <0>        -0.1249
     11 C11        -2.7052    2.9410    4.7431 C.2       1 <0>         0.5621
     12 O1         -3.5900    2.2721    5.2406 O.2       1 <0>        -0.5161
     13 N1         -2.3591    4.1199    5.2970 N.am      1 <0>        -0.6639
     14 C12        -3.0815    4.6202    6.3849 C.ar      1 <0>         0.0828
     15 C13        -3.5999    3.7566    7.3311 C.ar      1 <0>        -0.0612
     16 C14        -4.3184    4.3089    8.4065 C.ar      1 <0>        -0.0837
     17 C15        -4.8753    3.4946    9.4067 C.ar      1 <0>        -0.0965
     18 C16        -5.5641    4.0653   10.4329 C.ar      1 <0>        -0.1113
     19 C17        -5.7250    5.4478   10.5041 C.ar      1 <0>        -0.1032
     20 C18        -5.1994    6.2662    9.5526 C.ar      1 <0>        -0.0892
     21 C19        -4.4808    5.7153    8.4768 C.ar      1 <0>         0.1122
     22 N2         -3.9551    6.4979    7.5293 N.ar      1 <0>        -0.4547
     23 C20        -3.2786    5.9990    6.5247 C.ar      1 <0>         0.1219
     24 H1         -0.2227    1.2370   -4.6123 H         1 <0>         0.0550
     25 H2         -1.7603    1.2166   -3.7157 H         1 <0>         0.0541
     26 H3         -0.7484    2.6809   -3.7139 H         1 <0>         0.0540
     27 H4          1.0192    1.4580   -2.4774 H         1 <0>         0.0624
     28 H5          0.0073   -0.0064   -2.4792 H         1 <0>         0.0625
     29 H6         -1.7495    1.2060   -1.2173 H         1 <0>         0.0648
     30 H7         -0.7376    2.6704   -1.2155 H         1 <0>         0.0646
     31 H8          0.0181   -0.0169    0.0192 H         1 <0>         0.0770
     32 H9          1.0300    1.4475    0.0210 H         1 <0>         0.0768
     33 H10         0.4471    3.3598    1.3865 H         1 <0>         0.1310
     34 H11        -0.7123    4.1722    3.3977 H         1 <0>         0.1264
     35 H12        -3.1512    0.6441    3.3930 H         1 <0>         0.1378
     36 H13        -1.9858   -0.1451    1.3759 H         1 <0>         0.1318
     37 H14        -1.6089    4.6213    4.9412 H         1 <0>         0.4136
     38 H15        -3.4579    2.6893    7.2470 H         1 <0>         0.1551
     39 H16        -4.7574    2.4220    9.3620 H         1 <0>         0.1316
     40 H17        -5.9913    3.4387   11.2017 H         1 <0>         0.1296
     41 H18        -6.2764    5.8766   11.3278 H         1 <0>         0.1315
     42 H19        -5.3334    7.3355    9.6236 H         1 <0>         0.1365
     43 H20        -2.8668    6.6677    5.7833 H         1 <0>         0.1622
@<TRIPOS>BOND
     1    1    2 1
     2    1   24 1
     3    1   25 1
     4    1   26 1
     5    2    3 1
     6    2   27 1
     7    2   28 1
     8    3    4 1
     9    3   29 1
    10    3   30 1
    11    4    5 1
    12    4   31 1
    13    4   32 1
    14    5   10 ar
    15    5    6 ar
    16    6    7 ar
    17    6   33 1
    18    7    8 ar
    19    7   34 1
    20    8    9 ar
    21    8   11 1
    22    9   10 ar
    23    9   35 1
    24   10   36 1
    25   11   12 2
    26   11   13 am
    27   13   14 1
    28   13   37 1
    29   14   23 ar
    30   14   15 ar
    31   15   16 ar
    32   15   38 1
    33   16   21 ar
    34   16   17 ar
    35   17   18 ar
    36   17   39 1
    37   18   19 ar
    38   18   40 1
    39   19   20 ar
    40   19   41 1
    41   20   21 ar
    42   20   42 1
    43   21   22 ar
    44   22   23 ar
    45   23   43 1
@<TRIPOS>MOLECULE
ZINC03899411
   37    38     0     0     0
SMALL
USER_CHARGES
4-butyl-N-(3-pyridyl)benzamide
@<TRIPOS>ATOM
      1 C1         -0.2327   12.5765    2.2168 C.3       1 <0>        -0.1548
      2 C2         -0.1754   11.9671    0.8145 C.3       1 <0>        -0.1256
      3 C3         -0.1567   10.4410    0.9220 C.3       1 <0>        -0.1146
      4 C4         -0.0995    9.8317   -0.4802 C.3       1 <0>        -0.0885
      5 C5         -0.0810    8.3285   -0.3744 C.ar      1 <0>        -0.0477
      6 C6         -1.2717    7.6239   -0.3673 C.ar      1 <0>        -0.1249
      7 C7         -1.2619    6.2478   -0.2710 C.ar      1 <0>        -0.0509
      8 C8         -0.0470    5.5663   -0.1808 C.ar      1 <0>        -0.1459
      9 C9          1.1505    6.2836   -0.1827 C.ar      1 <0>        -0.0808
     10 C10         1.1267    7.6592   -0.2852 C.ar      1 <0>        -0.1246
     11 C11        -0.0288    4.0918   -0.0775 C.2       1 <0>         0.5629
     12 O1         -1.0734    3.4701   -0.0710 O.2       1 <0>        -0.5164
     13 N1          1.1458    3.4368    0.0096 N.am      1 <0>        -0.6659
     14 C12         1.1685    2.0383    0.0083 C.ar      1 <0>         0.0925
     15 C13         0.1477    1.3143    0.6202 C.ar      1 <0>        -0.0779
     16 C14         0.2144   -0.0688    0.5928 C.ar      1 <0>        -0.1519
     17 C15         1.2830   -0.6811   -0.0358 C.ar      1 <0>         0.0826
     18 N2          2.2338    0.0330   -0.6056 N.ar      1 <0>        -0.4658
     19 C16         2.2091    1.3510   -0.6024 C.ar      1 <0>         0.0789
     20 H1         -0.2460   13.6637    2.1402 H         1 <0>         0.0550
     21 H2         -1.1357   12.2369    2.7240 H         1 <0>         0.0541
     22 H3          0.6430   12.2630    2.7852 H         1 <0>         0.0539
     23 H4          0.7276   12.3068    0.3074 H         1 <0>         0.0625
     24 H5         -1.0511   12.2806    0.2462 H         1 <0>         0.0626
     25 H6         -1.0597   10.1014    1.4292 H         1 <0>         0.0648
     26 H7          0.7190   10.1276    1.4904 H         1 <0>         0.0645
     27 H8          0.8036   10.1713   -0.9874 H         1 <0>         0.0769
     28 H9         -0.9751   10.1452   -1.0486 H         1 <0>         0.0771
     29 H10        -2.2110    8.1524   -0.4375 H         1 <0>         0.1320
     30 H11        -2.1920    5.6989   -0.2659 H         1 <0>         0.1379
     31 H12         2.0936    5.7627   -0.1082 H         1 <0>         0.1261
     32 H13         2.0526    8.2151   -0.2913 H         1 <0>         0.1311
     33 H14         1.9755    3.9353    0.0730 H         1 <0>         0.4132
     34 H15        -0.6752    1.8191    1.1043 H         1 <0>         0.1499
     35 H16        -0.5592   -0.6623    1.0573 H         1 <0>         0.1404
     36 H17         1.3399   -1.7593   -0.0601 H         1 <0>         0.1596
     37 H18         3.0084    1.9018   -1.0758 H         1 <0>         0.1575
@<TRIPOS>BOND
     1    1    2 1
     2    1   20 1
     3    1   21 1
     4    1   22 1
     5    2    3 1
     6    2   23 1
     7    2   24 1
     8    3    4 1
     9    3   25 1
    10    3   26 1
    11    4    5 1
    12    4   27 1
    13    4   28 1
    14    5   10 ar
    15    5    6 ar
    16    6    7 ar
    17    6   29 1
    18    7    8 ar
    19    7   30 1
    20    8    9 ar
    21    8   11 1
    22    9   10 ar
    23    9   31 1
    24   10   32 1
    25   11   12 2
    26   11   13 am
    27   13   14 1
    28   13   33 1
    29   14   19 ar
    30   14   15 ar
    31   15   16 ar
    32   15   34 1
    33   16   17 ar
    34   16   35 1
    35   17   18 ar
    36   17   36 1
    37   18   19 ar
    38   19   37 1
@<TRIPOS>MOLECULE
ZINC00188371
   40    42     0     0     0
SMALL
USER_CHARGES
4-propyl-N-(3-quinolyl)benzamide
@<TRIPOS>ATOM
      1 C1         -0.0045    1.0836   -2.4746 C.3       1 <0>        -0.1546
      2 C2         -0.7258    1.5805   -1.2201 C.3       1 <0>        -0.1191
      3 C3          0.0063    1.0730    0.0239 C.3       1 <0>        -0.0885
      4 C4         -0.7042    1.5625    1.2595 C.ar      1 <0>        -0.0484
      5 C5         -0.3427    2.7707    1.8287 C.ar      1 <0>        -0.1246
      6 C6         -0.9923    3.2268    2.9570 C.ar      1 <0>        -0.0807
      7 C7         -2.0091    2.4614    3.5306 C.ar      1 <0>        -0.1453
      8 C8         -2.3651    1.2409    2.9543 C.ar      1 <0>        -0.0509
      9 C9         -1.7111    0.7989    1.8230 C.ar      1 <0>        -0.1250
     10 C10        -2.7052    2.9410    4.7431 C.2       1 <0>         0.5621
     11 O1         -3.5900    2.2721    5.2406 O.2       1 <0>        -0.5161
     12 N1         -2.3591    4.1199    5.2970 N.am      1 <0>        -0.6639
     13 C11        -3.0815    4.6202    6.3849 C.ar      1 <0>         0.0828
     14 C12        -3.5999    3.7566    7.3311 C.ar      1 <0>        -0.0611
     15 C13        -4.3184    4.3089    8.4065 C.ar      1 <0>        -0.0837
     16 C14        -4.8753    3.4946    9.4067 C.ar      1 <0>        -0.0965
     17 C15        -5.5641    4.0653   10.4329 C.ar      1 <0>        -0.1113
     18 C16        -5.7250    5.4478   10.5041 C.ar      1 <0>        -0.1032
     19 C17        -5.1994    6.2662    9.5526 C.ar      1 <0>        -0.0892
     20 C18        -4.4808    5.7153    8.4768 C.ar      1 <0>         0.1121
     21 N2         -3.9551    6.4979    7.5293 N.ar      1 <0>        -0.4547
     22 C19        -3.2786    5.9990    6.5247 C.ar      1 <0>         0.1219
     23 H1         -0.5261    1.4451   -3.3608 H         1 <0>         0.0569
     24 H2          1.0192    1.4580   -2.4774 H         1 <0>         0.0554
     25 H3          0.0073   -0.0064   -2.4792 H         1 <0>         0.0556
     26 H4         -1.7495    1.2060   -1.2173 H         1 <0>         0.0644
     27 H5         -0.7376    2.6704   -1.2155 H         1 <0>         0.0641
     28 H6          0.0181   -0.0169    0.0192 H         1 <0>         0.0770
     29 H7          1.0300    1.4475    0.0210 H         1 <0>         0.0768
     30 H8          0.4471    3.3598    1.3865 H         1 <0>         0.1311
     31 H9         -0.7123    4.1722    3.3977 H         1 <0>         0.1265
     32 H10        -3.1512    0.6441    3.3930 H         1 <0>         0.1379
     33 H11        -1.9858   -0.1451    1.3759 H         1 <0>         0.1319
     34 H12        -1.6089    4.6213    4.9412 H         1 <0>         0.4136
     35 H13        -3.4579    2.6893    7.2470 H         1 <0>         0.1551
     36 H14        -4.7574    2.4220    9.3620 H         1 <0>         0.1316
     37 H15        -5.9913    3.4387   11.2017 H         1 <0>         0.1296
     38 H16        -6.2764    5.8766   11.3278 H         1 <0>         0.1315
     39 H17        -5.3334    7.3355    9.6236 H         1 <0>         0.1365
     40 H18        -2.8668    6.6677    5.7833 H         1 <0>         0.1622
@<TRIPOS>BOND
     1    1    2 1
     2    1   23 1
     3    1   24 1
     4    1   25 1
     5    2    3 1
     6    2   26 1
     7    2   27 1
     8    3    4 1
     9    3   28 1
    10    3   29 1
    11    4    9 ar
    12    4    5 ar
    13    5    6 ar
    14    5   30 1
    15    6    7 ar
    16    6   31 1
    17    7    8 ar
    18    7   10 1
    19    8    9 ar
    20    8   32 1
    21    9   33 1
    22   10   11 2
    23   10   12 am
    24   12   13 1
    25   12   34 1
    26   13   22 ar
    27   13   14 ar
    28   14   15 ar
    29   14   35 1
    30   15   20 ar
    31   15   16 ar
    32   16   17 ar
    33   16   36 1
    34   17   18 ar
    35   17   37 1
    36   18   19 ar
    37   18   38 1
    38   19   20 ar
    39   19   39 1
    40   20   21 ar
    41   21   22 ar
    42   22   40 1
@<TRIPOS>MOLECULE
ZINC29052265
   38    39     0     0     0
SMALL
USER_CHARGES

@<TRIPOS>ATOM
      1 C1         -0.0486    1.5612    0.0236 C.3       1 <0>        -0.1547
      2 C2         -0.0195    0.0316    0.0082 C.3       1 <0>        -0.1255
      3 C3         -1.4519   -0.5059    0.0192 C.3       1 <0>        -0.1146
      4 C4         -1.4228   -2.0355    0.0039 C.3       1 <0>        -0.0880
      5 C5         -2.8337   -2.5649    0.0147 C.ar      1 <0>        -0.0493
      6 C6         -3.4669   -2.8133    1.2196 C.ar      1 <0>        -0.1249
      7 C7         -4.7584   -3.2980    1.2366 C.ar      1 <0>        -0.0518
      8 C8         -5.4264   -3.5377    0.0346 C.ar      1 <0>        -0.1446
      9 C9         -4.7818   -3.2850   -1.1775 C.ar      1 <0>        -0.0817
     10 C10        -3.4922   -2.7951   -1.1802 C.ar      1 <0>        -0.1249
     11 C11        -6.8101   -4.0575    0.0452 C.2       1 <0>         0.5608
     12 O1         -7.3688   -4.2770    1.1023 O.2       1 <0>        -0.5157
     13 N1         -7.4524   -4.2879   -1.1170 N.am      1 <0>        -0.6707
     14 C12        -8.7239   -4.8700   -1.1098 C.ar      1 <0>         0.1411
     15 C13        -9.0924   -5.7496   -2.1196 C.ar      1 <0>        -0.1449
     16 C14       -10.3487   -6.3232   -2.1093 C.ar      1 <0>        -0.1018
     17 C15       -11.2395   -6.0222   -1.0953 C.ar      1 <0>        -0.1333
     18 C16       -10.8759   -5.1465   -0.0887 C.ar      1 <0>        -0.1020
     19 C17        -9.6190   -4.5743   -0.0898 C.ar      1 <0>        -0.1204
     20 H1          0.9719    1.9441    0.0158 H         1 <0>         0.0549
     21 H2         -0.5793    1.9234   -0.8569 H         1 <0>         0.0539
     22 H3         -0.5591    1.9059    0.9229 H         1 <0>         0.0541
     23 H4          0.4910   -0.3131   -0.8910 H         1 <0>         0.0623
     24 H5          0.5113   -0.3306    0.8887 H         1 <0>         0.0626
     25 H6         -1.9624   -0.1612    0.9185 H         1 <0>         0.0648
     26 H7         -1.9826   -0.1437   -0.8613 H         1 <0>         0.0644
     27 H8         -0.9123   -2.3802   -0.8954 H         1 <0>         0.0764
     28 H9         -0.8921   -2.3977    0.8844 H         1 <0>         0.0769
     29 H10        -2.9488   -2.6277    2.1489 H         1 <0>         0.1315
     30 H11        -5.2514   -3.4918    2.1778 H         1 <0>         0.1378
     31 H12        -5.2930   -3.4687   -2.1109 H         1 <0>         0.1254
     32 H13        -2.9938   -2.5950   -2.1173 H         1 <0>         0.1303
     33 H14        -7.0326   -4.0500   -1.9585 H         1 <0>         0.4101
     34 H15        -8.3973   -5.9845   -2.9122 H         1 <0>         0.1251
     35 H16       -10.6358   -7.0072   -2.8942 H         1 <0>         0.1270
     36 H17       -12.2215   -6.4718   -1.0898 H         1 <0>         0.1241
     37 H18       -11.5741   -4.9132    0.7015 H         1 <0>         0.1265
     38 H19        -9.3340   -3.8939    0.6990 H         1 <0>         0.1389
@<TRIPOS>BOND
     1    1    2 1
     2    1   20 1
     3    1   21 1
     4    1   22 1
     5    2    3 1
     6    2   23 1
     7    2   24 1
     8    3    4 1
     9    3   25 1
    10    3   26 1
    11    4    5 1
    12    4   27 1
    13    4   28 1
    14    5   10 ar
    15    5    6 ar
    16    6    7 ar
    17    6   29 1
    18    7    8 ar
    19    7   30 1
    20    8    9 ar
    21    8   11 1
    22    9   10 ar
    23    9   31 1
    24   10   32 1
    25   11   12 2
    26   11   13 am
    27   13   14 1
    28   13   33 1
    29   14   19 ar
    30   14   15 ar
    31   15   16 ar
    32   15   34 1
    33   16   17 ar
    34   16   35 1
    35   17   18 ar
    36   17   36 1
    37   18   19 ar
    38   18   37 1
    39   19   38 1
@<TRIPOS>MOLECULE
ZINC01515561
   34    35     0     0     0
SMALL
USER_CHARGES
4-propyl-N-(3-pyridyl)benzamide
@<TRIPOS>ATOM
      1 C1         -0.1754   11.9671    0.8145 C.3       1 <0>        -0.1546
      2 C2         -0.1567   10.4410    0.9220 C.3       1 <0>        -0.1189
      3 C3         -0.0995    9.8317   -0.4802 C.3       1 <0>        -0.0886
      4 C4         -0.0810    8.3285   -0.3744 C.ar      1 <0>        -0.0483
      5 C5         -1.2717    7.6239   -0.3673 C.ar      1 <0>        -0.1250
      6 C6         -1.2619    6.2478   -0.2710 C.ar      1 <0>        -0.0509
      7 C7         -0.0470    5.5663   -0.1808 C.ar      1 <0>        -0.1460
      8 C8          1.1505    6.2836   -0.1827 C.ar      1 <0>        -0.0808
      9 C9          1.1267    7.6592   -0.2852 C.ar      1 <0>        -0.1247
     10 C10        -0.0288    4.0918   -0.0775 C.2       1 <0>         0.5629
     11 O1         -1.0734    3.4701   -0.0710 O.2       1 <0>        -0.5164
     12 N1          1.1458    3.4368    0.0096 N.am      1 <0>        -0.6659
     13 C11         1.1685    2.0383    0.0083 C.ar      1 <0>         0.0925
     14 C12         0.1477    1.3143    0.6202 C.ar      1 <0>        -0.0779
     15 C13         0.2144   -0.0688    0.5928 C.ar      1 <0>        -0.1519
     16 C14         1.2830   -0.6811   -0.0358 C.ar      1 <0>         0.0826
     17 N2          2.2338    0.0330   -0.6056 N.ar      1 <0>        -0.4658
     18 C15         2.2091    1.3510   -0.6024 C.ar      1 <0>         0.0790
     19 H1         -1.0511   12.2806    0.2462 H         1 <0>         0.0556
     20 H2         -0.2162   12.4013    1.8135 H         1 <0>         0.0568
     21 H3          0.7276   12.3068    0.3074 H         1 <0>         0.0555
     22 H4         -1.0597   10.1014    1.4292 H         1 <0>         0.0644
     23 H5          0.7190   10.1276    1.4904 H         1 <0>         0.0640
     24 H6          0.8036   10.1713   -0.9874 H         1 <0>         0.0769
     25 H7         -0.9751   10.1452   -1.0486 H         1 <0>         0.0771
     26 H8         -2.2110    8.1524   -0.4375 H         1 <0>         0.1320
     27 H9         -2.1920    5.6989   -0.2659 H         1 <0>         0.1379
     28 H10         2.0936    5.7627   -0.1082 H         1 <0>         0.1262
     29 H11         2.0526    8.2151   -0.2913 H         1 <0>         0.1311
     30 H12         1.9755    3.9353    0.0730 H         1 <0>         0.4132
     31 H13        -0.6752    1.8191    1.1043 H         1 <0>         0.1499
     32 H14        -0.5592   -0.6623    1.0573 H         1 <0>         0.1405
     33 H15         1.3399   -1.7593   -0.0601 H         1 <0>         0.1596
     34 H16         3.0084    1.9018   -1.0758 H         1 <0>         0.1575
@<TRIPOS>BOND
     1    1    2 1
     2    1   19 1
     3    1   20 1
     4    1   21 1
     5    2    3 1
     6    2   22 1
     7    2   23 1
     8    3    4 1
     9    3   24 1
    10    3   25 1
    11    4    9 ar
    12    4    5 ar
    13    5    6 ar
    14    5   26 1
    15    6    7 ar
    16    6   27 1
    17    7    8 ar
    18    7   10 1
    19    8    9 ar
    20    8   28 1
    21    9   29 1
    22   10   11 2
    23   10   12 am
    24   12   13 1
    25   12   30 1
    26   13   18 ar
    27   13   14 ar
    28   14   15 ar
    29   14   31 1
    30   15   16 ar
    31   15   32 1
    32   16   17 ar
    33   16   33 1
    34   17   18 ar
    35   18   34 1
@<TRIPOS>MOLECULE
ZINC01530575
   49    49     0     0     0
SMALL
USER_CHARGES

@<TRIPOS>ATOM
      1 C1         -0.0187    1.5258    0.0104 C.3       1 <0>        -0.1444
      2 C2          0.0021   -0.0041    0.0020 C.3       1 <0>        -0.0691
      3 C3          0.7421   -0.5109    1.2415 C.3       1 <0>        -0.1450
      4 C4         -1.4117   -0.5257    0.0127 C.2       1 <0>        -0.1524
      5 C5         -1.8393   -1.2793   -0.9698 C.2       1 <0>        -0.1586
      6 C6         -3.2531   -1.8009   -0.9591 C.3       1 <0>        -0.0916
      7 C7         -3.9550   -1.3985   -2.2577 C.3       1 <0>        -0.1146
      8 C8         -5.3904   -1.9281   -2.2468 C.3       1 <0>        -0.1056
      9 C9         -6.0923   -1.5257   -3.5454 C.3       1 <0>        -0.1403
     10 C10        -7.5061   -2.0473   -3.5347 C.2       1 <0>         0.5114
     11 O1         -7.9123   -2.6787   -2.5822 O.2       1 <0>        -0.5370
     12 N1         -8.3191   -1.8121   -4.5836 N.am      1 <0>        -0.7303
     13 C11        -9.6935   -2.3191   -4.5732 C.3       1 <0>         0.1606
     14 C12       -10.3849   -1.9228   -5.8522 C.ar      1 <0>        -0.0792
     15 C13       -11.0675   -0.7226   -5.9240 C.ar      1 <0>        -0.1210
     16 C14       -11.7033   -0.3545   -7.0950 C.ar      1 <0>        -0.1070
     17 C15       -11.6570   -1.1889   -8.2003 C.ar      1 <0>         0.0836
     18 C16       -10.9696   -2.3966   -8.1282 C.ar      1 <0>         0.1025
     19 C17       -10.3304   -2.7574   -6.9529 C.ar      1 <0>        -0.1769
     20 O2        -10.9212   -3.2189   -9.2103 O.3       1 <0>        -0.3064
     21 C18       -10.1976   -4.4423   -9.0637 C.3       1 <0>         0.0238
     22 O3        -12.2823   -0.8284   -9.3529 O.3       1 <0>        -0.4858
     23 H1          1.0039    1.9031    0.0027 H         1 <0>         0.0561
     24 H2         -0.5459    1.8868   -0.8726 H         1 <0>         0.0545
     25 H3         -0.5289    1.8773    0.9072 H         1 <0>         0.0554
     26 H4          0.5123   -0.3556   -0.8948 H         1 <0>         0.0710
     27 H5          0.2319   -0.1594    2.1383 H         1 <0>         0.0555
     28 H6          0.7568   -1.6008    1.2356 H         1 <0>         0.0547
     29 H7          1.7647   -0.1336    1.2338 H         1 <0>         0.0561
     30 H8         -2.0724   -0.2782    0.8304 H         1 <0>         0.1074
     31 H9         -1.1786   -1.5268   -1.7875 H         1 <0>         0.1068
     32 H10        -3.2388   -2.8876   -0.8755 H         1 <0>         0.0716
     33 H11        -3.7899   -1.3782   -0.1099 H         1 <0>         0.0663
     34 H12        -3.9693   -0.3118   -2.3413 H         1 <0>         0.0634
     35 H13        -3.4182   -1.8212   -3.1069 H         1 <0>         0.0633
     36 H14        -5.3761   -3.0148   -2.1632 H         1 <0>         0.0704
     37 H15        -5.9272   -1.5054   -1.3976 H         1 <0>         0.0704
     38 H16        -6.1066   -0.4390   -3.6290 H         1 <0>         0.0942
     39 H17        -5.5555   -1.9484   -4.3946 H         1 <0>         0.0936
     40 H18        -7.9943   -1.3070   -5.3453 H         1 <0>         0.4023
     41 H19        -9.6793   -3.4058   -4.4896 H         1 <0>         0.0770
     42 H20       -10.2304   -1.8964   -3.7239 H         1 <0>         0.0803
     43 H21       -11.1044   -0.0714   -5.0632 H         1 <0>         0.1321
     44 H22       -12.2365    0.5832   -7.1482 H         1 <0>         0.1400
     45 H23        -9.7930   -3.6924   -6.8955 H         1 <0>         0.1348
     46 H24       -10.6439   -5.0350   -8.2652 H         1 <0>         0.0573
     47 H25       -10.2377   -5.0024   -9.9979 H         1 <0>         0.1037
     48 H26        -9.1590   -4.2227   -8.8161 H         1 <0>         0.0561
     49 H27       -11.7264   -0.3208   -9.9598 H         1 <0>         0.3893
@<TRIPOS>BOND
     1    1    2 1
     2    1   23 1
     3    1   24 1
     4    1   25 1
     5    2    3 1
     6    2    4 1
     7    2   26 1
     8    3   27 1
     9    3   28 1
    10    3   29 1
    11    4    5 2
    12    4   30 1
    13    5    6 1
    14    5   31 1
    15    6    7 1
    16    6   32 1
    17    6   33 1
    18    7    8 1
    19    7   34 1
    20    7   35 1
    21    8    9 1
    22    8   36 1
    23    8   37 1
    24    9   10 1
    25    9   38 1
    26    9   39 1
    27   10   11 2
    28   10   12 am
    29   12   13 1
    30   12   40 1
    31   13   14 1
    32   13   41 1
    33   13   42 1
    34   14   19 ar
    35   14   15 ar
    36   15   16 ar
    37   15   43 1
    38   16   17 ar
    39   16   44 1
    40   17   18 ar
    41   17   22 1
    42   18   19 ar
    43   18   20 1
    44   19   45 1
    45   20   21 1
    46   21   46 1
    47   21   47 1
    48   21   48 1
    49   22   49 1
@<TRIPOS>MOLECULE
ZINC03128742
   40    41     0     0     0
SMALL
USER_CHARGES
4-pentyl-N-(3-pyridyl)benzamide
@<TRIPOS>ATOM
      1 C1         -0.2514   14.1026    2.1093 C.3       1 <0>        -0.1546
      2 C2         -0.2327   12.5765    2.2168 C.3       1 <0>        -0.1260
      3 C3         -0.1754   11.9671    0.8145 C.3       1 <0>        -0.1211
      4 C4         -0.1567   10.4410    0.9220 C.3       1 <0>        -0.1144
      5 C5         -0.0995    9.8317   -0.4802 C.3       1 <0>        -0.0881
      6 C6         -0.0810    8.3285   -0.3744 C.ar      1 <0>        -0.0476
      7 C7         -1.2717    7.6239   -0.3673 C.ar      1 <0>        -0.1248
      8 C8         -1.2619    6.2478   -0.2710 C.ar      1 <0>        -0.0509
      9 C9         -0.0470    5.5663   -0.1808 C.ar      1 <0>        -0.1459
     10 C10         1.1505    6.2836   -0.1827 C.ar      1 <0>        -0.0808
     11 C11         1.1267    7.6592   -0.2852 C.ar      1 <0>        -0.1245
     12 C12        -0.0288    4.0918   -0.0775 C.2       1 <0>         0.5629
     13 O1         -1.0734    3.4701   -0.0710 O.2       1 <0>        -0.5164
     14 N1          1.1458    3.4368    0.0096 N.am      1 <0>        -0.6659
     15 C13         1.1685    2.0383    0.0083 C.ar      1 <0>         0.0925
     16 C14         0.1477    1.3143    0.6202 C.ar      1 <0>        -0.0779
     17 C15         0.2144   -0.0688    0.5928 C.ar      1 <0>        -0.1519
     18 C16         1.2830   -0.6811   -0.0358 C.ar      1 <0>         0.0826
     19 N2          2.2338    0.0330   -0.6056 N.ar      1 <0>        -0.4658
     20 C17         2.2091    1.3510   -0.6024 C.ar      1 <0>         0.0790
     21 H1         -1.1271   14.4161    1.5409 H         1 <0>         0.0538
     22 H2         -0.2922   14.5367    3.1083 H         1 <0>         0.0540
     23 H3          0.6516   14.4423    1.6021 H         1 <0>         0.0537
     24 H4         -1.1357   12.2369    2.7240 H         1 <0>         0.0610
     25 H5          0.6430   12.2630    2.7852 H         1 <0>         0.0608
     26 H6          0.7276   12.3068    0.3074 H         1 <0>         0.0628
     27 H7         -1.0511   12.2806    0.2462 H         1 <0>         0.0630
     28 H8         -1.0597   10.1014    1.4292 H         1 <0>         0.0648
     29 H9          0.7190   10.1276    1.4904 H         1 <0>         0.0644
     30 H10         0.8036   10.1713   -0.9874 H         1 <0>         0.0768
     31 H11        -0.9751   10.1452   -1.0486 H         1 <0>         0.0770
     32 H12        -2.2110    8.1524   -0.4375 H         1 <0>         0.1319
     33 H13        -2.1920    5.6989   -0.2659 H         1 <0>         0.1378
     34 H14         2.0936    5.7627   -0.1082 H         1 <0>         0.1261
     35 H15         2.0526    8.2151   -0.2913 H         1 <0>         0.1310
     36 H16         1.9755    3.9353    0.0730 H         1 <0>         0.4132
     37 H17        -0.6752    1.8191    1.1043 H         1 <0>         0.1499
     38 H18        -0.5592   -0.6623    1.0573 H         1 <0>         0.1404
     39 H19         1.3399   -1.7593   -0.0601 H         1 <0>         0.1596
     40 H20         3.0084    1.9018   -1.0758 H         1 <0>         0.1575
@<TRIPOS>BOND
     1    1    2 1
     2    1   21 1
     3    1   22 1
     4    1   23 1
     5    2    3 1
     6    2   24 1
     7    2   25 1
     8    3    4 1
     9    3   26 1
    10    3   27 1
    11    4    5 1
    12    4   28 1
    13    4   29 1
    14    5    6 1
    15    5   30 1
    16    5   31 1
    17    6   11 ar
    18    6    7 ar
    19    7    8 ar
    20    7   32 1
    21    8    9 ar
    22    8   33 1
    23    9   10 ar
    24    9   12 1
    25   10   11 ar
    26   10   34 1
    27   11   35 1
    28   12   13 2
    29   12   14 am
    30   14   15 1
    31   14   36 1
    32   15   20 ar
    33   15   16 ar
    34   16   17 ar
    35   16   37 1
    36   17   18 ar
    37   17   38 1
    38   18   19 ar
    39   18   39 1
    40   19   20 ar
    41   20   40 1
@<TRIPOS>MOLECULE
ZINC01491591
   53    54     0     0     0
SMALL
USER_CHARGES

@<TRIPOS>ATOM
      1 C1         -0.0187    1.5258    0.0104 C.3       1 <0>        -0.1396
      2 C2          0.0021   -0.0041    0.0020 C.3       1 <0>        -0.0320
      3 C3          0.7421   -0.5109    1.2415 C.3       1 <0>        -0.1389
      4 C4         -1.4333   -0.5336    0.0129 C.3       1 <0>        -0.1453
      5 C5          0.7074   -0.4901   -1.2379 C.ar      1 <0>        -0.0600
      6 C6          0.0361   -1.2843   -2.1485 C.ar      1 <0>        -0.1243
      7 C7          0.6831   -1.7301   -3.2859 C.ar      1 <0>        -0.0944
      8 C8          2.0014   -1.3813   -3.5127 C.ar      1 <0>        -0.1182
      9 C9          2.6724   -0.5863   -2.6025 C.ar      1 <0>        -0.0942
     10 C10         2.0241   -0.1370   -1.4673 C.ar      1 <0>        -0.1184
     11 C11         2.7070   -1.8681   -4.7521 C.3       1 <0>         0.1716
     12 N1          2.5202   -0.8976   -5.8335 N.pl3     1 <0>        -0.6889
     13 C12         3.0665   -1.1245   -7.0445 C.2       1 <0>         0.5618
     14 S1          3.9790   -2.5468   -7.3190 S.2       1 <0>        -0.6615
     15 N2          2.8946   -0.2316   -8.0393 N.pl3     1 <0>        -0.6696
     16 C13         3.4885   -0.4782   -9.3556 C.3       1 <0>         0.1870
     17 C14         3.1504    0.6621  -10.2810 C.ar      1 <0>        -0.2157
     18 C15         1.9970    0.6139  -11.0422 C.ar      1 <0>        -0.0609
     19 C16         1.6834    1.6569  -11.8921 C.ar      1 <0>        -0.1714
     20 C17         2.5273    2.7556  -11.9818 C.ar      1 <0>         0.2755
     21 C18         3.6865    2.8022  -11.2149 C.ar      1 <0>        -0.0599
     22 C19         3.9913    1.7569  -10.3625 C.ar      1 <0>        -0.0741
     23 F1          4.5111    3.8691  -11.2991 F         1 <0>        -0.1371
     24 N3          2.2126    3.8127  -12.8415 N.2       1 <0>        -1.0959
     25 S2          3.2207    5.1223  -12.9470 S.o2      1 <0>         2.5421
     26 O1          3.1853    5.7120  -11.6546 O.2       1 <0>        -1.0243
     27 O2          4.4344    4.6041  -13.4739 O.2       1 <0>        -1.0223
     28 C20         2.4329    6.2207  -14.1568 C.3       1 <0>        -0.6487
     29 H1          1.0039    1.9031    0.0027 H         1 <0>         0.0575
     30 H2         -0.5459    1.8868   -0.8726 H         1 <0>         0.0572
     31 H3         -0.5289    1.8773    0.9072 H         1 <0>         0.0588
     32 H4          0.2319   -0.1594    2.1383 H         1 <0>         0.0586
     33 H5          0.7568   -1.6008    1.2356 H         1 <0>         0.0568
     34 H6          1.7647   -0.1336    1.2338 H         1 <0>         0.0574
     35 H7         -1.9605   -0.1726   -0.8702 H         1 <0>         0.0593
     36 H8         -1.4185   -1.6235    0.0069 H         1 <0>         0.0591
     37 H9         -1.9435   -0.1821    0.9097 H         1 <0>         0.0584
     38 H10        -0.9938   -1.5568   -1.9713 H         1 <0>         0.1281
     39 H11         0.1588   -2.3512   -3.9970 H         1 <0>         0.1247
     40 H12         3.7024   -0.3141   -2.7796 H         1 <0>         0.1247
     41 H13         2.5473    0.4872   -0.7580 H         1 <0>         0.1224
     42 H14         3.7711   -1.9799   -4.5441 H         1 <0>         0.0923
     43 H15         2.2923   -2.8305   -5.0520 H         1 <0>         0.0926
     44 H16         2.0032   -0.0917   -5.6780 H         1 <0>         0.3969
     45 H17         2.3776    0.5743   -7.8838 H         1 <0>         0.3989
     46 H18         4.5712   -0.5571   -9.2568 H         1 <0>         0.0859
     47 H19         3.0924   -1.4077   -9.7646 H         1 <0>         0.0887
     48 H20         1.3405   -0.2408  -10.9724 H         1 <0>         0.1125
     49 H21         0.7825    1.6174  -12.4865 H         1 <0>         0.1223
     50 H22         4.8891    1.7934   -9.7633 H         1 <0>         0.1150
     51 H23         1.4419    6.5023  -13.8006 H         1 <0>         0.1135
     52 H24         3.0411    7.1162  -14.2845 H         1 <0>         0.1018
     53 H25         2.3423    5.7037  -15.1120 H         1 <0>         0.1140
@<TRIPOS>BOND
     1    1    2 1
     2    1   29 1
     3    1   30 1
     4    1   31 1
     5    2    3 1
     6    2    4 1
     7    2    5 1
     8    3   32 1
     9    3   33 1
    10    3   34 1
    11    4   35 1
    12    4   36 1
    13    4   37 1
    14    5   10 ar
    15    5    6 ar
    16    6    7 ar
    17    6   38 1
    18    7    8 ar
    19    7   39 1
    20    8    9 ar
    21    8   11 1
    22    9   10 ar
    23    9   40 1
    24   10   41 1
    25   11   12 1
    26   11   42 1
    27   11   43 1
    28   12   13 1
    29   12   44 1
    30   13   14 2
    31   13   15 1
    32   15   16 1
    33   15   45 1
    34   16   17 1
    35   16   46 1
    36   16   47 1
    37   17   22 ar
    38   17   18 ar
    39   18   19 ar
    40   18   48 1
    41   19   20 ar
    42   19   49 1
    43   20   21 ar
    44   20   24 1
    45   21   22 ar
    46   21   23 1
    47   22   50 1
    48   24   25 1
    49   25   26 2
    50   25   27 2
    51   25   28 1
    52   28   51 1
    53   28   52 1
    54   28   53 1
@<TRIPOS>MOLECULE
ZINC01491591
   53    54     0     0     0
SMALL
USER_CHARGES

@<TRIPOS>ATOM
      1 C1         -0.0187    1.5258    0.0104 C.3       1 <0>        -0.1391
      2 C2          0.0021   -0.0041    0.0020 C.3       1 <0>        -0.0320
      3 C3          0.7421   -0.5109    1.2415 C.3       1 <0>        -0.1393
      4 C4         -1.4333   -0.5336    0.0129 C.3       1 <0>        -0.1457
      5 C5          0.7074   -0.4901   -1.2379 C.ar      1 <0>        -0.0591
      6 C6          0.0361   -1.2843   -2.1485 C.ar      1 <0>        -0.1228
      7 C7          0.6831   -1.7301   -3.2859 C.ar      1 <0>        -0.0934
      8 C8          2.0014   -1.3813   -3.5127 C.ar      1 <0>        -0.1124
      9 C9          2.6724   -0.5863   -2.6025 C.ar      1 <0>        -0.0934
     10 C10         2.0241   -0.1370   -1.4673 C.ar      1 <0>        -0.1174
     11 C11         2.7070   -1.8681   -4.7521 C.3       1 <0>         0.1341
     12 N1          2.5202   -0.8976   -5.8335 N.pl3     1 <0>        -0.6922
     13 C12         3.0740   -1.1276   -7.0610 C.cat     1 <0>         0.5483
     14 N2          3.8022   -2.2628   -7.2801 N.pl3     1 <0>        -0.6770
     15 C13         4.3961   -2.5094   -8.5964 C.3       1 <0>         0.1871
     16 C14         5.1416   -3.8189   -8.5738 C.ar      1 <0>        -0.2146
     17 C15         6.4770   -3.8462   -8.2161 C.ar      1 <0>        -0.0612
     18 C16         7.1643   -5.0444   -8.1944 C.ar      1 <0>        -0.1711
     19 C17         6.5132   -6.2231   -8.5320 C.ar      1 <0>         0.2752
     20 C18         5.1699   -6.1934   -8.8911 C.ar      1 <0>        -0.0597
     21 C19         4.4870   -4.9910   -8.9055 C.ar      1 <0>        -0.0745
     22 F1          4.5322   -7.3378   -9.2208 F         1 <0>        -0.1371
     23 N3          7.2065   -7.4375   -8.5114 N.2       1 <0>        -1.0960
     24 S1          6.4279   -8.8423   -8.9145 S.o2      1 <0>         2.5421
     25 O1          5.4296   -9.0029   -7.9160 O.2       1 <0>        -1.0243
     26 O2          6.0677   -8.6786  -10.2793 O.2       1 <0>        -1.0224
     27 C20         7.6881  -10.1369   -8.7519 C.3       1 <0>        -0.6488
     28 S2          2.8623   -0.0279   -8.2863 S.3       1 <0>        -0.6137
     29 H1          1.0039    1.9031    0.0027 H         1 <0>         0.0575
     30 H2         -0.5459    1.8868   -0.8726 H         1 <0>         0.0572
     31 H3         -0.5289    1.8773    0.9072 H         1 <0>         0.0588
     32 H4          0.2319   -0.1594    2.1383 H         1 <0>         0.0588
     33 H5          0.7568   -1.6008    1.2356 H         1 <0>         0.0571
     34 H6          1.7647   -0.1336    1.2338 H         1 <0>         0.0575
     35 H7         -1.9605   -0.1726   -0.8702 H         1 <0>         0.0595
     36 H8         -1.4185   -1.6235    0.0069 H         1 <0>         0.0594
     37 H9         -1.9435   -0.1821    0.9097 H         1 <0>         0.0586
     38 H10        -0.9938   -1.5568   -1.9713 H         1 <0>         0.1288
     39 H11         0.1588   -2.3512   -3.9970 H         1 <0>         0.1247
     40 H12         3.7024   -0.3141   -2.7796 H         1 <0>         0.1246
     41 H13         2.5473    0.4872   -0.7580 H         1 <0>         0.1232
     42 H14         3.7711   -1.9799   -4.5441 H         1 <0>         0.0810
     43 H15         2.2923   -2.8305   -5.0520 H         1 <0>         0.0808
     44 H16         3.9260   -2.9054   -6.5641 H         1 <0>         0.3976
     45 H17         3.6081   -2.5529   -9.3482 H         1 <0>         0.0842
     46 H18         5.0869   -1.7022   -8.8404 H         1 <0>         0.0870
     47 H19         6.9836   -2.9293   -7.9535 H         1 <0>         0.1124
     48 H20         8.2075   -5.0640   -7.9155 H         1 <0>         0.1222
     49 H21         3.4428   -4.9668   -9.1802 H         1 <0>         0.1149
     50 H22         8.0555  -10.1596   -7.7259 H         1 <0>         0.1135
     51 H23         7.2507  -11.1033   -9.0026 H         1 <0>         0.1018
     52 H24         8.5154   -9.9258   -9.4294 H         1 <0>         0.1140
     53 H25         2.0032   -0.0917   -5.6780 H         1 <0>         0.4255
@<TRIPOS>BOND
     1    1    2 1
     2    1   29 1
     3    1   30 1
     4    1   31 1
     5    2    3 1
     6    2    4 1
     7    2    5 1
     8    3   32 1
     9    3   33 1
    10    3   34 1
    11    4   35 1
    12    4   36 1
    13    4   37 1
    14    5   10 ar
    15    5    6 ar
    16    6    7 ar
    17    6   38 1
    18    7    8 ar
    19    7   39 1
    20    8    9 ar
    21    8   11 1
    22    9   10 ar
    23    9   40 1
    24   10   41 1
    25   11   12 1
    26   11   42 1
    27   11   43 1
    28   12   13 2
    29   12   53 1
    30   13   14 1
    31   13   28 1
    32   14   15 1
    33   14   44 1
    34   15   16 1
    35   15   45 1
    36   15   46 1
    37   16   21 ar
    38   16   17 ar
    39   17   18 ar
    40   17   47 1
    41   18   19 ar
    42   18   48 1
    43   19   20 ar
    44   19   23 1
    45   20   21 ar
    46   20   22 1
    47   21   49 1
    48   23   24 1
    49   24   25 2
    50   24   26 2
    51   24   27 1
    52   27   50 1
    53   27   51 1
    54   27   52 1
@<TRIPOS>MOLECULE
ZINC03871859
   46    48     0     0     0
SMALL
USER_CHARGES

@<TRIPOS>ATOM
      1 C1         -0.0167    1.3782    0.0096 C.ar      1 <0>        -0.0978
      2 C2          1.1706    2.0858    0.0021 C.ar      1 <0>        -0.1073
      3 C3          2.3780    1.4104   -0.0130 C.ar      1 <0>        -0.0335
      4 C4          2.3961    0.0270   -0.0206 C.ar      1 <0>        -0.1077
      5 C5          1.2082   -0.6795   -0.0130 C.ar      1 <0>        -0.0983
      6 C6          0.0021   -0.0041    0.0020 C.ar      1 <0>        -0.0787
      7 C7         -1.2928   -0.7750    0.0107 C.3       1 <0>        -0.0942
      8 C8         -1.7453   -1.0281   -1.4288 C.3       1 <0>         0.1287
      9 N1         -3.0041   -1.7775   -1.4203 N.pl3     1 <0>        -0.6841
     10 C9         -3.5946   -2.1160   -2.5836 C.2       1 <0>         0.5688
     11 S1         -2.8738   -1.6701   -4.0711 S.2       1 <0>        -0.6385
     12 N2         -4.7527   -2.8054   -2.5758 N.pl3     1 <0>        -0.5632
     13 C10        -5.4128   -3.1916   -3.8109 C.3       1 <0>         0.1050
     14 C11        -6.9316   -3.1963   -3.5641 C.3       1 <0>        -0.1344
     15 C12        -7.3680   -1.7904   -3.1635 C.3       1 <0>        -0.0843
     16 C13        -7.2582   -1.5434   -1.6776 C.ar      1 <0>        -0.0435
     17 C14        -8.1825   -0.6474   -1.1397 C.ar      1 <0>        -0.1355
     18 C15        -8.1493   -0.3091    0.1977 C.ar      1 <0>         0.0944
     19 C16        -7.1765   -0.8607    1.0269 C.ar      1 <0>         0.0804
     20 C17        -6.2708   -1.7620    0.4988 C.ar      1 <0>        -0.1215
     21 C18        -6.3295   -2.1193   -0.8412 C.ar      1 <0>        -0.1062
     22 C19        -5.3969   -3.2030   -1.3215 C.3       1 <0>         0.1341
     23 O1         -7.1175   -0.5166    2.3412 O.3       1 <0>        -0.4848
     24 O2         -9.0643    0.5602    0.7043 O.3       1 <0>        -0.4872
     25 Cl1         3.8696    2.2984   -0.0231 Cl        1 <0>        -0.0677
     26 H1         -0.9592    1.9053    0.0259 H         1 <0>         0.1329
     27 H2          1.1558    3.1656    0.0076 H         1 <0>         0.1353
     28 H3          3.3383   -0.5007   -0.0327 H         1 <0>         0.1353
     29 H4          1.2222   -1.7594   -0.0193 H         1 <0>         0.1328
     30 H5         -1.1447   -1.7283    0.5180 H         1 <0>         0.0819
     31 H6         -2.0551   -0.1989    0.5352 H         1 <0>         0.0825
     32 H7         -1.8934   -0.0748   -1.9361 H         1 <0>         0.0905
     33 H8         -0.9830   -1.6042   -1.9533 H         1 <0>         0.0911
     34 H9         -3.4125   -2.0301   -0.5776 H         1 <0>         0.3953
     35 H10        -5.1703   -2.4762   -4.5966 H         1 <0>         0.1166
     36 H11        -5.0854   -4.1883   -4.1066 H         1 <0>         0.0801
     37 H12        -7.4492   -3.4936   -4.4761 H         1 <0>         0.0948
     38 H13        -7.1694   -3.8951   -2.7621 H         1 <0>         0.0739
     39 H14        -6.7440   -1.0661   -3.6872 H         1 <0>         0.0861
     40 H15        -8.4042   -1.6437   -3.4685 H         1 <0>         0.0813
     41 H16        -8.9357   -0.2122   -1.7797 H         1 <0>         0.1355
     42 H17        -5.5111   -2.1921    1.1346 H         1 <0>         0.1338
     43 H18        -5.9643   -4.1194   -1.4842 H         1 <0>         0.1125
     44 H19        -4.6316   -3.3849   -0.5670 H         1 <0>         0.0845
     45 H20        -7.6469   -1.0822    2.9200 H         1 <0>         0.3895
     46 H21        -9.8682    0.1366    1.0350 H         1 <0>         0.3908
@<TRIPOS>BOND
     1    1    6 ar
     2    1    2 ar
     3    1   26 1
     4    2    3 ar
     5    2   27 1
     6    3    4 ar
     7    3   25 1
     8    4    5 ar
     9    4   28 1
    10    5    6 ar
    11    5   29 1
    12    6    7 1
    13    7    8 1
    14    7   30 1
    15    7   31 1
    16    8    9 1
    17    8   32 1
    18    8   33 1
    19    9   10 1
    20    9   34 1
    21   10   11 2
    22   10   12 1
    23   12   22 1
    24   12   13 1
    25   13   14 1
    26   13   35 1
    27   13   36 1
    28   14   15 1
    29   14   37 1
    30   14   38 1
    31   15   16 1
    32   15   39 1
    33   15   40 1
    34   16   21 ar
    35   16   17 ar
    36   17   18 ar
    37   17   41 1
    38   18   19 ar
    39   18   24 1
    40   19   20 ar
    41   19   23 1
    42   20   21 ar
    43   20   42 1
    44   21   22 1
    45   22   43 1
    46   22   44 1
    47   23   45 1
    48   24   46 1
@<TRIPOS>MOLECULE
ZINC27109670
   51    53     0     0     0
SMALL
USER_CHARGES
N-(4-tert-butylphenyl)-4-(3-chloro-2-pyridyl)piperazine-1-carboxamide
@<TRIPOS>ATOM
      1 C1         -5.0265    4.2278    2.3784 C.3       1 <0>        -0.1402
      2 C2         -4.3862    4.5493    1.0265 C.3       1 <0>        -0.0270
      3 C3         -3.9301    6.0097    1.0127 C.3       1 <0>        -0.1469
      4 C4         -5.4090    4.3239   -0.0888 C.3       1 <0>        -0.1398
      5 C5         -3.1972    3.6497    0.8072 C.ar      1 <0>        -0.0935
      6 C6         -3.3661    2.2775    0.7799 C.ar      1 <0>        -0.0934
      7 C7         -2.2783    1.4503    0.5795 C.ar      1 <0>        -0.1548
      8 C8         -1.0142    1.9980    0.4049 C.ar      1 <0>         0.1642
      9 C9         -0.8472    3.3761    0.4381 C.ar      1 <0>        -0.1449
     10 C10        -1.9398    4.1982    0.6331 C.ar      1 <0>        -0.0992
     11 N1          0.0899    1.1625    0.2016 N.am      1 <0>        -0.6944
     12 C11         1.3317    1.6079    0.4772 C.2       1 <0>         0.7123
     13 O1          1.5116    2.7801    0.7456 O.2       1 <0>        -0.5684
     14 N2          2.3742    0.7540    0.4553 N.am      1 <0>        -0.6277
     15 C12         2.2091   -0.6268   -0.0238 C.3       1 <0>         0.1174
     16 C13         3.2932   -0.9043   -1.0773 C.3       1 <0>         0.0479
     17 N3          4.6122   -0.5987   -0.5073 N.pl3     1 <0>        -0.4766
     18 C14         4.7296    0.8260   -0.1694 C.3       1 <0>         0.0487
     19 C15         3.7058    1.1763    0.9156 C.3       1 <0>         0.1316
     20 C16         5.6306   -0.9922   -1.3687 C.ar      1 <0>         0.3051
     21 C17         6.2162   -2.2465   -1.2177 C.ar      1 <0>        -0.0686
     22 C18         7.2285   -2.6245   -2.0821 C.ar      1 <0>        -0.0604
     23 C19         7.6224   -1.7328   -3.0714 C.ar      1 <0>        -0.1655
     24 C20         6.9981   -0.5055   -3.1632 C.ar      1 <0>         0.1171
     25 N4          6.0312   -0.1732   -2.3283 N.ar      1 <0>        -0.4975
     26 Cl1         5.6832   -3.3212    0.0371 Cl        1 <0>        -0.0372
     27 H1         -5.3544    3.1779    2.3884 H         1 <0>         0.0563
     28 H2         -5.8943    4.8845    2.5385 H         1 <0>         0.0580
     29 H3         -4.2911    4.3899    3.1802 H         1 <0>         0.0565
     30 H4         -3.4698    6.2409    0.0408 H         1 <0>         0.0590
     31 H5         -3.1947    6.1717    1.8146 H         1 <0>         0.0592
     32 H6         -4.7979    6.6664    1.1729 H         1 <0>         0.0580
     33 H7         -4.9486    4.5551   -1.0607 H         1 <0>         0.0563
     34 H8         -6.2768    4.9806    0.0713 H         1 <0>         0.0579
     35 H9         -5.7369    3.2740   -0.0788 H         1 <0>         0.0563
     36 H10        -4.3494    1.8522    0.9158 H         1 <0>         0.1224
     37 H11        -2.4108    0.3787    0.5584 H         1 <0>         0.1213
     38 H12         0.1354    3.8049    0.3074 H         1 <0>         0.1634
     39 H13        -1.8113    5.2703    0.6546 H         1 <0>         0.1271
     40 H14        -0.0558    0.1423   -0.1831 H         1 <0>         0.4249
     41 H15         2.3166   -1.3233    0.8208 H         1 <0>         0.0870
     42 H16         1.2105   -0.7431   -0.4702 H         1 <0>         0.0839
     43 H17         3.2554   -1.9634   -1.3721 H         1 <0>         0.0926
     44 H18         3.1174   -0.2716   -1.9598 H         1 <0>         0.0544
     45 H19         5.7443    1.0324    0.2019 H         1 <0>         0.0905
     46 H20         4.5370    1.4327   -1.0665 H         1 <0>         0.0628
     47 H21         3.7048    2.2617    1.0942 H         1 <0>         0.1052
     48 H22         3.9545    0.6513    1.8497 H         1 <0>         0.0782
     49 H23         7.7013   -3.5911   -1.9898 H         1 <0>         0.1492
     50 H24         8.4093   -1.9974   -3.7623 H         1 <0>         0.1472
     51 H25         7.3013    0.1904   -3.9314 H         1 <0>         0.1641
@<TRIPOS>BOND
     1    1    2 1
     2    1   27 1
     3    1   28 1
     4    1   29 1
     5    2    3 1
     6    2    4 1
     7    2    5 1
     8    3   30 1
     9    3   31 1
    10    3   32 1
    11    4   33 1
    12    4   34 1
    13    4   35 1
    14    5   10 ar
    15    5    6 ar
    16    6    7 ar
    17    6   36 1
    18    7    8 ar
    19    7   37 1
    20    8    9 ar
    21    8   11 1
    22    9   10 ar
    23    9   38 1
    24   10   39 1
    25   11   12 am
    26   11   40 1
    27   12   13 2
    28   12   14 am
    29   14   19 1
    30   14   15 1
    31   15   16 1
    32   15   41 1
    33   15   42 1
    34   16   17 1
    35   16   43 1
    36   16   44 1
    37   17   18 1
    38   17   20 1
    39   18   19 1
    40   18   45 1
    41   18   46 1
    42   19   47 1
    43   19   48 1
    44   20   25 ar
    45   20   21 ar
    46   21   22 ar
    47   21   26 1
    48   22   23 ar
    49   22   49 1
    50   23   24 ar
    51   23   50 1
    52   24   25 ar
    53   24   51 1
