@<TRIPOS>MOLECULE
ZINC49793264
   74    83     0     0     0
SMALL
USER_CHARGES

@<TRIPOS>ATOM
      1 C1         -0.8364    1.4407   -0.9812 C.3       1 <0>         0.0816
      2 N1         -0.6165    0.0131   -0.7362 N.am      1 <0>        -0.6029
      3 C2         -0.4496   -0.8532   -1.7779 C.2       1 <0>         0.5204
      4 O1         -0.4818   -0.4852   -2.9331 O.2       1 <0>        -0.4369
      5 C3         -0.2212   -2.3020   -1.4017 C.3       1 <0>         0.1755
      6 C4          0.2753   -3.1670   -2.5328 C.3       1 <0>        -0.0887
      7 C5          1.6024   -3.7849   -2.0554 C.3       1 <0>         0.0101
      8 C6          1.4272   -5.2594   -1.8364 C.ar      1 <0>        -0.1654
      9 C7          1.1821   -6.2594   -2.7603 C.ar      1 <0>        -0.0435
     10 C8          1.0599   -7.5552   -2.2739 C.ar      1 <0>        -0.1670
     11 C9          1.1785   -7.8317   -0.9273 C.ar      1 <0>        -0.0635
     12 C10         1.4253   -6.8372    0.0048 C.ar      1 <0>        -0.1695
     13 C11         1.5515   -5.5277   -0.4722 C.ar      1 <0>         0.2178
     14 N2          1.7994   -4.3779    0.2561 N.pl3     1 <0>        -0.7269
     15 C12         1.8549   -3.2165   -0.6410 C.3       1 <0>         0.3763
     16 H1          2.8352   -2.7426   -0.5901 H         1 <0>         0.1117
     17 N3          0.7991   -2.2739   -0.3314 N.am      1 <0>        -0.6096
     18 C13         0.6627   -1.4192    0.7177 C.2       1 <0>         0.5415
     19 O2          1.4539   -1.3761    1.6359 O.2       1 <0>        -0.4433
     20 C14        -0.5652   -0.5153    0.6449 C.3       1 <0>         0.1921
     21 S1         -2.0269   -1.5911    0.8748 S.3       1 <0>        -0.1129
     22 S2         -1.7648   -2.9417   -0.6717 S.3       1 <0>        -0.1178
     23 C15        -0.5041    0.6087    1.6813 C.3       1 <0>         0.1126
     24 O3         -0.3390    0.0464    2.9846 O.3       1 <0>        -0.5420
     25 C16         2.7531   -3.4669   -3.0123 C.3       1 <0>         0.0107
     26 C17         3.0762   -1.9617   -3.0364 C.3       1 <0>        -0.0881
     27 C18         2.9505   -1.5231   -4.4739 C.3       1 <0>         0.1748
     28 C19         1.9449   -0.4122   -4.6984 C.2       1 <0>         0.5201
     29 O4          1.4875    0.2374   -3.7821 O.2       1 <0>        -0.4374
     30 N4          1.5860   -0.1877   -5.9972 N.am      1 <0>        -0.6032
     31 C20         2.2033   -1.0143   -7.0589 C.3       1 <0>         0.1932
     32 C21         2.1087   -2.4652   -6.5832 C.2       1 <0>         0.5408
     33 O5          1.7478   -3.3696   -7.3063 O.2       1 <0>        -0.4434
     34 N5          2.4621   -2.6594   -5.2847 N.am      1 <0>        -0.6102
     35 C22         2.4154   -3.8557   -4.4690 C.3       1 <0>         0.3770
     36 H2          1.4215   -4.2996   -4.5240 H         1 <0>         0.1093
     37 N6          3.4509   -4.8206   -4.8598 N.pl3     1 <0>        -0.7251
     38 C23         4.3288   -5.0244   -3.8101 C.ar      1 <0>         0.2172
     39 C24         3.9824   -4.2657   -2.6906 C.ar      1 <0>        -0.1652
     40 C25         4.7176   -4.3110   -1.5196 C.ar      1 <0>        -0.0436
     41 C26         5.8276   -5.1466   -1.5000 C.ar      1 <0>        -0.1665
     42 C27         6.1813   -5.8985   -2.6014 C.ar      1 <0>        -0.0635
     43 C28         5.4502   -5.8608   -3.7775 C.ar      1 <0>        -0.1693
     44 S3          3.9810   -0.5871   -7.1191 S.3       1 <0>        -0.1125
     45 S4          4.5449   -0.9847   -5.1741 S.3       1 <0>        -0.1178
     46 C29         1.5129   -0.8127   -8.4093 C.3       1 <0>         0.1132
     47 O6          2.0686   -1.7153   -9.3678 O.3       1 <0>        -0.5423
     48 C30         0.6087    0.8508   -6.3329 C.3       1 <0>         0.0773
     49 H3          0.1238    1.9551   -1.0183 H         1 <0>         0.0712
     50 H4         -1.3552    1.5707   -1.9309 H         1 <0>         0.0924
     51 H5         -1.4415    1.8584   -0.1765 H         1 <0>         0.0813
     52 H6         -0.4479   -3.9537   -2.7475 H         1 <0>         0.1167
     53 H7          0.4437   -2.5598   -3.4222 H         1 <0>         0.1119
     54 H8          1.0893   -6.0422   -3.8142 H         1 <0>         0.1218
     55 H9          0.8677   -8.3630   -2.9645 H         1 <0>         0.1197
     56 H10         1.0756   -8.8527   -0.5904 H         1 <0>         0.1213
     57 H11         1.5166   -7.0632    1.0569 H         1 <0>         0.1287
     58 H12         1.9187   -4.3437    1.2182 H         1 <0>         0.4205
     59 H13         0.3387    1.2630    1.4584 H         1 <0>         0.0866
     60 H14        -1.4294    1.1839    1.6483 H         1 <0>         0.0817
     61 H15        -0.2923    0.7028    3.6931 H         1 <0>         0.3957
     62 H16         2.3656   -1.4165   -2.4153 H         1 <0>         0.1126
     63 H17         4.0924   -1.7914   -2.6808 H         1 <0>         0.1169
     64 H18         3.5104   -5.2522   -5.7265 H         1 <0>         0.4208
     65 H19         4.4408   -3.7219   -0.6577 H         1 <0>         0.1219
     66 H20         6.4265   -5.2085   -0.6034 H         1 <0>         0.1199
     67 H21         7.0524   -6.5344   -2.5451 H         1 <0>         0.1215
     68 H22         5.7340   -6.4533   -4.6346 H         1 <0>         0.1288
     69 H23         0.4455   -1.0064   -8.3042 H         1 <0>         0.0861
     70 H24         1.6647    0.2130   -8.7455 H         1 <0>         0.0818
     71 H25         1.6773   -1.6430  -10.2491 H         1 <0>         0.3956
     72 H26         0.2740    1.3435   -5.4200 H         1 <0>         0.1032
     73 H27         1.0706    1.5845   -6.9934 H         1 <0>         0.0744
     74 H28        -0.2457    0.3969   -6.8350 H         1 <0>         0.0717
@<TRIPOS>BOND
     1    1    2 1
     2    1   49 1
     3    1   50 1
     4    1   51 1
     5    2   20 1
     6    2    3 am
     7    3    4 2
     8    3    5 1
     9    5   17 1
    10    5   22 1
    11    5    6 1
    12    6    7 1
    13    6   52 1
    14    6   53 1
    15    7   15 1
    16    7    8 1
    17    7   25 1
    18    8   13 ar
    19    8    9 ar
    20    9   10 ar
    21    9   54 1
    22   10   11 ar
    23   10   55 1
    24   11   12 ar
    25   11   56 1
    26   12   13 ar
    27   12   57 1
    28   13   14 1
    29   14   15 1
    30   14   58 1
    31   15   16 1
    32   15   17 1
    33   17   18 am
    34   18   19 2
    35   18   20 1
    36   20   21 1
    37   20   23 1
    38   21   22 1
    39   23   24 1
    40   23   59 1
    41   23   60 1
    42   24   61 1
    43   25   35 1
    44   25   39 1
    45   25   26 1
    46   26   27 1
    47   26   62 1
    48   26   63 1
    49   27   34 1
    50   27   45 1
    51   27   28 1
    52   28   29 2
    53   28   30 am
    54   30   31 1
    55   30   48 1
    56   31   32 1
    57   31   44 1
    58   31   46 1
    59   32   33 2
    60   32   34 am
    61   34   35 1
    62   35   36 1
    63   35   37 1
    64   37   38 1
    65   37   64 1
    66   38   43 ar
    67   38   39 ar
    68   39   40 ar
    69   40   41 ar
    70   40   65 1
    71   41   42 ar
    72   41   66 1
    73   42   43 ar
    74   42   67 1
    75   43   68 1
    76   44   45 1
    77   46   47 1
    78   46   69 1
    79   46   70 1
    80   47   71 1
    81   48   72 1
    82   48   73 1
    83   48   74 1
@<TRIPOS>MOLECULE
ZINC01846448
   31    32     0     0     0
SMALL
USER_CHARGES

@<TRIPOS>ATOM
      1 C1          0.0102    1.4271    0.5225 C.ar      1 <0>         0.0212
      2 C2          1.1914    2.1206    0.3480 C.ar      1 <0>        -0.1436
      3 C3          2.3868    1.4275    0.2002 C.ar      1 <0>        -0.0214
      4 C4          2.3887    0.0381    0.2287 C.ar      1 <0>        -0.0394
      5 C5          1.2037   -0.6488    0.4036 C.ar      1 <0>         0.0406
      6 C6          0.0159    0.0443    0.5503 C.ar      1 <0>        -0.0610
      7 N1         -1.2524   -0.6957    0.7380 N.pl3     1 <0>         0.0335
      8 O1         -2.2915   -0.0913    0.8669 O.2       1 <0>        -0.1395
      9 O2         -1.2491   -1.9044    0.7626 O.3       1 <0>        -0.1340
     10 N2          3.6595   -0.7046    0.0713 N.pl3     1 <0>         0.0367
     11 O3          3.6603   -1.9133    0.0962 O.2       1 <0>        -0.1216
     12 O4          4.6965   -0.1024   -0.0822 O.3       1 <0>        -0.1358
     13 S1          3.8964    2.3083   -0.0233 S.3       1 <0>         0.2473
     14 C7          3.3920    3.9911   -0.1590 C.ar      1 <0>        -0.1241
     15 C8          3.5472    4.8538    0.9194 C.ar      1 <0>        -0.0507
     16 C9          3.1508    6.1719    0.8095 C.ar      1 <0>        -0.0122
     17 C10         2.5995    6.6337   -0.3719 C.ar      1 <0>        -0.0187
     18 C11         2.4432    5.7779   -1.4470 C.ar      1 <0>         0.0007
     19 C12         2.8434    4.4602   -1.3465 C.ar      1 <0>        -0.0110
     20 N3          2.6823    3.5467   -2.5001 N.pl3     1 <0>         0.0231
     21 O5          2.2049    3.9555   -3.5329 O.2       1 <0>        -0.1190
     22 O6          3.0281    2.3917   -2.4095 O.3       1 <0>        -0.1265
     23 N4          2.1752    8.0474   -0.4857 N.pl3     1 <0>         0.0237
     24 O7          2.3109    8.7967    0.4533 O.2       1 <0>        -0.1236
     25 O8          1.6932    8.4526   -1.5177 O.3       1 <0>        -0.1261
     26 H1         -0.9186    1.9651    0.6419 H         1 <0>         0.1761
     27 H2          1.1861    3.2003    0.3260 H         1 <0>         0.1518
     28 H3          1.2044   -1.7286    0.4259 H         1 <0>         0.1913
     29 H4          3.9769    4.4937    1.8424 H         1 <0>         0.1855
     30 H5          3.2710    6.8429    1.6471 H         1 <0>         0.1853
     31 H6          2.0116    6.1417   -2.3678 H         1 <0>         0.1914
@<TRIPOS>BOND
     1    1    6 ar
     2    1    2 ar
     3    1   26 1
     4    2    3 ar
     5    2   27 1
     6    3    4 ar
     7    3   13 1
     8    4    5 ar
     9    4   10 1
    10    5    6 ar
    11    5   28 1
    12    6    7 1
    13    7    8 2
    14    7    9 1
    15   10   11 2
    16   10   12 1
    17   13   14 1
    18   14   19 ar
    19   14   15 ar
    20   15   16 ar
    21   15   29 1
    22   16   17 ar
    23   16   30 1
    24   17   18 ar
    25   17   23 1
    26   18   19 ar
    27   18   31 1
    28   19   20 1
    29   20   21 2
    30   20   22 1
    31   23   24 2
    32   23   25 1
@<TRIPOS>MOLECULE
ZINC01736331
   17    18     0     0     0
SMALL
USER_CHARGES
5,7-dinitro-2,1,3-benzothiadiazole
@<TRIPOS>ATOM
      1 C1          0.0021   -0.0041    0.0020 C.ar      1 <0>         0.0899
      2 C2         -0.0163    1.3502    0.0095 C.ar      1 <0>        -0.0390
      3 C3          1.1624    2.0960    0.0022 C.ar      1 <0>         0.0248
      4 C4          2.3783    1.4994   -0.0127 C.ar      1 <0>         0.0143
      5 C5          2.4742    0.0835   -0.0217 C.ar      1 <0>         0.1005
      6 C6          1.2405   -0.6972   -0.0140 C.ar      1 <0>         0.0414
      7 N1          1.4778   -2.0073   -0.0231 N.2       1 <0>        -0.5181
      8 S1          3.0362   -2.1701   -0.0387 S.3       1 <0>         0.8803
      9 N2          3.5565   -0.6920   -0.0360 N.2       1 <0>        -0.5231
     10 N3          3.6073    2.3245   -0.0200 N.pl3     1 <0>         0.0250
     11 O1          3.5251    3.5397   -0.0123 O.2       1 <0>        -0.1458
     12 O2          4.7008    1.7881   -0.0337 O.3       1 <0>        -0.1059
     13 N4         -1.3177    2.0553    0.0194 N.pl3     1 <0>         0.0253
     14 O3         -2.3557    1.4180    0.0208 O.2       1 <0>        -0.1332
     15 O4         -1.3507    3.2728    0.0262 O.3       1 <0>        -0.1251
     16 H1         -0.9259   -0.5566    0.0079 H         1 <0>         0.1924
     17 H2          1.1042    3.1744    0.0082 H         1 <0>         0.1963
@<TRIPOS>BOND
     1    1    6 ar
     2    1    2 ar
     3    1   16 1
     4    2    3 ar
     5    2   13 1
     6    3    4 ar
     7    3   17 1
     8    4    5 ar
     9    4   10 1
    10    5    9 2
    11    5    6 ar
    12    6    7 2
    13    7    8 1
    14    8    9 1
    15   10   11 2
    16   10   12 1
    17   13   14 2
    18   13   15 1
