@<TRIPOS>MOLECULE
ZINC03917574
   55    62     0     0     0
SMALL
USER_CHARGES
hexahydroxy-(hydroxymethyl)-methyl-BLAHdione
@<TRIPOS>ATOM
      1 C1         -5.7735   -1.7717   -2.2159 C.3       1 <0>        -0.1300
      2 C2         -5.9125   -0.5142   -1.3940 C.ar      1 <0>        -0.0167
      3 C3         -7.1725    0.0345   -1.2759 C.ar      1 <0>        -0.1568
      4 C4         -7.3577    1.3055   -0.7398 C.ar      1 <0>         0.1923
      5 C5         -6.2390    2.0897   -0.4435 C.ar      1 <0>        -0.1815
      6 C6         -4.9575    1.5302   -0.6135 C.ar      1 <0>         0.0125
      7 C7         -4.8010    0.1447   -0.8657 C.ar      1 <0>        -0.0401
      8 C8         -3.4760   -0.4472   -0.6947 C.ar      1 <0>        -0.0320
      9 C9         -3.2187   -1.7632   -0.3225 C.ar      1 <0>        -0.0220
     10 C10        -1.9618   -2.3072   -0.4708 C.ar      1 <0>        -0.1300
     11 C11        -0.8819   -1.5257   -0.8705 C.ar      1 <0>         0.1883
     12 C12        -1.0591   -0.1497   -1.0404 C.ar      1 <0>        -0.1771
     13 C13        -2.3483    0.3978   -0.8808 C.ar      1 <0>         0.0075
     14 C14        -2.5163    1.8480   -0.8426 C.ar      1 <0>        -0.0089
     15 C15        -3.7815    2.3941   -0.5935 C.ar      1 <0>        -0.0146
     16 C16        -3.9166    3.8182   -0.3063 C.ar      1 <0>         0.0255
     17 C17        -2.7771    4.6503   -0.3479 C.ar      1 <0>        -0.0719
     18 C18        -2.8810    5.9379    0.2062 C.ar      1 <0>         0.2000
     19 C19        -4.1259    6.4717    0.4927 C.ar      1 <0>        -0.1896
     20 C20        -5.2766    5.6981    0.4013 C.ar      1 <0>         0.2092
     21 C21        -5.1829    4.3509    0.0281 C.ar      1 <0>        -0.1951
     22 C22        -6.3727    3.4936   -0.0308 C.2       1 <0>         0.4386
     23 O1         -7.4649    3.9430    0.2655 O.2       1 <0>        -0.4191
     24 O2         -6.4800    6.2579    0.6679 O.3       1 <0>        -0.4729
     25 O3         -1.7827    6.6770    0.4947 O.3       1 <0>        -0.4692
     26 C23        -1.5385    4.1333   -0.9291 C.ar      1 <0>        -0.0717
     27 C24        -1.3728    2.7322   -1.0380 C.ar      1 <0>         0.0239
     28 C25        -0.1082    2.1856   -1.3536 C.ar      1 <0>        -0.1941
     29 C26         0.0722    0.7295   -1.3683 C.2       1 <0>         0.4368
     30 O4          1.1556    0.2504   -1.6513 O.2       1 <0>        -0.4161
     31 C27         0.9573    3.0490   -1.6390 C.ar      1 <0>         0.2086
     32 C28         0.7448    4.4216   -1.6687 C.ar      1 <0>        -0.1883
     33 C29        -0.5055    4.9551   -1.4061 C.ar      1 <0>         0.2001
     34 O5         -0.7031    6.2751   -1.6453 O.3       1 <0>        -0.4701
     35 O6          2.1959    2.5602   -1.8836 O.3       1 <0>        -0.4728
     36 O7          0.3301   -2.0989   -1.0608 O.3       1 <0>        -0.4728
     37 C30        -4.2608   -2.6058    0.3755 C.3       1 <0>         0.0997
     38 O8         -3.7255   -3.9044    0.6383 O.3       1 <0>        -0.5664
     39 O9         -8.6102    1.7640   -0.5083 O.3       1 <0>        -0.4727
     40 H1         -5.9346   -2.6416   -1.5791 H         1 <0>         0.0859
     41 H2         -6.5128   -1.7659   -3.0168 H         1 <0>         0.0846
     42 H3         -4.7727   -1.8163   -2.6455 H         1 <0>         0.0778
     43 H4         -8.0308   -0.5498   -1.5717 H         1 <0>         0.1473
     44 H5         -1.8140   -3.3592   -0.2732 H         1 <0>         0.1587
     45 H6         -4.1995    7.4943    0.8323 H         1 <0>         0.1526
     46 H7         -6.7484    6.1909    1.5945 H         1 <0>         0.4038
     47 H8         -1.4216    6.5168    1.3773 H         1 <0>         0.3999
     48 H9          1.5555    5.0791   -1.9433 H         1 <0>         0.1529
     49 H10        -1.0345    6.4687   -2.5329 H         1 <0>         0.3999
     50 H11         2.3658    2.3679   -2.8159 H         1 <0>         0.4040
     51 H12         0.8775   -2.1351   -0.2645 H         1 <0>         0.4010
     52 H13        -4.5414   -2.1314    1.3158 H         1 <0>         0.0729
     53 H14        -5.1403   -2.6975   -0.2618 H         1 <0>         0.0780
     54 H15        -4.3413   -4.5005    1.0860 H         1 <0>         0.3899
     55 H16        -8.9989    2.2401   -1.2548 H         1 <0>         0.4006
@<TRIPOS>BOND
     1    1    2 1
     2    1   40 1
     3    1   41 1
     4    1   42 1
     5    2    7 ar
     6    2    3 ar
     7    3    4 ar
     8    3   43 1
     9    4    5 ar
    10    4   39 1
    11    5   22 1
    12    5    6 ar
    13    6   15 ar
    14    6    7 ar
    15    7    8 ar
    16    8   13 ar
    17    8    9 ar
    18    9   10 ar
    19    9   37 1
    20   10   11 ar
    21   10   44 1
    22   11   12 ar
    23   11   36 1
    24   12   29 1
    25   12   13 ar
    26   13   14 ar
    27   14   27 ar
    28   14   15 ar
    29   15   16 ar
    30   16   21 ar
    31   16   17 ar
    32   17   18 ar
    33   17   26 ar
    34   18   19 ar
    35   18   25 1
    36   19   20 ar
    37   19   45 1
    38   20   21 ar
    39   20   24 1
    40   21   22 1
    41   22   23 2
    42   24   46 1
    43   25   47 1
    44   26   33 ar
    45   26   27 ar
    46   27   28 ar
    47   28   29 1
    48   28   31 ar
    49   29   30 2
    50   31   32 ar
    51   31   35 1
    52   32   33 ar
    53   32   48 1
    54   33   34 1
    55   34   49 1
    56   35   50 1
    57   36   51 1
    58   37   38 1
    59   37   52 1
    60   37   53 1
    61   38   54 1
    62   39   55 1
