@<TRIPOS>MOLECULE
ZINC02022399
   19    19     0     0     0
SMALL
USER_CHARGES

@<TRIPOS>ATOM
      1 C1         -0.0167    1.3779    0.0096 C.ar      1 <0>         0.0519
      2 C2          1.1708    2.0856    0.0021 C.ar      1 <0>        -0.1840
      3 C3          2.3777    1.4116   -0.0130 C.ar      1 <0>         0.0519
      4 C4          2.3977    0.0297   -0.0206 C.ar      1 <0>        -0.0537
      5 C5          1.2096   -0.6792   -0.0130 C.ar      1 <0>         0.0853
      6 C6          0.0021   -0.0041    0.0020 C.ar      1 <0>        -0.0537
      7 N1         -1.2695   -0.7617    0.0105 N.pl3     1 <0>         0.0296
      8 O1         -2.3246   -0.1716    0.0241 O.2       1 <0>        -0.1247
      9 O2         -1.2530   -1.9705    0.0039 O.3       1 <0>        -0.1108
     10 Cl1         1.2340   -2.4150   -0.0231 Cl        1 <0>         0.0825
     11 N2          3.6901   -0.6919   -0.0372 N.pl3     1 <0>         0.0296
     12 O3          4.7282   -0.0723   -0.0442 O.2       1 <0>        -0.1247
     13 O4          3.7074   -1.9007   -0.0439 O.3       1 <0>        -0.1108
     14 C7          1.1497    3.5925    0.0098 C.3       1 <0>         0.5238
     15 F1          1.1555    4.0521    1.3311 F         1 <0>        -0.1592
     16 F2          2.2791    4.0781   -0.6578 F         1 <0>        -0.1605
     17 F3         -0.0051    4.0460   -0.6367 F         1 <0>        -0.1605
     18 H1         -0.9592    1.9050    0.0259 H         1 <0>         0.1940
     19 H2          3.3051    1.9651   -0.0193 H         1 <0>         0.1940
@<TRIPOS>BOND
     1    1    6 ar
     2    1    2 ar
     3    1   18 1
     4    2    3 ar
     5    2   14 1
     6    3    4 ar
     7    3   19 1
     8    4    5 ar
     9    4   11 1
    10    5    6 ar
    11    5   10 1
    12    6    7 1
    13    7    8 2
    14    7    9 1
    15   11   12 2
    16   11   13 1
    17   14   15 1
    18   14   16 1
    19   14   17 1
@<TRIPOS>MOLECULE
ZINC01846448
   31    32     0     0     0
SMALL
USER_CHARGES

@<TRIPOS>ATOM
      1 C1          0.0102    1.4271    0.5225 C.ar      1 <0>         0.0212
      2 C2          1.1914    2.1206    0.3480 C.ar      1 <0>        -0.1436
      3 C3          2.3868    1.4275    0.2002 C.ar      1 <0>        -0.0214
      4 C4          2.3887    0.0381    0.2287 C.ar      1 <0>        -0.0394
      5 C5          1.2037   -0.6488    0.4036 C.ar      1 <0>         0.0406
      6 C6          0.0159    0.0443    0.5503 C.ar      1 <0>        -0.0610
      7 N1         -1.2524   -0.6957    0.7380 N.pl3     1 <0>         0.0335
      8 O1         -2.2915   -0.0913    0.8669 O.2       1 <0>        -0.1395
      9 O2         -1.2491   -1.9044    0.7626 O.3       1 <0>        -0.1340
     10 N2          3.6595   -0.7046    0.0713 N.pl3     1 <0>         0.0367
     11 O3          3.6603   -1.9133    0.0962 O.2       1 <0>        -0.1216
     12 O4          4.6965   -0.1024   -0.0822 O.3       1 <0>        -0.1358
     13 S1          3.8964    2.3083   -0.0233 S.3       1 <0>         0.2473
     14 C7          3.3920    3.9911   -0.1590 C.ar      1 <0>        -0.1241
     15 C8          3.5472    4.8538    0.9194 C.ar      1 <0>        -0.0507
     16 C9          3.1508    6.1719    0.8095 C.ar      1 <0>        -0.0122
     17 C10         2.5995    6.6337   -0.3719 C.ar      1 <0>        -0.0187
     18 C11         2.4432    5.7779   -1.4470 C.ar      1 <0>         0.0007
     19 C12         2.8434    4.4602   -1.3465 C.ar      1 <0>        -0.0110
     20 N3          2.6823    3.5467   -2.5001 N.pl3     1 <0>         0.0231
     21 O5          2.2049    3.9555   -3.5329 O.2       1 <0>        -0.1190
     22 O6          3.0281    2.3917   -2.4095 O.3       1 <0>        -0.1265
     23 N4          2.1752    8.0474   -0.4857 N.pl3     1 <0>         0.0237
     24 O7          2.3109    8.7967    0.4533 O.2       1 <0>        -0.1236
     25 O8          1.6932    8.4526   -1.5177 O.3       1 <0>        -0.1261
     26 H1         -0.9186    1.9651    0.6419 H         1 <0>         0.1761
     27 H2          1.1861    3.2003    0.3260 H         1 <0>         0.1518
     28 H3          1.2044   -1.7286    0.4259 H         1 <0>         0.1913
     29 H4          3.9769    4.4937    1.8424 H         1 <0>         0.1855
     30 H5          3.2710    6.8429    1.6471 H         1 <0>         0.1853
     31 H6          2.0116    6.1417   -2.3678 H         1 <0>         0.1914
@<TRIPOS>BOND
     1    1    6 ar
     2    1    2 ar
     3    1   26 1
     4    2    3 ar
     5    2   27 1
     6    3    4 ar
     7    3   13 1
     8    4    5 ar
     9    4   10 1
    10    5    6 ar
    11    5   28 1
    12    6    7 1
    13    7    8 2
    14    7    9 1
    15   10   11 2
    16   10   12 1
    17   13   14 1
    18   14   19 ar
    19   14   15 ar
    20   15   16 ar
    21   15   29 1
    22   16   17 ar
    23   16   30 1
    24   17   18 ar
    25   17   23 1
    26   18   19 ar
    27   18   31 1
    28   19   20 1
    29   20   21 2
    30   20   22 1
    31   23   24 2
    32   23   25 1
@<TRIPOS>MOLECULE
ZINC01736331
   17    18     0     0     0
SMALL
USER_CHARGES
5,7-dinitro-2,1,3-benzothiadiazole
@<TRIPOS>ATOM
      1 C1          0.0021   -0.0041    0.0020 C.ar      1 <0>         0.0899
      2 C2         -0.0163    1.3502    0.0095 C.ar      1 <0>        -0.0390
      3 C3          1.1624    2.0960    0.0022 C.ar      1 <0>         0.0248
      4 C4          2.3783    1.4994   -0.0127 C.ar      1 <0>         0.0143
      5 C5          2.4742    0.0835   -0.0217 C.ar      1 <0>         0.1005
      6 C6          1.2405   -0.6972   -0.0140 C.ar      1 <0>         0.0414
      7 N1          1.4778   -2.0073   -0.0231 N.2       1 <0>        -0.5181
      8 S1          3.0362   -2.1701   -0.0387 S.3       1 <0>         0.8803
      9 N2          3.5565   -0.6920   -0.0360 N.2       1 <0>        -0.5231
     10 N3          3.6073    2.3245   -0.0200 N.pl3     1 <0>         0.0250
     11 O1          3.5251    3.5397   -0.0123 O.2       1 <0>        -0.1458
     12 O2          4.7008    1.7881   -0.0337 O.3       1 <0>        -0.1059
     13 N4         -1.3177    2.0553    0.0194 N.pl3     1 <0>         0.0253
     14 O3         -2.3557    1.4180    0.0208 O.2       1 <0>        -0.1332
     15 O4         -1.3507    3.2728    0.0262 O.3       1 <0>        -0.1251
     16 H1         -0.9259   -0.5566    0.0079 H         1 <0>         0.1924
     17 H2          1.1042    3.1744    0.0082 H         1 <0>         0.1963
@<TRIPOS>BOND
     1    1    6 ar
     2    1    2 ar
     3    1   16 1
     4    2    3 ar
     5    2   13 1
     6    3    4 ar
     7    3   17 1
     8    4    5 ar
     9    4   10 1
    10    5    9 2
    11    5    6 ar
    12    6    7 2
    13    7    8 1
    14    8    9 1
    15   10   11 2
    16   10   12 1
    17   13   14 2
    18   13   15 1
@<TRIPOS>MOLECULE
ZINC00071460
   15    16     0     0     0
SMALL
USER_CHARGES
5-nitro-2,1,3-benzothiadiazole
@<TRIPOS>ATOM
      1 C1          1.1511    1.7687    0.0006 C.ar      1 <0>        -0.0715
      2 C2         -0.0126    1.0758    0.0080 C.ar      1 <0>        -0.0435
      3 C3         -1.2513    1.7685    0.0176 C.ar      1 <0>         0.0796
      4 C4         -1.2315    3.2283    0.0302 C.ar      1 <0>         0.0425
      5 C5          0.0254    3.8874    0.0208 C.ar      1 <0>         0.0298
      6 C6          1.1699    3.1635    0.0070 C.ar      1 <0>        -0.0148
      7 N1          2.4712    3.8688   -0.0021 N.pl3     1 <0>         0.0240
      8 O1          3.5092    3.2317   -0.0150 O.2       1 <0>        -0.1401
      9 O2          2.5040    5.0864    0.0033 O.3       1 <0>        -0.1524
     10 N2         -2.4587    3.7448    0.0440 N.2       1 <0>        -0.5303
     11 S1         -3.4461    2.5281    0.0315 S.3       1 <0>         0.8205
     12 N3         -2.4919    1.2852    0.0208 N.2       1 <0>        -0.5503
     13 H1          2.0864    1.2288   -0.0109 H         1 <0>         0.1682
     14 H2          0.0021   -0.0041    0.0020 H         1 <0>         0.1646
     15 H3          0.0691    4.9665    0.0252 H         1 <0>         0.1738
@<TRIPOS>BOND
     1    1    6 ar
     2    1    2 ar
     3    1   13 1
     4    2    3 ar
     5    2   14 1
     6    3   12 2
     7    3    4 ar
     8    4    5 ar
     9    4   10 2
    10    5    6 ar
    11    5   15 1
    12    6    7 1
    13    7    8 2
    14    7    9 1
    15   10   11 1
    16   11   12 1
@<TRIPOS>MOLECULE
ZINC04837050
   19    20     0     0     0
SMALL
USER_CHARGES
4,5-dinitro-1,3-benzodioxole
@<TRIPOS>ATOM
      1 C1          1.1552    3.5653    0.0097 C.ar      1 <0>        -0.0183
      2 C2         -0.0480    4.2467    0.0247 C.ar      1 <0>        -0.0715
      3 C3         -1.2419    3.5448    0.0328 C.ar      1 <0>         0.1097
      4 C4         -1.2269    2.1518    0.0195 C.ar      1 <0>         0.0825
      5 C5         -0.0180    1.4760    0.0102 C.ar      1 <0>         0.0379
      6 C6          1.1702    2.1833    0.0026 C.ar      1 <0>        -0.0111
      7 N1          2.4609    1.4588   -0.0136 N.pl3     1 <0>         0.0212
      8 O1          3.5082    2.0805   -0.0202 O.2       1 <0>        -0.1068
      9 O2          2.4756    0.2409   -0.0202 O.3       1 <0>        -0.1461
     10 N2          0.0021   -0.0041    0.0020 N.pl3     1 <0>         0.0186
     11 O3          0.0204   -0.6187    1.0534 O.2       1 <0>        -0.1027
     12 O4          0.0003   -0.6073   -1.0561 O.3       1 <0>        -0.1036
     13 O5         -2.5155    1.7017    0.0244 O.3       1 <0>        -0.2845
     14 C7         -3.3176    2.8277   -0.3779 C.3       1 <0>         0.2096
     15 O6         -2.5400    3.9668    0.0479 O.3       1 <0>        -0.2796
     16 H1          2.0853    4.1142    0.0038 H         1 <0>         0.1929
     17 H2         -0.0566    5.3266    0.0306 H         1 <0>         0.1830
     18 H3         -3.4575    2.8316   -1.4589 H         1 <0>         0.1115
     19 H4         -4.2800    2.8147    0.1338 H         1 <0>         0.1572
@<TRIPOS>BOND
     1    1    6 ar
     2    1    2 ar
     3    1   16 1
     4    2    3 ar
     5    2   17 1
     6    3   15 1
     7    3    4 ar
     8    4    5 ar
     9    4   13 1
    10    5    6 ar
    11    5   10 1
    12    6    7 1
    13    7    8 2
    14    7    9 1
    15   10   11 2
    16   10   12 1
    17   13   14 1
    18   14   15 1
    19   14   18 1
    20   14   19 1
@<TRIPOS>MOLECULE
ZINC05280674
   20    21     0     0     0
SMALL
USER_CHARGES
6,7-dinitroquinoxaline
@<TRIPOS>ATOM
      1 C1          2.3267    0.2576    0.1250 C.ar      1 <0>         0.1103
      2 C2          2.2186    1.6500    0.1520 C.ar      1 <0>         0.1161
      3 N1          1.0415    2.2319    0.1258 N.ar      1 <0>        -0.4098
      4 C3         -0.0664    1.4845    0.0718 C.ar      1 <0>         0.1048
      5 C4         -1.3413    2.0765    0.0480 C.ar      1 <0>         0.0048
      6 C5         -2.4494    1.2893   -0.0118 C.ar      1 <0>         0.0157
      7 C6         -2.3415   -0.1003   -0.0392 C.ar      1 <0>        -0.0028
      8 C7         -1.1248   -0.7088   -0.0123 C.ar      1 <0>         0.0255
      9 C8          0.0434    0.0714    0.0439 C.ar      1 <0>         0.0910
     10 N2          1.2535   -0.4976    0.0720 N.ar      1 <0>        -0.4044
     11 N3         -3.5686   -0.9260   -0.0989 N.pl3     1 <0>         0.0135
     12 O1         -3.4847   -2.1314   -0.2518 O.2       1 <0>        -0.1223
     13 O2         -4.6622   -0.3999    0.0048 O.3       1 <0>        -0.1180
     14 N4         -3.7894    1.9175   -0.0423 N.pl3     1 <0>         0.0098
     15 O3         -4.5844    1.6143   -0.9139 O.2       1 <0>        -0.0805
     16 O4         -4.0970    2.7375    0.8041 O.3       1 <0>        -0.1289
     17 H1          3.3034   -0.2028    0.1476 H         1 <0>         0.1987
     18 H2          3.1125    2.2545    0.1952 H         1 <0>         0.1986
     19 H3         -1.4404    3.1518    0.0687 H         1 <0>         0.1847
     20 H4         -1.0568   -1.7864   -0.0345 H         1 <0>         0.1930
@<TRIPOS>BOND
     1    1   10 ar
     2    1    2 ar
     3    1   17 1
     4    2    3 ar
     5    2   18 1
     6    3    4 ar
     7    4    9 ar
     8    4    5 ar
     9    5    6 ar
    10    5   19 1
    11    6    7 ar
    12    6   14 1
    13    7    8 ar
    14    7   11 1
    15    8    9 ar
    16    8   20 1
    17    9   10 ar
    18   11   12 2
    19   11   13 1
    20   14   15 2
    21   14   16 1
@<TRIPOS>MOLECULE
ZINC01509875
   15    16     0     0     0
SMALL
USER_CHARGES
4-nitro-2,1,3-benzothiadiazole
@<TRIPOS>ATOM
      1 C1         -1.2390    1.7403    0.0175 C.ar      1 <0>        -0.1147
      2 C2         -1.3119    3.0927    0.0303 C.ar      1 <0>         0.0002
      3 C3         -0.1232    3.8679    0.0226 C.ar      1 <0>         0.0546
      4 C4          1.1605    3.1724    0.0071 C.ar      1 <0>         0.0808
      5 C5          1.1602    1.7532    0.0004 C.ar      1 <0>        -0.0071
      6 C6         -0.0126    1.0758    0.0080 C.ar      1 <0>         0.0069
      7 N1          2.4421    1.0131   -0.0153 N.pl3     1 <0>         0.0271
      8 O1          2.4421   -0.2049   -0.0215 O.2       1 <0>        -0.1673
      9 O2          3.4969    1.6221   -0.0221 O.3       1 <0>        -0.1240
     10 N2          2.1879    4.0192    0.0020 N.2       1 <0>        -0.5234
     11 S1          1.5691    5.4588    0.0153 S.3       1 <0>         0.8075
     12 N3          0.0252    5.1911    0.0282 N.2       1 <0>        -0.5385
     13 H1         -2.1517    1.1629    0.0191 H         1 <0>         0.1657
     14 H2         -2.2750    3.5813    0.0414 H         1 <0>         0.1616
     15 H3          0.0021   -0.0041    0.0020 H         1 <0>         0.1707
@<TRIPOS>BOND
     1    1    6 ar
     2    1    2 ar
     3    1   13 1
     4    2    3 ar
     5    2   14 1
     6    3   12 2
     7    3    4 ar
     8    4    5 ar
     9    4   10 2
    10    5    6 ar
    11    5    7 1
    12    6   15 1
    13    7    8 2
    14    7    9 1
    15   10   11 1
    16   11   12 1
