@<TRIPOS>MOLECULE
ZINC03936607
   57    60     0     0     0
SMALL
USER_CHARGES

@<TRIPOS>ATOM
      1 C1         -0.0173    1.4248    0.0099 C.3       1 <0>         0.0244
      2 O1          0.0021   -0.0041    0.0020 O.3       1 <0>        -0.3145
      3 C2          0.6057   -0.6070   -1.0556 C.ar      1 <0>         0.1266
      4 C3          1.1742    0.1768   -2.0647 C.ar      1 <0>        -0.1670
      5 C4          1.7851   -0.3974   -3.1353 C.ar      1 <0>        -0.0816
      6 C5          1.8489   -1.7984   -3.2331 C.ar      1 <0>        -0.0381
      7 C6          2.4730   -2.4247   -4.3253 C.ar      1 <0>        -0.1076
      8 C7          2.5170   -3.7836   -4.3878 C.ar      1 <0>        -0.0476
      9 C8          1.9516   -4.5670   -3.3833 C.ar      1 <0>        -0.6460
     10 C9          1.3390   -3.9957   -2.3107 C.ar      1 <0>         0.0242
     11 C10         1.2739   -2.5950   -2.2114 C.ar      1 <0>        -0.0294
     12 C11         0.6543   -1.9705   -1.1164 C.ar      1 <0>        -0.1402
     13 S1          2.0305   -6.3231   -3.5041 S.o2      1 <0>         2.6870
     14 O2          0.9575   -6.8325   -2.7241 O.2       1 <0>        -0.9476
     15 O3          2.1818   -6.6288   -4.8836 O.2       1 <0>        -0.9485
     16 N1          3.4283   -6.8029   -2.7569 N.pl3     1 <0>        -1.0969
     17 C12         3.5963   -6.5979   -1.3161 C.3       1 <0>         0.1162
     18 H1          2.6253   -6.5357   -0.8248 H         1 <0>         0.1341
     19 C13         4.4414   -7.7380   -0.7021 C.3       1 <0>        -0.1337
     20 C14         5.2643   -6.9811    0.3639 C.3       1 <0>         0.0980
     21 N2          5.3375   -5.5941   -0.1101 N.am      1 <0>        -0.6148
     22 C15         4.4053   -5.3476   -1.0500 C.2       1 <0>         0.5017
     23 O4          4.2392   -4.2817   -1.6041 O.2       1 <0>        -0.5013
     24 C16         6.2997   -4.6033    0.3786 C.3       1 <0>         0.1597
     25 C17         7.5480   -4.6572   -0.4640 C.ar      1 <0>        -0.1016
     26 C18         8.5833   -5.5045   -0.1108 C.ar      1 <0>        -0.0414
     27 C19         9.7323   -5.5598   -0.8790 C.ar      1 <0>        -0.1120
     28 C20         9.8529   -4.7687   -2.0032 C.ar      1 <0>        -0.0571
     29 C21         8.8127   -3.9124   -2.3647 C.ar      1 <0>        -0.1595
     30 C22         7.6537   -3.8658   -1.5890 C.ar      1 <0>        -0.0417
     31 C23         8.9356   -3.0611   -3.5687 C.cat     1 <0>         0.6019
     32 N3         10.1336   -2.6345   -3.9630 N.pl3     1 <0>        -0.7591
     33 N4          7.8481   -2.7216   -4.2579 N.pl3     1 <0>        -0.7571
     34 H2          1.0053    1.8021    0.0021 H         1 <0>         0.0562
     35 H3         -0.5445    1.7859   -0.8732 H         1 <0>         0.0584
     36 H4         -0.5275    1.7763    0.9067 H         1 <0>         0.1056
     37 H5          1.1270    1.2534   -1.9928 H         1 <0>         0.1353
     38 H6          2.2191    0.2203   -3.9076 H         1 <0>         0.1344
     39 H7          2.9152   -1.8307   -5.1114 H         1 <0>         0.1294
     40 H8          2.9971   -4.2621   -5.2286 H         1 <0>         0.1322
     41 H9          0.9049   -4.6153   -1.5399 H         1 <0>         0.1398
     42 H10         0.2157   -2.5652   -0.3288 H         1 <0>         0.1396
     43 H11         4.1358   -7.2198   -3.2732 H         1 <0>         0.4220
     44 H12         3.8033   -8.4912   -0.2400 H         1 <0>         0.1095
     45 H13         5.0931   -8.1875   -1.4514 H         1 <0>         0.0944
     46 H14         4.7606   -7.0237    1.3296 H         1 <0>         0.0867
     47 H15         6.2648   -7.4069    0.4404 H         1 <0>         0.0858
     48 H16         5.8605   -3.6078    0.3141 H         1 <0>         0.1007
     49 H17         6.5519   -4.8226    1.4161 H         1 <0>         0.1028
     50 H18         8.4940   -6.1251    0.7686 H         1 <0>         0.1450
     51 H19        10.5369   -6.2231   -0.5981 H         1 <0>         0.1497
     52 H20        10.7508   -4.8122   -2.6018 H         1 <0>         0.1403
     53 H21         6.8430   -3.2083   -1.8663 H         1 <0>         0.1424
     54 H22        10.9259   -2.8818   -3.4609 H         1 <0>         0.4461
     55 H23         6.9753   -3.0324   -3.9706 H         1 <0>         0.4478
     56 H24         7.9286   -2.1636   -5.0471 H         1 <0>         0.4333
     57 H25        10.2142   -2.0764   -4.7523 H         1 <0>         0.4334
@<TRIPOS>BOND
     1    1    2 1
     2    1   34 1
     3    1   35 1
     4    1   36 1
     5    2    3 1
     6    3   12 ar
     7    3    4 ar
     8    4    5 ar
     9    4   37 1
    10    5    6 ar
    11    5   38 1
    12    6   11 ar
    13    6    7 ar
    14    7    8 ar
    15    7   39 1
    16    8    9 ar
    17    8   40 1
    18    9   10 ar
    19    9   13 1
    20   10   11 ar
    21   10   41 1
    22   11   12 ar
    23   12   42 1
    24   13   14 2
    25   13   15 2
    26   13   16 1
    27   16   17 1
    28   16   43 1
    29   17   18 1
    30   17   22 1
    31   17   19 1
    32   19   20 1
    33   19   44 1
    34   19   45 1
    35   20   21 1
    36   20   46 1
    37   20   47 1
    38   21   22 am
    39   21   24 1
    40   22   23 2
    41   24   25 1
    42   24   48 1
    43   24   49 1
    44   25   30 ar
    45   25   26 ar
    46   26   27 ar
    47   26   50 1
    48   27   28 ar
    49   27   51 1
    50   28   29 ar
    51   28   52 1
    52   29   30 ar
    53   29   31 1
    54   30   53 1
    55   31   32 2
    56   31   33 1
    57   32   54 1
    58   32   57 1
    59   33   55 1
    60   33   56 1
@<TRIPOS>MOLECULE
ZINC03807246
   69    72     0     0     0
SMALL
USER_CHARGES

@<TRIPOS>ATOM
      1 C1         -1.4468    1.0204    1.5598 C.ar      1 <0>        -0.0881
      2 C2         -0.3637    1.8925    1.4651 C.ar      1 <0>        -0.1181
      3 C3          0.8927    1.4262    1.2278 C.ar      1 <0>        -0.0900
      4 C4          1.1047    0.0452    1.0760 C.ar      1 <0>        -0.0797
      5 C5          2.3875   -0.4736    0.8307 C.ar      1 <0>         0.0262
      6 C6          2.5549   -1.8168    0.6895 C.ar      1 <0>        -0.6802
      7 C7          1.4718   -2.6889    0.7846 C.ar      1 <0>        -0.0526
      8 C8          0.2154   -2.2225    1.0214 C.ar      1 <0>        -0.1132
      9 C9          0.0034   -0.8415    1.1728 C.ar      1 <0>        -0.0113
     10 C10        -1.2794   -0.3227    1.4182 C.ar      1 <0>        -0.1213
     11 S1          4.1649   -2.4631    0.3814 S.o2      1 <0>         2.6992
     12 O1          3.9829   -3.7195   -0.2570 O.2       1 <0>        -0.9555
     13 O2          4.9188   -1.4119   -0.2067 O.2       1 <0>        -0.9466
     14 N1          4.8569   -2.7758    1.8530 N.pl3     1 <0>        -1.1073
     15 C11         4.2874   -3.8049    2.7264 C.3       1 <0>         0.1000
     16 C12         5.2796   -4.1529    3.8059 C.2       1 <0>         0.5210
     17 O3          6.3564   -3.5961    3.8422 O.2       1 <0>        -0.5181
     18 N2          4.9704   -5.0829    4.7311 N.am      1 <0>        -0.7101
     19 C13         5.9349   -5.4212    5.7806 C.3       1 <0>         0.1339
     20 H1          6.9457   -5.3661    5.3765 H         1 <0>         0.1200
     21 C14         5.6637   -6.8402    6.2843 C.3       1 <0>        -0.1006
     22 C15         5.9436   -7.8272    5.1805 C.ar      1 <0>        -0.0118
     23 C16         4.9340   -8.1867    4.3055 C.ar      1 <0>        -0.1089
     24 C17         5.1837   -9.0901    3.2931 C.ar      1 <0>        -0.0513
     25 C18         6.4577   -9.6411    3.1524 C.ar      1 <0>        -0.1581
     26 C19         7.4717   -9.2742    4.0377 C.ar      1 <0>        -0.0513
     27 C20         7.2105   -8.3658    5.0428 C.ar      1 <0>        -0.1097
     28 C21         6.7323  -10.6110    2.0691 C.cat     1 <0>         0.6003
     29 N3          7.9491  -11.1351    1.9374 N.pl3     1 <0>        -0.7617
     30 N4          5.7625  -10.9596    1.2261 N.pl3     1 <0>        -0.7609
     31 C22         5.7967   -4.4477    6.9226 C.2       1 <0>         0.5048
     32 O4          4.7594   -3.8388    7.0782 O.2       1 <0>        -0.5232
     33 N5          6.8258   -4.2538    7.7710 N.am      1 <0>        -0.6053
     34 C23         8.1249   -4.8969    7.5315 C.3       1 <0>         0.1030
     35 C24         9.2160   -3.8216    7.5376 C.3       1 <0>        -0.1381
     36 C25         9.1384   -3.0292    8.8446 C.3       1 <0>        -0.1219
     37 C26         7.7772   -2.3367    8.9433 C.3       1 <0>        -0.1374
     38 C27         6.6716   -3.3904    8.9498 C.3       1 <0>         0.1098
     39 H2         -2.4330    1.4161    1.7529 H         1 <0>         0.1312
     40 H3         -0.5239    2.9542    1.5813 H         1 <0>         0.1317
     41 H4          1.7223    2.1139    1.1562 H         1 <0>         0.1355
     42 H5          3.2360    0.1901    0.7541 H         1 <0>         0.1473
     43 H6          1.6320   -3.7506    0.6683 H         1 <0>         0.1377
     44 H7         -0.6144   -2.9101    1.0922 H         1 <0>         0.1372
     45 H8         -2.1280   -0.9865    1.4944 H         1 <0>         0.1341
     46 H9          5.6393   -2.2776    2.1368 H         1 <0>         0.4304
     47 H10         3.3716   -3.4286    3.1822 H         1 <0>         0.1037
     48 H11         4.0618   -4.6953    2.1395 H         1 <0>         0.1122
     49 H12         4.1091   -5.5283    4.7021 H         1 <0>         0.4077
     50 H13         6.3108   -7.0536    7.1352 H         1 <0>         0.1102
     51 H14         4.6211   -6.9239    6.5908 H         1 <0>         0.1049
     52 H15         3.9482   -7.7594    4.4155 H         1 <0>         0.1479
     53 H16         4.3946   -9.3705    2.6111 H         1 <0>         0.1406
     54 H17         8.4599   -9.6975    3.9342 H         1 <0>         0.1397
     55 H18         7.9956   -8.0779    5.7263 H         1 <0>         0.1495
     56 H19         8.6556  -10.8812    2.5516 H         1 <0>         0.4441
     57 H20         4.8760  -10.5777    1.3220 H         1 <0>         0.4444
     58 H21         5.9424  -11.5953    0.5159 H         1 <0>         0.4343
     59 H22         8.3237   -5.6236    8.3192 H         1 <0>         0.0758
     60 H23         8.1115   -5.3983    6.5638 H         1 <0>         0.0802
     61 H24        10.1943   -4.2954    7.4570 H         1 <0>         0.0789
     62 H25         9.0671   -3.1474    6.6941 H         1 <0>         0.0710
     63 H26         9.2627   -3.7078    9.6886 H         1 <0>         0.0666
     64 H27         9.9294   -2.2794    8.8623 H         1 <0>         0.0702
     65 H28         7.7314   -1.7538    9.8632 H         1 <0>         0.0799
     66 H29         7.6419   -1.6766    8.0866 H         1 <0>         0.0676
     67 H30         5.6996   -2.8981    8.9176 H         1 <0>         0.0938
     68 H31         6.7492   -3.9915    9.8557 H         1 <0>         0.0720
     69 H32         8.1291  -11.7709    1.2273 H         1 <0>         0.4342
@<TRIPOS>BOND
     1    1   10 ar
     2    1    2 ar
     3    1   39 1
     4    2    3 ar
     5    2   40 1
     6    3    4 ar
     7    3   41 1
     8    4    9 ar
     9    4    5 ar
    10    5    6 ar
    11    5   42 1
    12    6    7 ar
    13    6   11 1
    14    7    8 ar
    15    7   43 1
    16    8    9 ar
    17    8   44 1
    18    9   10 ar
    19   10   45 1
    20   11   12 2
    21   11   13 2
    22   11   14 1
    23   14   15 1
    24   14   46 1
    25   15   16 1
    26   15   47 1
    27   15   48 1
    28   16   17 2
    29   16   18 am
    30   18   19 1
    31   18   49 1
    32   19   20 1
    33   19   21 1
    34   19   31 1
    35   21   22 1
    36   21   50 1
    37   21   51 1
    38   22   27 ar
    39   22   23 ar
    40   23   24 ar
    41   23   52 1
    42   24   25 ar
    43   24   53 1
    44   25   26 ar
    45   25   28 1
    46   26   27 ar
    47   26   54 1
    48   27   55 1
    49   28   29 2
    50   28   30 1
    51   29   56 1
    52   29   69 1
    53   30   57 1
    54   30   58 1
    55   31   32 2
    56   31   33 am
    57   33   38 1
    58   33   34 1
    59   34   35 1
    60   34   59 1
    61   34   60 1
    62   35   36 1
    63   35   61 1
    64   35   62 1
    65   36   37 1
    66   36   63 1
    67   36   64 1
    68   37   38 1
    69   37   65 1
    70   37   66 1
    71   38   67 1
    72   38   68 1
@<TRIPOS>MOLECULE
ZINC13800223
   53    56     0     0     0
SMALL
USER_CHARGES

@<TRIPOS>ATOM
      1 C1         -0.0164    1.3567    0.0095 C.ar      1 <0>        -0.0981
      2 C2          1.1686    2.0905    0.0021 C.ar      1 <0>        -0.1223
      3 C3          2.3785    1.4675   -0.0131 C.ar      1 <0>        -0.0994
      4 C4          2.4375    0.0634   -0.0211 C.ar      1 <0>        -0.0741
      5 C5          3.6681   -0.6153   -0.0364 C.ar      1 <0>         0.0203
      6 C6          3.6865   -1.9761   -0.0434 C.ar      1 <0>        -0.6500
      7 C7          2.5015   -2.7098   -0.0357 C.ar      1 <0>        -0.0328
      8 C8          1.2917   -2.0868   -0.0209 C.ar      1 <0>        -0.1097
      9 C9          1.2327   -0.6827   -0.0133 C.ar      1 <0>        -0.0054
     10 C10         0.0021   -0.0041    0.0020 C.ar      1 <0>        -0.1150
     11 S1          5.2315   -2.8230   -0.0631 S.o2      1 <0>         2.6871
     12 O1          4.9835   -4.1075   -0.6179 O.2       1 <0>        -0.9454
     13 O2          6.1807   -1.9234   -0.6189 O.2       1 <0>        -0.9510
     14 N1          5.6766   -3.0663    1.5133 N.pl3     1 <0>        -1.0973
     15 C11         4.8732   -3.9368    2.3753 C.3       1 <0>         0.1171
     16 H1          4.3135   -4.6545    1.7756 H         1 <0>         0.1348
     17 C12         5.7752   -4.6703    3.3949 C.3       1 <0>        -0.1341
     18 C13         4.8743   -4.6980    4.6495 C.3       1 <0>         0.0980
     19 N2          3.9612   -3.5586    4.5012 N.am      1 <0>        -0.6148
     20 C14         3.9342   -3.1146    3.2303 C.2       1 <0>         0.5023
     21 O3          3.2589   -2.1905    2.8291 O.2       1 <0>        -0.5021
     22 C15         3.1772   -2.9798    5.5951 C.3       1 <0>         0.1596
     23 C16         3.9746   -1.8888    6.2621 C.ar      1 <0>        -0.1018
     24 C17         4.8093   -2.1938    7.3227 C.ar      1 <0>        -0.0413
     25 C18         5.5446   -1.1980    7.9403 C.ar      1 <0>        -0.1120
     26 C19         5.4493    0.1069    7.5018 C.ar      1 <0>        -0.0570
     27 C20         4.6096    0.4208    6.4330 C.ar      1 <0>        -0.1595
     28 C21         3.8752   -0.5892    5.8104 C.ar      1 <0>        -0.0419
     29 C22         4.5023    1.8181    5.9580 C.cat     1 <0>         0.6019
     30 N3          4.6729    2.8261    6.8110 N.pl3     1 <0>        -0.7589
     31 N4          4.2352    2.0674    4.6777 N.pl3     1 <0>        -0.7570
     32 H2         -0.9633    1.8757    0.0259 H         1 <0>         0.1280
     33 H3          1.1260    3.1696    0.0083 H         1 <0>         0.1263
     34 H4          3.2884    2.0491   -0.0194 H         1 <0>         0.1285
     35 H5          4.5943   -0.0599   -0.0428 H         1 <0>         0.1387
     36 H6          2.5441   -3.7890   -0.0419 H         1 <0>         0.1331
     37 H7          0.3816   -2.6684   -0.0154 H         1 <0>         0.1333
     38 H8         -0.9241   -0.5595    0.0082 H         1 <0>         0.1322
     39 H9          6.4692   -2.6324    1.8660 H         1 <0>         0.4216
     40 H10         6.0043   -5.6809    3.0568 H         1 <0>         0.1096
     41 H11         6.6891   -4.1070    3.5833 H         1 <0>         0.0942
     42 H12         4.3109   -5.6303    4.6888 H         1 <0>         0.0868
     43 H13         5.4779   -4.5830    5.5499 H         1 <0>         0.0859
     44 H14         2.2520   -2.5625    5.1977 H         1 <0>         0.1008
     45 H15         2.9423   -3.7556    6.3239 H         1 <0>         0.1030
     46 H16         4.8868   -3.2134    7.6701 H         1 <0>         0.1451
     47 H17         6.1944   -1.4424    8.7677 H         1 <0>         0.1498
     48 H18         6.0233    0.8835    7.9852 H         1 <0>         0.1404
     49 H19         3.2270   -0.3532    4.9794 H         1 <0>         0.1420
     50 H20         4.8675    2.6445    7.7437 H         1 <0>         0.4461
     51 H21         4.1109    1.3330    4.0563 H         1 <0>         0.4475
     52 H22         4.1648    2.9833    4.3663 H         1 <0>         0.4333
     53 H23         4.6025    3.7421    6.4996 H         1 <0>         0.4335
@<TRIPOS>BOND
     1    1   10 ar
     2    1    2 ar
     3    1   32 1
     4    2    3 ar
     5    2   33 1
     6    3    4 ar
     7    3   34 1
     8    4    9 ar
     9    4    5 ar
    10    5    6 ar
    11    5   35 1
    12    6    7 ar
    13    6   11 1
    14    7    8 ar
    15    7   36 1
    16    8    9 ar
    17    8   37 1
    18    9   10 ar
    19   10   38 1
    20   11   12 2
    21   11   13 2
    22   11   14 1
    23   14   15 1
    24   14   39 1
    25   15   16 1
    26   15   20 1
    27   15   17 1
    28   17   18 1
    29   17   40 1
    30   17   41 1
    31   18   19 1
    32   18   42 1
    33   18   43 1
    34   19   20 am
    35   19   22 1
    36   20   21 2
    37   22   23 1
    38   22   44 1
    39   22   45 1
    40   23   28 ar
    41   23   24 ar
    42   24   25 ar
    43   24   46 1
    44   25   26 ar
    45   25   47 1
    46   26   27 ar
    47   26   48 1
    48   27   28 ar
    49   27   29 1
    50   28   49 1
    51   29   30 2
    52   29   31 1
    53   30   50 1
    54   30   53 1
    55   31   51 1
    56   31   52 1
