@<TRIPOS>MOLECULE
ZINC02006270
   57    60     0     0     0
SMALL
USER_CHARGES

@<TRIPOS>ATOM
      1 C1         -1.3381   -1.7836    3.6515 C.3       1 <0>        -0.0827
      2 C2         -0.7136   -1.9784    2.2939 C.2       1 <0>         0.0922
      3 C3         -0.5795   -3.1955    1.6307 C.2       1 <0>        -0.1907
      4 C4          0.0407   -2.9486    0.4218 C.2       1 <0>         0.0345
      5 N1          0.2760   -1.6008    0.3602 N.pl3     1 <0>        -0.3139
      6 N2         -0.2128   -1.0296    1.5418 N.2       1 <0>        -0.2589
      7 C5          0.8895   -0.9165   -0.6964 C.ar      1 <0>         0.1624
      8 C6          0.4621   -1.1269   -2.0021 C.ar      1 <0>        -0.0185
      9 C7          1.0644   -0.4538   -3.0480 C.ar      1 <0>        -0.0948
     10 C8          2.0942    0.4322   -2.8027 C.ar      1 <0>        -0.0532
     11 C9          2.5304    0.6502   -1.4954 C.ar      1 <0>        -0.1496
     12 C10         1.9193   -0.0248   -0.4395 C.ar      1 <0>        -0.0512
     13 C11         3.6348    1.5988   -1.2299 C.cat     1 <0>         0.6060
     14 N3          4.5844    1.7876   -2.1439 N.pl3     1 <0>        -0.7565
     15 N4          3.6789    2.2634   -0.0771 N.pl3     1 <0>        -0.7572
     16 C12         0.3840   -3.9441   -0.6044 C.2       1 <0>         0.5850
     17 O1          1.0295   -3.6133   -1.5809 O.2       1 <0>        -0.5119
     18 N5         -0.0166   -5.2232   -0.4630 N.am      1 <0>        -0.6457
     19 C13         0.3154   -6.1707   -1.4349 C.ar      1 <0>         0.1558
     20 C14         0.5114   -5.7739   -2.7526 C.ar      1 <0>        -0.1411
     21 C15         0.8395   -6.7070   -3.7129 C.ar      1 <0>        -0.0692
     22 C16         0.9746   -8.0493   -3.3617 C.ar      1 <0>        -0.1334
     23 C17         0.7776   -8.4450   -2.0396 C.ar      1 <0>        -0.0038
     24 C18         0.4549   -7.5078   -1.0815 C.ar      1 <0>        -0.1461
     25 C19         1.3271   -9.0552   -4.3935 C.ar      1 <0>         0.0588
     26 C20         0.4468   -9.3206   -5.4411 C.ar      1 <0>        -0.1270
     27 C21         0.7798  -10.2574   -6.3980 C.ar      1 <0>        -0.0563
     28 C22         1.9848  -10.9325   -6.3190 C.ar      1 <0>        -0.1368
     29 C23         2.8619  -10.6734   -5.2815 C.ar      1 <0>        -0.0159
     30 C24         2.5419   -9.7340   -4.3221 C.ar      1 <0>        -0.6669
     31 S1          3.6639   -9.3995   -3.0054 S.o2      1 <0>         2.6940
     32 O2          2.8874   -9.3328   -1.8172 O.2       1 <0>        -0.9533
     33 O3          4.7489  -10.3045   -3.1566 O.2       1 <0>        -0.9646
     34 N6          4.2754   -7.8812   -3.2569 N.pl3     1 <0>        -1.2459
     35 H1         -2.4067   -1.6018    3.5371 H         1 <0>         0.0892
     36 H2         -1.1844   -2.6789    4.2540 H         1 <0>         0.0894
     37 H3         -0.8750   -0.9294    4.1453 H         1 <0>         0.0810
     38 H4         -0.9022   -4.1591    1.9962 H         1 <0>         0.1697
     39 H5         -0.3432   -1.8189   -2.2000 H         1 <0>         0.1459
     40 H6          0.7287   -0.6218   -4.0607 H         1 <0>         0.1580
     41 H7          2.5625    0.9563   -3.6227 H         1 <0>         0.1470
     42 H8          2.2501    0.1432    0.5747 H         1 <0>         0.1457
     43 H9          4.5523    1.3034   -2.9838 H         1 <0>         0.4470
     44 H10         2.9871    2.1258    0.5888 H         1 <0>         0.4470
     45 H11         4.4028    2.8852    0.0969 H         1 <0>         0.4343
     46 H12        -0.5353   -5.4860    0.3133 H         1 <0>         0.4184
     47 H13         0.4063   -4.7340   -3.0243 H         1 <0>         0.1458
     48 H14         0.9913   -6.3983   -4.7367 H         1 <0>         0.1291
     49 H15         0.8815   -9.4844   -1.7654 H         1 <0>         0.1489
     50 H16         0.3065   -7.8132   -0.0562 H         1 <0>         0.1330
     51 H17        -0.4942   -8.7944   -5.5035 H         1 <0>         0.1357
     52 H18         0.0984  -10.4642   -7.2100 H         1 <0>         0.1363
     53 H19         2.2414  -11.6649   -7.0701 H         1 <0>         0.1377
     54 H20         3.8009  -11.2039   -5.2243 H         1 <0>         0.1479
     55 H21         3.9905   -7.3651   -4.0272 H         1 <0>         0.4152
     56 H22         4.9185   -7.5080   -2.6340 H         1 <0>         0.4200
     57 H23         5.3083    2.4094   -1.9699 H         1 <0>         0.4344
@<TRIPOS>BOND
     1    1    2 1
     2    1   35 1
     3    1   36 1
     4    1   37 1
     5    2    6 2
     6    2    3 1
     7    3    4 2
     8    3   38 1
     9    4    5 1
    10    4   16 1
    11    5    6 1
    12    5    7 1
    13    7   12 ar
    14    7    8 ar
    15    8    9 ar
    16    8   39 1
    17    9   10 ar
    18    9   40 1
    19   10   11 ar
    20   10   41 1
    21   11   12 ar
    22   11   13 1
    23   12   42 1
    24   13   14 2
    25   13   15 1
    26   14   43 1
    27   14   57 1
    28   15   44 1
    29   15   45 1
    30   16   17 2
    31   16   18 am
    32   18   19 1
    33   18   46 1
    34   19   24 ar
    35   19   20 ar
    36   20   21 ar
    37   20   47 1
    38   21   22 ar
    39   21   48 1
    40   22   23 ar
    41   22   25 1
    42   23   24 ar
    43   23   49 1
    44   24   50 1
    45   25   30 ar
    46   25   26 ar
    47   26   27 ar
    48   26   51 1
    49   27   28 ar
    50   27   52 1
    51   28   29 ar
    52   28   53 1
    53   29   30 ar
    54   29   54 1
    55   30   31 1
    56   31   32 2
    57   31   33 2
    58   31   34 1
    59   34   55 1
    60   34   56 1
@<TRIPOS>MOLECULE
ZINC02003646
   53    56     0     0     0
SMALL
USER_CHARGES

@<TRIPOS>ATOM
      1 C1          1.2474    1.3576    1.1081 C.ar      1 <0>        -0.0578
      2 C2          0.5264    2.1037    0.1929 C.ar      1 <0>        -0.1354
      3 C3         -0.0411    1.4933   -0.9108 C.ar      1 <0>        -0.0160
      4 C4          0.1097    0.1351   -1.1053 C.ar      1 <0>        -0.6646
      5 C5          0.8352   -0.6212   -0.1870 C.ar      1 <0>         0.0545
      6 C6          1.4046   -0.0009    0.9238 C.ar      1 <0>        -0.1261
      7 C7          1.0003   -2.0814   -0.3903 C.ar      1 <0>        -0.1289
      8 C8          2.2659   -2.6140   -0.6308 C.ar      1 <0>        -0.0687
      9 C9          2.4170   -3.9712   -0.8195 C.ar      1 <0>        -0.1515
     10 C10         1.3086   -4.8084   -0.7701 C.ar      1 <0>         0.1581
     11 C11         0.0457   -4.2795   -0.5309 C.ar      1 <0>        -0.1195
     12 C12        -0.1092   -2.9236   -0.3354 C.ar      1 <0>        -0.0284
     13 N1          1.4641   -6.1841   -0.9617 N.am      1 <0>        -0.6650
     14 C13         0.6690   -7.0503   -0.3030 C.2       1 <0>         0.5918
     15 O1         -0.1157   -6.6416    0.5316 O.2       1 <0>        -0.5087
     16 C14         0.7504   -8.4916   -0.5938 C.2       1 <0>        -0.2964
     17 C15         1.6500   -9.1066   -1.4143 C.2       1 <0>         0.1198
     18 O2          1.3919  -10.4170   -1.4113 O.3       1 <0>        -0.0544
     19 N2          0.2902  -10.6785   -0.5650 N.2       1 <0>        -0.2875
     20 C16        -0.1186   -9.5466   -0.0506 C.2       1 <0>         0.1802
     21 C17        -1.2458   -9.3623    0.8959 C.ar      1 <0>        -0.0283
     22 C18        -2.1513   -8.3179    0.7091 C.ar      1 <0>         0.0143
     23 C19        -3.2015   -8.1445    1.5890 C.ar      1 <0>        -0.1105
     24 C20        -3.3626   -9.0031    2.6584 C.ar      1 <0>        -0.0407
     25 C21        -2.4631  -10.0519    2.8559 C.ar      1 <0>        -0.1647
     26 C22        -1.4050  -10.2343    1.9680 C.ar      1 <0>        -0.0292
     27 C23        -2.6361  -10.9713    4.0026 C.cat     1 <0>         0.6054
     28 N3         -3.1959  -10.5334    5.1284 N.pl3     1 <0>        -0.7574
     29 N4         -2.2320  -12.2364    3.9083 N.pl3     1 <0>        -0.7586
     30 S1         -0.6144   -0.6410   -2.5117 S.o2      1 <0>         2.6976
     31 O3         -1.3745   -1.7380   -2.0238 O.2       1 <0>        -0.9568
     32 O4         -1.1891    0.3951   -3.2963 O.2       1 <0>        -0.9645
     33 N5          0.6218   -1.2828   -3.4074 N.pl3     1 <0>        -1.2454
     34 H1          1.6918    1.8401    1.9661 H         1 <0>         0.1360
     35 H2          0.4059    3.1667    0.3411 H         1 <0>         0.1379
     36 H3         -0.6035    2.0804   -1.6217 H         1 <0>         0.1482
     37 H4          1.9679   -0.5822    1.6386 H         1 <0>         0.1350
     38 H5          3.1274   -1.9638   -0.6696 H         1 <0>         0.1332
     39 H6          3.3973   -4.3842   -1.0062 H         1 <0>         0.1315
     40 H7         -0.8142   -4.9318   -0.4932 H         1 <0>         0.1372
     41 H8         -1.0899   -2.5137   -0.1445 H         1 <0>         0.1497
     42 H9          2.1443   -6.5154   -1.5687 H         1 <0>         0.4106
     43 H10         2.4357   -8.6178   -1.9711 H         1 <0>         0.2298
     44 H11        -2.0307   -7.6431   -0.1254 H         1 <0>         0.1505
     45 H12        -3.8995   -7.3339    1.4403 H         1 <0>         0.1569
     46 H13        -4.1858   -8.8626    3.3433 H         1 <0>         0.1453
     47 H14        -0.7087  -11.0469    2.1139 H         1 <0>         0.1429
     48 H15        -3.4904   -9.6117    5.1971 H         1 <0>         0.4470
     49 H16        -1.8241  -12.5554    3.0881 H         1 <0>         0.4466
     50 H17        -2.3454  -12.8390    4.6599 H         1 <0>         0.4339
     51 H18         1.5393   -1.1842   -3.1085 H         1 <0>         0.4157
     52 H19         0.4283   -1.7573   -4.2310 H         1 <0>         0.4214
     53 H20        -3.3093  -11.1361    5.8800 H         1 <0>         0.4339
@<TRIPOS>BOND
     1    1    6 ar
     2    1    2 ar
     3    1   34 1
     4    2    3 ar
     5    2   35 1
     6    3    4 ar
     7    3   36 1
     8    4    5 ar
     9    4   30 1
    10    5    6 ar
    11    5    7 1
    12    6   37 1
    13    7   12 ar
    14    7    8 ar
    15    8    9 ar
    16    8   38 1
    17    9   10 ar
    18    9   39 1
    19   10   11 ar
    20   10   13 1
    21   11   12 ar
    22   11   40 1
    23   12   41 1
    24   13   14 am
    25   13   42 1
    26   14   15 2
    27   14   16 1
    28   16   20 1
    29   16   17 2
    30   17   18 1
    31   17   43 1
    32   18   19 1
    33   19   20 2
    34   20   21 1
    35   21   26 ar
    36   21   22 ar
    37   22   23 ar
    38   22   44 1
    39   23   24 ar
    40   23   45 1
    41   24   25 ar
    42   24   46 1
    43   25   26 ar
    44   25   27 1
    45   26   47 1
    46   27   28 2
    47   27   29 1
    48   28   48 1
    49   28   53 1
    50   29   49 1
    51   29   50 1
    52   30   31 2
    53   30   32 2
    54   30   33 1
    55   33   51 1
    56   33   52 1
@<TRIPOS>MOLECULE
ZINC13808154
   26    26     0     0     0
SMALL
USER_CHARGES

@<TRIPOS>ATOM
      1 C1         -0.0168    1.3849    0.0097 C.ar      1 <0>        -0.2172
      2 C2          1.1707    2.0901    0.0021 C.ar      1 <0>         0.0322
      3 C3          2.3774    1.4150   -0.0135 C.ar      1 <0>        -0.7379
      4 C4          2.3998    0.0323   -0.0211 C.ar      1 <0>         0.0260
      5 C5          1.2161   -0.6790   -0.0137 C.ar      1 <0>        -0.2168
      6 C6          0.0021   -0.0041    0.0020 C.ar      1 <0>         0.2728
      7 N1         -1.1970   -0.7204    0.0101 N.pl3     1 <0>        -0.8637
      8 S1          3.8900    2.3186   -0.0243 S.o2      1 <0>         2.7001
      9 O1          4.8717    1.4606   -0.5894 O.2       1 <0>        -0.9428
     10 O2          3.5945    3.5988   -0.5657 O.2       1 <0>        -0.9432
     11 N2          4.3264    2.5618    1.5546 N.pl3     1 <0>        -0.9005
     12 N3          4.5541    1.4645    2.3954 N.pl3     1 <0>        -0.5517
     13 C7          5.7497    1.3471    3.0639 C.2       1 <0>         0.6388
     14 N4          6.6714    2.2567    2.9154 N.2       1 <0>        -0.8116
     15 N5          5.9731    0.2704    3.8889 N.pl3     1 <0>        -0.8423
     16 H1         -0.9589    1.9127    0.0260 H         1 <0>         0.1324
     17 H2          1.1567    3.1700    0.0080 H         1 <0>         0.1412
     18 H3          3.3440   -0.4918   -0.0333 H         1 <0>         0.1408
     19 H4          1.2342   -1.7588   -0.0200 H         1 <0>         0.1325
     20 H5         -2.0441   -0.2480    0.0210 H         1 <0>         0.4048
     21 H6         -1.1825   -1.6903    0.0047 H         1 <0>         0.4047
     22 H7          4.4243    3.4639    1.8973 H         1 <0>         0.4217
     23 H8          3.8682    0.7876    2.5059 H         1 <0>         0.4104
     24 H9          5.2872   -0.4066    3.9994 H         1 <0>         0.4033
     25 H10         6.8167    0.1876    4.3606 H         1 <0>         0.4238
     26 H11         6.5137    3.0165    2.3333 H         1 <0>         0.3423
@<TRIPOS>BOND
     1    1    6 ar
     2    1    2 ar
     3    1   16 1
     4    2    3 ar
     5    2   17 1
     6    3    4 ar
     7    3    8 1
     8    4    5 ar
     9    4   18 1
    10    5    6 ar
    11    5   19 1
    12    6    7 1
    13    7   20 1
    14    7   21 1
    15    8    9 2
    16    8   10 2
    17    8   11 1
    18   11   12 1
    19   11   22 1
    20   12   13 1
    21   12   23 1
    22   13   14 2
    23   13   15 1
    24   14   26 1
    25   15   24 1
    26   15   25 1
@<TRIPOS>MOLECULE
ZINC13808154
   26    26     0     0     0
SMALL
USER_CHARGES

@<TRIPOS>ATOM
      1 C1         -0.0168    1.3849    0.0097 C.ar      1 <0>        -0.2212
      2 C2          1.1707    2.0901    0.0021 C.ar      1 <0>         0.0252
      3 C3          2.3774    1.4150   -0.0135 C.ar      1 <0>        -0.7214
      4 C4          2.3998    0.0323   -0.0211 C.ar      1 <0>         0.0429
      5 C5          1.2161   -0.6790   -0.0137 C.ar      1 <0>        -0.2211
      6 C6          0.0021   -0.0041    0.0020 C.ar      1 <0>         0.2665
      7 N1         -1.1970   -0.7204    0.0101 N.pl3     1 <0>        -0.8681
      8 S1          3.8900    2.3186   -0.0243 S.o2      1 <0>         2.7304
      9 O1          4.8717    1.4606   -0.5894 O.2       1 <0>        -0.9509
     10 O2          3.5945    3.5988   -0.5657 O.2       1 <0>        -0.9650
     11 N2          4.3264    2.5618    1.5546 N.pl3     1 <0>        -0.9562
     12 N3          4.5541    1.4645    2.3954 N.2       1 <0>        -0.3803
     13 C7          4.8963    1.6552    3.6338 C.2       1 <0>         0.5916
     14 N4          5.0364    2.9462    4.1242 N.pl3     1 <0>        -0.8902
     15 N5          5.1219    0.5680    4.4669 N.pl3     1 <0>        -0.8445
     16 H1         -0.9589    1.9127    0.0260 H         1 <0>         0.1280
     17 H2          1.1567    3.1700    0.0080 H         1 <0>         0.1363
     18 H3          3.3440   -0.4918   -0.0333 H         1 <0>         0.1412
     19 H4          1.2342   -1.7588   -0.0200 H         1 <0>         0.1289
     20 H5         -2.0441   -0.2480    0.0210 H         1 <0>         0.4022
     21 H6         -1.1825   -1.6903    0.0047 H         1 <0>         0.4027
     22 H7          4.4243    3.4639    1.8973 H         1 <0>         0.3859
     23 H8          5.0240   -0.3341    4.1242 H         1 <0>         0.4201
     24 H9          5.3775    0.7105    5.3917 H         1 <0>         0.4087
     25 H10         4.8788    3.7059    3.5421 H         1 <0>         0.4074
     26 H11         5.2920    3.0887    5.0491 H         1 <0>         0.4008
@<TRIPOS>BOND
     1    1    6 ar
     2    1    2 ar
     3    1   16 1
     4    2    3 ar
     5    2   17 1
     6    3    4 ar
     7    3    8 1
     8    4    5 ar
     9    4   18 1
    10    5    6 ar
    11    5   19 1
    12    6    7 1
    13    7   20 1
    14    7   21 1
    15    8    9 2
    16    8   10 2
    17    8   11 1
    18   11   12 1
    19   11   22 1
    20   12   13 2
    21   13   14 1
    22   13   15 1
    23   14   25 1
    24   14   26 1
    25   15   23 1
    26   15   24 1
@<TRIPOS>MOLECULE
ZINC13808154
   26    26     0     0     0
SMALL
USER_CHARGES

@<TRIPOS>ATOM
      1 C1         -0.0168    1.3849    0.0097 C.ar      1 <0>        -0.2174
      2 C2          1.1707    2.0901    0.0021 C.ar      1 <0>         0.0323
      3 C3          2.3774    1.4150   -0.0135 C.ar      1 <0>        -0.7389
      4 C4          2.3998    0.0323   -0.0211 C.ar      1 <0>         0.0243
      5 C5          1.2161   -0.6790   -0.0137 C.ar      1 <0>        -0.2175
      6 C6          0.0021   -0.0041    0.0020 C.ar      1 <0>         0.2710
      7 N1         -1.1970   -0.7204    0.0101 N.pl3     1 <0>        -0.8648
      8 S1          3.8900    2.3186   -0.0243 S.o2      1 <0>         2.7022
      9 O1          4.8717    1.4606   -0.5894 O.2       1 <0>        -0.9464
     10 O2          3.5945    3.5988   -0.5657 O.2       1 <0>        -0.9454
     11 N2          4.3264    2.5618    1.5546 N.pl3     1 <0>        -0.8807
     12 N3          4.5541    1.4645    2.3954 N.pl3     1 <0>        -0.5054
     13 C7          5.7497    1.3471    3.0639 C.2       1 <0>         0.6352
     14 N4          6.6714    2.2567    2.9154 N.2       1 <0>        -0.8107
     15 N5          5.9731    0.2704    3.8889 N.pl3     1 <0>        -0.8919
     16 H1         -0.9589    1.9127    0.0260 H         1 <0>         0.1318
     17 H2          1.1567    3.1700    0.0080 H         1 <0>         0.1417
     18 H3          3.3440   -0.4918   -0.0333 H         1 <0>         0.1403
     19 H4          1.2342   -1.7588   -0.0200 H         1 <0>         0.1315
     20 H5         -2.0441   -0.2480    0.0210 H         1 <0>         0.4044
     21 H6         -1.1825   -1.6903    0.0047 H         1 <0>         0.4041
     22 H7          4.4243    3.4639    1.8973 H         1 <0>         0.4276
     23 H8          3.8682    0.7876    2.5059 H         1 <0>         0.4247
     24 H9          5.2872   -0.4066    3.9994 H         1 <0>         0.3910
     25 H10         6.8167    0.1876    4.3606 H         1 <0>         0.4135
     26 H11         7.5149    2.1739    3.3870 H         1 <0>         0.3434
@<TRIPOS>BOND
     1    1    6 ar
     2    1    2 ar
     3    1   16 1
     4    2    3 ar
     5    2   17 1
     6    3    4 ar
     7    3    8 1
     8    4    5 ar
     9    4   18 1
    10    5    6 ar
    11    5   19 1
    12    6    7 1
    13    7   20 1
    14    7   21 1
    15    8    9 2
    16    8   10 2
    17    8   11 1
    18   11   12 1
    19   11   22 1
    20   12   13 1
    21   12   23 1
    22   13   14 2
    23   13   15 1
    24   14   26 1
    25   15   24 1
    26   15   25 1
@<TRIPOS>MOLECULE
ZINC13808139
   24    24     0     0     0
SMALL
USER_CHARGES

@<TRIPOS>ATOM
      1 C1         -0.0167    1.3782    0.0096 C.ar      1 <0>        -0.0089
      2 C2          1.1707    2.0857    0.0021 C.ar      1 <0>        -0.1106
      3 C3          2.3778    1.4105   -0.0131 C.ar      1 <0>        -0.0355
      4 C4          2.3961    0.0274   -0.0207 C.ar      1 <0>        -0.1108
      5 C5          1.2082   -0.6793   -0.0132 C.ar      1 <0>        -0.0156
      6 C6          0.0021   -0.0041    0.0020 C.ar      1 <0>        -0.6712
      7 S1         -1.5119   -0.9055    0.0117 S.o2      1 <0>         2.6981
      8 O1         -1.2185   -2.1862    0.5528 O.2       1 <0>        -0.9314
      9 O2         -2.4926   -0.0462    0.5765 O.2       1 <0>        -0.9325
     10 N1         -1.9477   -1.1475   -1.5675 N.pl3     1 <0>        -0.8974
     11 N2         -1.0983   -1.8552   -2.4281 N.pl3     1 <0>        -0.5533
     12 C7         -1.5696   -2.9517   -3.1106 C.2       1 <0>         0.6392
     13 N3         -2.8066   -3.3327   -2.9571 N.2       1 <0>        -0.8087
     14 N4         -0.7361   -3.6462   -3.9550 N.pl3     1 <0>        -0.8414
     15 Br1         4.0026    2.3779   -0.0240 Br        1 <0>        -0.0267
     16 H1         -0.9592    1.9053    0.0260 H         1 <0>         0.1531
     17 H2          1.1559    3.1656    0.0077 H         1 <0>         0.1473
     18 H3          3.3384   -0.5003   -0.0329 H         1 <0>         0.1474
     19 H4          1.2224   -1.7592   -0.0191 H         1 <0>         0.1526
     20 H5         -2.7910   -0.7992   -1.8967 H         1 <0>         0.4249
     21 H6         -0.1778   -1.5716   -2.5423 H         1 <0>         0.4104
     22 H7          0.1844   -3.3626   -4.0693 H         1 <0>         0.4038
     23 H8         -1.0686   -4.4198   -4.4366 H         1 <0>         0.4247
     24 H9         -3.3947   -2.8427   -2.3613 H         1 <0>         0.3425
@<TRIPOS>BOND
     1    1    6 ar
     2    1    2 ar
     3    1   16 1
     4    2    3 ar
     5    2   17 1
     6    3    4 ar
     7    3   15 1
     8    4    5 ar
     9    4   18 1
    10    5    6 ar
    11    5   19 1
    12    6    7 1
    13    7    8 2
    14    7    9 2
    15    7   10 1
    16   10   11 1
    17   10   20 1
    18   11   12 1
    19   11   21 1
    20   12   13 2
    21   12   14 1
    22   13   24 1
    23   14   22 1
    24   14   23 1
@<TRIPOS>MOLECULE
ZINC13808139
   24    24     0     0     0
SMALL
USER_CHARGES

@<TRIPOS>ATOM
      1 C1         -0.0167    1.3782    0.0096 C.ar      1 <0>        -0.0149
      2 C2          1.1707    2.0857    0.0021 C.ar      1 <0>        -0.1148
      3 C3          2.3778    1.4105   -0.0131 C.ar      1 <0>        -0.0456
      4 C4          2.3961    0.0274   -0.0207 C.ar      1 <0>        -0.1148
      5 C5          1.2082   -0.6793   -0.0132 C.ar      1 <0>        -0.0149
      6 C6          0.0021   -0.0041    0.0020 C.ar      1 <0>        -0.6044
      7 S1         -1.5119   -0.9055    0.0117 S.o2      1 <0>         2.6020
      8 O1         -1.2185   -2.1862    0.5528 O.2       1 <0>        -1.0165
      9 O2         -2.4926   -0.0462    0.5765 O.2       1 <0>        -1.0165
     10 N1         -1.9477   -1.1475   -1.5675 N.2       1 <0>        -0.9435
     11 N2         -3.1245   -1.8447   -1.8705 N.pl3     1 <0>        -0.3955
     12 C7         -3.4664   -2.0345   -3.1092 C.cat     1 <0>         0.7040
     13 N3         -2.6657   -1.5465   -4.1327 N.pl3     1 <0>        -0.8141
     14 N4         -4.6323   -2.7253   -3.4093 N.pl3     1 <0>        -0.8516
     15 Br1         4.0026    2.3779   -0.0240 Br        1 <0>        -0.0403
     16 H1         -0.9592    1.9053    0.0260 H         1 <0>         0.1480
     17 H2          1.1559    3.1656    0.0077 H         1 <0>         0.1415
     18 H3          3.3384   -0.5003   -0.0329 H         1 <0>         0.1415
     19 H4          1.2224   -1.7592   -0.0191 H         1 <0>         0.1480
     20 H5         -5.1918   -3.0663   -2.6941 H         1 <0>         0.4236
     21 H6         -4.8876   -2.8671   -4.3343 H         1 <0>         0.4266
     22 H7         -1.8509   -1.0638   -3.9230 H         1 <0>         0.4409
     23 H8         -2.9210   -1.6883   -5.0577 H         1 <0>         0.4154
     24 H9         -3.6840   -2.1857   -1.1552 H         1 <0>         0.3958
@<TRIPOS>BOND
     1    1    6 ar
     2    1    2 ar
     3    1   16 1
     4    2    3 ar
     5    2   17 1
     6    3    4 ar
     7    3   15 1
     8    4    5 ar
     9    4   18 1
    10    5    6 ar
    11    5   19 1
    12    6    7 1
    13    7    8 2
    14    7    9 2
    15    7   10 1
    16   10   11 1
    17   11   12 2
    18   11   24 1
    19   12   13 1
    20   12   14 1
    21   13   22 1
    22   13   23 1
    23   14   20 1
    24   14   21 1
@<TRIPOS>MOLECULE
ZINC13808139
   25    25     0     0     0
SMALL
USER_CHARGES

@<TRIPOS>ATOM
      1 C1         -0.0167    1.3782    0.0096 C.ar      1 <0>        -0.0046
      2 C2          1.1707    2.0857    0.0021 C.ar      1 <0>        -0.1051
      3 C3          2.3778    1.4105   -0.0131 C.ar      1 <0>        -0.0286
      4 C4          2.3961    0.0274   -0.0207 C.ar      1 <0>        -0.1061
      5 C5          1.2082   -0.6793   -0.0132 C.ar      1 <0>        -0.0259
      6 C6          0.0021   -0.0041    0.0020 C.ar      1 <0>        -0.6825
      7 S1         -1.5119   -0.9055    0.0117 S.o2      1 <0>         2.6807
      8 O1         -1.2185   -2.1862    0.5528 O.2       1 <0>        -0.9098
      9 O2         -2.4926   -0.0462    0.5765 O.2       1 <0>        -0.8927
     10 N1         -1.9477   -1.1475   -1.5675 N.pl3     1 <0>        -0.9130
     11 N2         -1.0983   -1.8552   -2.4281 N.pl3     1 <0>        -0.4259
     12 C7         -1.4402   -2.0450   -3.6667 C.cat     1 <0>         0.7403
     13 N3         -2.6470   -1.5466   -4.1379 N.pl3     1 <0>        -0.8077
     14 N4         -0.5987   -2.7463   -4.5193 N.pl3     1 <0>        -0.8008
     15 Br1         4.0026    2.3779   -0.0240 Br        1 <0>        -0.0088
     16 H1         -0.9592    1.9053    0.0260 H         1 <0>         0.1565
     17 H2          1.1559    3.1656    0.0077 H         1 <0>         0.1531
     18 H3          3.3384   -0.5003   -0.0329 H         1 <0>         0.1525
     19 H4          1.2224   -1.7592   -0.0191 H         1 <0>         0.1520
     20 H5          0.2447   -3.0945   -4.1901 H         1 <0>         0.4418
     21 H6         -0.8540   -2.8880   -5.4444 H         1 <0>         0.4471
     22 H7         -3.2351   -1.0566   -3.5421 H         1 <0>         0.4345
     23 H8         -2.9023   -1.6884   -5.0629 H         1 <0>         0.4455
     24 H9         -0.2550   -2.2035   -2.0988 H         1 <0>         0.4646
     25 H10        -2.7910   -0.7992   -1.8967 H         1 <0>         0.4430
@<TRIPOS>BOND
     1    1    6 ar
     2    1    2 ar
     3    1   16 1
     4    2    3 ar
     5    2   17 1
     6    3    4 ar
     7    3   15 1
     8    4    5 ar
     9    4   18 1
    10    5    6 ar
    11    5   19 1
    12    6    7 1
    13    7    8 2
    14    7    9 2
    15    7   10 1
    16   10   11 1
    17   10   25 1
    18   11   12 2
    19   11   24 1
    20   12   13 1
    21   12   14 1
    22   13   22 1
    23   13   23 1
    24   14   20 1
    25   14   21 1
@<TRIPOS>MOLECULE
ZINC13808173
   30    31     0     0     0
SMALL
USER_CHARGES

@<TRIPOS>ATOM
      1 C1         -0.0164    1.3567    0.0095 C.ar      1 <0>        -0.0899
      2 C2          1.1686    2.0905    0.0021 C.ar      1 <0>        -0.1200
      3 C3          2.3785    1.4675   -0.0131 C.ar      1 <0>        -0.0895
      4 C4          2.4375    0.0634   -0.0211 C.ar      1 <0>        -0.0804
      5 C5          3.6681   -0.6153   -0.0364 C.ar      1 <0>         0.0250
      6 C6          3.6865   -1.9761   -0.0434 C.ar      1 <0>        -0.6770
      7 C7          2.5015   -2.7098   -0.0357 C.ar      1 <0>        -0.0503
      8 C8          1.2917   -2.0868   -0.0209 C.ar      1 <0>        -0.1130
      9 C9          1.2327   -0.6827   -0.0133 C.ar      1 <0>        -0.0103
     10 C10         0.0021   -0.0041    0.0020 C.ar      1 <0>        -0.1201
     11 S1          5.2315   -2.8230   -0.0631 S.o2      1 <0>         2.6960
     12 O1          4.9835   -4.1075   -0.6179 O.2       1 <0>        -0.9337
     13 O2          6.1807   -1.9234   -0.6189 O.2       1 <0>        -0.9375
     14 N1          5.6766   -3.0663    1.5133 N.pl3     1 <0>        -0.8984
     15 N2          4.8535   -3.8129    2.3664 N.pl3     1 <0>        -0.5522
     16 C11         5.3638   -4.8992    3.0370 C.2       1 <0>         0.6392
     17 N3          6.6135   -5.2344    2.8792 N.2       1 <0>        -0.8101
     18 N4          4.5560   -5.6319    3.8742 N.pl3     1 <0>        -0.8416
     19 H1         -0.9633    1.8757    0.0259 H         1 <0>         0.1303
     20 H2          1.1260    3.1696    0.0083 H         1 <0>         0.1307
     21 H3          3.2884    2.0491   -0.0194 H         1 <0>         0.1352
     22 H4          4.5943   -0.0599   -0.0428 H         1 <0>         0.1482
     23 H5          2.5441   -3.7890   -0.0419 H         1 <0>         0.1414
     24 H6          0.3816   -2.6684   -0.0154 H         1 <0>         0.1388
     25 H7         -0.9241   -0.5595    0.0082 H         1 <0>         0.1343
     26 H8          6.5072   -2.6918    1.8461 H         1 <0>         0.4235
     27 H9          3.9235   -3.5635    2.4839 H         1 <0>         0.4111
     28 H10         3.6261   -5.3824    3.9917 H         1 <0>         0.4037
     29 H11         4.9161   -6.3983    4.3473 H         1 <0>         0.4243
     30 H12         7.1834   -4.7174    2.2885 H         1 <0>         0.3422
@<TRIPOS>BOND
     1    1   10 ar
     2    1    2 ar
     3    1   19 1
     4    2    3 ar
     5    2   20 1
     6    3    4 ar
     7    3   21 1
     8    4    9 ar
     9    4    5 ar
    10    5    6 ar
    11    5   22 1
    12    6    7 ar
    13    6   11 1
    14    7    8 ar
    15    7   23 1
    16    8    9 ar
    17    8   24 1
    18    9   10 ar
    19   10   25 1
    20   11   12 2
    21   11   13 2
    22   11   14 1
    23   14   15 1
    24   14   26 1
    25   15   16 1
    26   15   27 1
    27   16   17 2
    28   16   18 1
    29   17   30 1
    30   18   28 1
    31   18   29 1
@<TRIPOS>MOLECULE
ZINC13808173
   30    31     0     0     0
SMALL
USER_CHARGES

@<TRIPOS>ATOM
      1 C1         -0.0164    1.3567    0.0095 C.ar      1 <0>        -0.0987
      2 C2          1.1686    2.0905    0.0021 C.ar      1 <0>        -0.1257
      3 C3          2.3785    1.4675   -0.0131 C.ar      1 <0>        -0.0899
      4 C4          2.4375    0.0634   -0.0211 C.ar      1 <0>        -0.0790
      5 C5          3.6681   -0.6153   -0.0364 C.ar      1 <0>         0.0127
      6 C6          3.6865   -1.9761   -0.0434 C.ar      1 <0>        -0.6117
      7 C7          2.5015   -2.7098   -0.0357 C.ar      1 <0>        -0.0388
      8 C8          1.2917   -2.0868   -0.0209 C.ar      1 <0>        -0.1251
      9 C9          1.2327   -0.6827   -0.0133 C.ar      1 <0>        -0.0161
     10 C10         0.0021   -0.0041    0.0020 C.ar      1 <0>        -0.1187
     11 S1          5.2315   -2.8230   -0.0631 S.o2      1 <0>         2.6013
     12 O1          4.9835   -4.1075   -0.6179 O.2       1 <0>        -1.0182
     13 O2          6.1807   -1.9234   -0.6189 O.2       1 <0>        -1.0206
     14 N1          5.6766   -3.0663    1.5133 N.2       1 <0>        -0.9445
     15 N2          6.8776   -3.7245    1.8085 N.pl3     1 <0>        -0.3943
     16 C11         7.2268   -3.9153    3.0450 C.cat     1 <0>         0.7023
     17 N3          6.4099   -3.4670    4.0739 N.pl3     1 <0>        -0.8145
     18 N4          8.4167   -4.5674    3.3375 N.pl3     1 <0>        -0.8522
     19 H1         -0.9633    1.8757    0.0259 H         1 <0>         0.1263
     20 H2          1.1260    3.1696    0.0083 H         1 <0>         0.1267
     21 H3          3.2884    2.0491   -0.0194 H         1 <0>         0.1317
     22 H4          4.5943   -0.0599   -0.0428 H         1 <0>         0.1438
     23 H5          2.5441   -3.7890   -0.0419 H         1 <0>         0.1378
     24 H6          0.3816   -2.6684   -0.0154 H         1 <0>         0.1339
     25 H7         -0.9241   -0.5595    0.0082 H         1 <0>         0.1306
     26 H8          8.9875   -4.8806    2.6185 H         1 <0>         0.4233
     27 H9          8.6775   -4.7099    4.2608 H         1 <0>         0.4263
     28 H10         5.5784   -3.0113    3.8696 H         1 <0>         0.4409
     29 H11         6.6707   -3.6095    4.9973 H         1 <0>         0.4150
     30 H12         7.4484   -4.0377    1.0895 H         1 <0>         0.3952
@<TRIPOS>BOND
     1    1   10 ar
     2    1    2 ar
     3    1   19 1
     4    2    3 ar
     5    2   20 1
     6    3    4 ar
     7    3   21 1
     8    4    9 ar
     9    4    5 ar
    10    5    6 ar
    11    5   22 1
    12    6    7 ar
    13    6   11 1
    14    7    8 ar
    15    7   23 1
    16    8    9 ar
    17    8   24 1
    18    9   10 ar
    19   10   25 1
    20   11   12 2
    21   11   13 2
    22   11   14 1
    23   14   15 1
    24   15   16 2
    25   15   30 1
    26   16   17 1
    27   16   18 1
    28   17   28 1
    29   17   29 1
    30   18   26 1
    31   18   27 1
@<TRIPOS>MOLECULE
ZINC13808173
   31    32     0     0     0
SMALL
USER_CHARGES

@<TRIPOS>ATOM
      1 C1         -0.0164    1.3567    0.0095 C.ar      1 <0>        -0.0795
      2 C2          1.1686    2.0905    0.0021 C.ar      1 <0>        -0.1111
      3 C3          2.3785    1.4675   -0.0131 C.ar      1 <0>        -0.0912
      4 C4          2.4375    0.0634   -0.0211 C.ar      1 <0>        -0.0806
      5 C5          3.6681   -0.6153   -0.0364 C.ar      1 <0>         0.0356
      6 C6          3.6865   -1.9761   -0.0434 C.ar      1 <0>        -0.6886
      7 C7          2.5015   -2.7098   -0.0357 C.ar      1 <0>        -0.0706
      8 C8          1.2917   -2.0868   -0.0209 C.ar      1 <0>        -0.0989
      9 C9          1.2327   -0.6827   -0.0133 C.ar      1 <0>        -0.0079
     10 C10         0.0021   -0.0041    0.0020 C.ar      1 <0>        -0.1212
     11 S1          5.2315   -2.8230   -0.0631 S.o2      1 <0>         2.6771
     12 O1          4.9835   -4.1075   -0.6179 O.2       1 <0>        -0.9125
     13 O2          6.1807   -1.9234   -0.6189 O.2       1 <0>        -0.8988
     14 N1          5.6766   -3.0663    1.5133 N.pl3     1 <0>        -0.9140
     15 N2          4.8535   -3.8129    2.3664 N.pl3     1 <0>        -0.4232
     16 C11         5.2026   -4.0037    3.6029 C.cat     1 <0>         0.7392
     17 N3          6.3913   -3.4679    4.0791 N.pl3     1 <0>        -0.8087
     18 N4          4.3871   -4.7435    4.4482 N.pl3     1 <0>        -0.8017
     19 H1         -0.9633    1.8757    0.0259 H         1 <0>         0.1360
     20 H2          1.1260    3.1696    0.0083 H         1 <0>         0.1361
     21 H3          3.2884    2.0491   -0.0194 H         1 <0>         0.1384
     22 H4          4.5943   -0.0599   -0.0428 H         1 <0>         0.1509
     23 H5          2.5441   -3.7890   -0.0419 H         1 <0>         0.1397
     24 H6          0.3816   -2.6684   -0.0154 H         1 <0>         0.1429
     25 H7         -0.9241   -0.5595    0.0082 H         1 <0>         0.1385
     26 H8          3.5564   -5.1180    4.1154 H         1 <0>         0.4417
     27 H9          4.6478   -4.8860    5.3715 H         1 <0>         0.4465
     28 H10         6.9612   -2.9509    3.4884 H         1 <0>         0.4342
     29 H11         6.6520   -3.6103    5.0024 H         1 <0>         0.4449
     30 H12         4.0228   -4.1874    2.0337 H         1 <0>         0.4653
     31 H13         6.5072   -2.6918    1.8461 H         1 <0>         0.4416
@<TRIPOS>BOND
     1    1   10 ar
     2    1    2 ar
     3    1   19 1
     4    2    3 ar
     5    2   20 1
     6    3    4 ar
     7    3   21 1
     8    4    9 ar
     9    4    5 ar
    10    5    6 ar
    11    5   22 1
    12    6    7 ar
    13    6   11 1
    14    7    8 ar
    15    7   23 1
    16    8    9 ar
    17    8   24 1
    18    9   10 ar
    19   10   25 1
    20   11   12 2
    21   11   13 2
    22   11   14 1
    23   14   15 1
    24   14   31 1
    25   15   16 2
    26   15   30 1
    27   16   17 1
    28   16   18 1
    29   17   28 1
    30   17   29 1
    31   18   26 1
    32   18   27 1
@<TRIPOS>MOLECULE
ZINC03873927
   24    24     0     0     0
SMALL
USER_CHARGES

@<TRIPOS>ATOM
      1 C1         -0.0168    1.3849    0.0097 C.ar      1 <0>        -0.2190
      2 C2          1.1707    2.0901    0.0021 C.ar      1 <0>         0.0297
      3 C3          2.3774    1.4150   -0.0135 C.ar      1 <0>        -0.6921
      4 C4          2.3998    0.0323   -0.0211 C.ar      1 <0>         0.0297
      5 C5          1.2161   -0.6790   -0.0137 C.ar      1 <0>        -0.2189
      6 C6          0.0021   -0.0041    0.0020 C.ar      1 <0>         0.2662
      7 N1         -1.1970   -0.7204    0.0101 N.pl3     1 <0>        -0.8673
      8 S1          3.8900    2.3186   -0.0243 S.o2      1 <0>         2.6539
      9 O1          4.8717    1.4606   -0.5894 O.2       1 <0>        -0.9933
     10 O2          3.5945    3.5988   -0.5657 O.2       1 <0>        -0.9933
     11 N2          4.3264    2.5618    1.5546 N.2       1 <0>        -1.0531
     12 C7          5.4204    3.2122    1.8357 C.2       1 <0>         0.7470
     13 N3          6.2121    3.6964    0.8213 N.pl3     1 <0>        -0.8802
     14 N4          5.7826    3.4141    3.1464 N.pl3     1 <0>        -0.8187
     15 H1         -0.9589    1.9127    0.0260 H         1 <0>         0.1305
     16 H2          1.1567    3.1700    0.0080 H         1 <0>         0.1387
     17 H3          3.3440   -0.4918   -0.0333 H         1 <0>         0.1387
     18 H4          1.2342   -1.7588   -0.0200 H         1 <0>         0.1305
     19 H5         -2.0441   -0.2480    0.0210 H         1 <0>         0.4029
     20 H6         -1.1825   -1.6903    0.0047 H         1 <0>         0.4029
     21 H7          5.9565    3.5539   -0.1035 H         1 <0>         0.4125
     22 H8          7.0263    4.1804    1.0305 H         1 <0>         0.4128
     23 H9          5.2240    3.0725    3.8621 H         1 <0>         0.4292
     24 H10         6.5968    3.8981    3.3556 H         1 <0>         0.4110
@<TRIPOS>BOND
     1    1    6 ar
     2    1    2 ar
     3    1   15 1
     4    2    3 ar
     5    2   16 1
     6    3    4 ar
     7    3    8 1
     8    4    5 ar
     9    4   17 1
    10    5    6 ar
    11    5   18 1
    12    6    7 1
    13    7   19 1
    14    7   20 1
    15    8    9 2
    16    8   10 2
    17    8   11 1
    18   11   12 2
    19   12   13 1
    20   12   14 1
    21   13   21 1
    22   13   22 1
    23   14   23 1
    24   14   24 1
@<TRIPOS>MOLECULE
ZINC13808126
   44    45     0     0     0
SMALL
USER_CHARGES

@<TRIPOS>ATOM
      1 C1         -0.0178    1.4608    0.0101 C.3       1 <0>         0.0867
      2 N1          0.0021   -0.0041    0.0020 N.pl3     1 <0>        -0.6226
      3 C2          1.2806   -0.7192   -0.0140 C.3       1 <0>         0.0836
      4 C3         -1.1942   -0.7166    0.0096 C.ar      1 <0>         0.2579
      5 C4         -1.1732   -2.1084    0.0077 C.ar      1 <0>        -0.2100
      6 C5         -2.3535   -2.8163    0.0152 C.ar      1 <0>         0.0106
      7 C6         -3.5756   -2.1351    0.0247 C.ar      1 <0>        -0.0313
      8 C7         -3.5925   -0.7360    0.0266 C.ar      1 <0>        -0.0270
      9 C8         -2.4079   -0.0353    0.0249 C.ar      1 <0>        -0.2083
     10 N2         -4.7478   -2.8333    0.0317 N.2       1 <0>        -0.1701
     11 N3         -5.8736   -2.2036    0.0405 N.2       1 <0>        -0.2636
     12 C9         -7.0481   -2.9032    0.0475 C.ar      1 <0>         0.1218
     13 C10        -7.0330   -4.3006    0.0510 C.ar      1 <0>        -0.1370
     14 C11        -8.2218   -4.9996    0.0580 C.ar      1 <0>        -0.0158
     15 C12        -9.4277   -4.3206    0.0616 C.ar      1 <0>        -0.6298
     16 C13        -9.4505   -2.9369    0.0578 C.ar      1 <0>        -0.0169
     17 C14        -8.2696   -2.2244    0.0571 C.ar      1 <0>        -0.0947
     18 S1        -10.9415   -5.2223    0.0706 S.o2      1 <0>         2.6484
     19 O1        -11.9301   -4.3616   -0.4780 O.2       1 <0>        -0.9793
     20 O2        -10.6555   -6.5014   -0.4783 O.2       1 <0>        -0.9796
     21 N4        -11.3551   -5.4689    1.6550 N.2       1 <0>        -1.0481
     22 C15       -12.4437   -6.1174    1.9498 C.2       1 <0>         0.6960
     23 N5        -13.2499   -6.5975    0.9469 N.pl3     1 <0>        -0.8427
     24 O3        -12.7812   -6.3186    3.2423 O.3       1 <0>        -0.3071
     25 C16       -11.8966   -5.7919    4.2333 C.3       1 <0>         0.0502
     26 H1          1.0048    1.8381    0.0023 H         1 <0>         0.0788
     27 H2         -0.5450    1.8219   -0.8730 H         1 <0>         0.0608
     28 H3         -0.5280    1.8123    0.9069 H         1 <0>         0.0609
     29 H4          1.6074   -0.9021    1.0096 H         1 <0>         0.0562
     30 H5          1.1583   -1.6705   -0.5318 H         1 <0>         0.0743
     31 H6          2.0272   -0.1171   -0.5318 H         1 <0>         0.0729
     32 H7         -0.2294   -2.6335   -0.0001 H         1 <0>         0.1362
     33 H8         -2.3363   -3.8962    0.0133 H         1 <0>         0.1383
     34 H9         -4.5339   -0.2066    0.0337 H         1 <0>         0.1398
     35 H10        -2.4201    1.0446    0.0308 H         1 <0>         0.1300
     36 H11        -6.0927   -4.8318    0.0477 H         1 <0>         0.1451
     37 H12        -8.2117   -6.0796    0.0603 H         1 <0>         0.1433
     38 H13       -10.3953   -2.4137    0.0604 H         1 <0>         0.1481
     39 H14        -8.2889   -1.1446    0.0590 H         1 <0>         0.1444
     40 H15       -13.0076   -6.4530    0.0188 H         1 <0>         0.4200
     41 H16       -11.8210   -4.7109    4.1152 H         1 <0>         0.0740
     42 H17       -12.2839   -6.0227    5.2257 H         1 <0>         0.1085
     43 H18       -10.9101   -6.2401    4.1150 H         1 <0>         0.0738
     44 H19       -14.0616   -7.0810    1.1666 H         1 <0>         0.4238
@<TRIPOS>BOND
     1    1    2 1
     2    1   26 1
     3    1   27 1
     4    1   28 1
     5    2    3 1
     6    2    4 1
     7    3   29 1
     8    3   30 1
     9    3   31 1
    10    4    9 ar
    11    4    5 ar
    12    5    6 ar
    13    5   32 1
    14    6    7 ar
    15    6   33 1
    16    7    8 ar
    17    7   10 1
    18    8    9 ar
    19    8   34 1
    20    9   35 1
    21   10   11 2
    22   11   12 1
    23   12   17 ar
    24   12   13 ar
    25   13   14 ar
    26   13   36 1
    27   14   15 ar
    28   14   37 1
    29   15   16 ar
    30   15   18 1
    31   16   17 ar
    32   16   38 1
    33   17   39 1
    34   18   19 2
    35   18   20 2
    36   18   21 1
    37   21   22 2
    38   22   23 1
    39   22   24 1
    40   23   40 1
    41   23   44 1
    42   24   25 1
    43   25   41 1
    44   25   42 1
    45   25   43 1
@<TRIPOS>MOLECULE
ZINC01910616
   60    63     0     0     0
SMALL
USER_CHARGES
3-[[2-[(4-amidinophenyl)aminomethyl]-1-methyl-benzoimidazol-5-yl]carbonyl-(2-pyridyl)amino]propanoic acid
@<TRIPOS>ATOM
      1 C1          0.5865   -1.8473    1.7596 C.3       1 <0>         0.0728
      2 N1         -0.0011   -1.5841    3.0754 N.pl3     1 <0>        -0.4807
      3 C2          0.6873   -1.4122    4.2568 C.ar      1 <0>         0.0845
      4 C3          2.0357   -1.4239    4.5969 C.ar      1 <0>        -0.1121
      5 C4          2.4180   -1.2162    5.8900 C.ar      1 <0>        -0.0691
      6 C5          1.4591   -0.9894    6.8866 C.ar      1 <0>        -0.1346
      7 C6          0.1055   -0.9743    6.5647 C.ar      1 <0>         0.0074
      8 C7         -0.2888   -1.1862    5.2445 C.ar      1 <0>         0.0276
      9 N2         -1.4970   -1.2314    4.6247 N.2       1 <0>        -0.4522
     10 C8         -1.3270   -1.4583    3.3553 C.2       1 <0>         0.2306
     11 C9         -2.4371   -1.5695    2.3423 C.3       1 <0>         0.2000
     12 N3         -2.8760   -2.9642    2.2500 N.pl3     1 <0>        -0.7081
     13 C10        -3.8991   -3.3156    1.3732 C.ar      1 <0>         0.2903
     14 C11        -4.5076   -2.3402    0.5894 C.ar      1 <0>        -0.2017
     15 C12        -5.5157   -2.6860   -0.2827 C.ar      1 <0>         0.0008
     16 C13        -5.9350   -4.0149   -0.3716 C.ar      1 <0>        -0.2332
     17 C14        -5.3265   -4.9907    0.4201 C.ar      1 <0>        -0.0066
     18 C15        -4.3149   -4.6405    1.2864 C.ar      1 <0>        -0.1916
     19 C16        -7.0210   -4.3881   -1.3031 C.cat     1 <0>         0.6028
     20 N4         -7.6208   -3.4237   -2.0842 N.pl3     1 <0>        -0.7922
     21 C17         1.8864   -0.7664    8.2821 C.2       1 <0>         0.5708
     22 O1          1.2765    0.0138    8.9873 O.2       1 <0>        -0.5153
     23 N5          2.9525   -1.4280    8.7743 N.am      1 <0>        -0.5330
     24 C18         3.8077   -2.2092    7.8774 C.3       1 <0>         0.0980
     25 C19         5.0983   -1.4353    7.6010 C.3       1 <0>        -0.1787
     26 C20         5.9781   -2.2389    6.6784 C.2       1 <0>         0.4674
     27 O2          5.6107   -3.3197    6.2826 O.co2     1 <0>        -0.6418
     28 C21         3.2412   -1.3688   10.1360 C.ar      1 <0>         0.3587
     29 C22         2.2767   -0.9077   11.0253 C.ar      1 <0>        -0.1939
     30 C23         2.5746   -0.8598   12.3755 C.ar      1 <0>        -0.0597
     31 C24         3.8359   -1.2656   12.7904 C.ar      1 <0>        -0.2031
     32 C25         4.7469   -1.7068   11.8515 C.ar      1 <0>         0.1276
     33 N6          4.4328   -1.7471   10.5707 N.ar      1 <0>        -0.4989
     34 H1          0.6785   -2.9233    1.6114 H         1 <0>         0.0794
     35 H2          1.5730   -1.3872    1.7035 H         1 <0>         0.0947
     36 H3         -0.0549   -1.4275    0.9847 H         1 <0>         0.0858
     37 H4          2.7819   -1.5982    3.8358 H         1 <0>         0.1371
     38 H5          3.4668   -1.2268    6.1473 H         1 <0>         0.1711
     39 H6         -0.6342   -0.7993    7.3319 H         1 <0>         0.1440
     40 H7         -3.2751   -0.9447    2.6514 H         1 <0>         0.1102
     41 H8         -2.0757   -1.2372    1.3692 H         1 <0>         0.0941
     42 H9         -2.4539   -3.6429    2.7996 H         1 <0>         0.4168
     43 H10        -4.1860   -1.3117    0.6618 H         1 <0>         0.1452
     44 H11        -5.9847   -1.9293   -0.8940 H         1 <0>         0.1350
     45 H12        -5.6487   -6.0194    0.3530 H         1 <0>         0.1335
     46 H13        -3.8437   -5.3951    1.8989 H         1 <0>         0.1452
     47 H14        -8.1155   -5.9726   -1.9664 H         1 <0>         0.4390
     48 H15        -7.3305   -2.5003   -2.0228 H         1 <0>         0.4401
     49 H16        -8.3332   -3.6685   -2.6952 H         1 <0>         0.4268
     50 H17         4.0496   -3.1634    8.3456 H         1 <0>         0.0897
     51 H18         3.2830   -2.3876    6.9389 H         1 <0>         0.1112
     52 H19         4.8566   -0.4811    7.1328 H         1 <0>         0.0627
     53 H20         5.6231   -1.2568    8.5395 H         1 <0>         0.0925
     54 H21         1.3068   -0.5952   10.6673 H         1 <0>         0.1662
     55 H22         1.8440   -0.5105   13.0902 H         1 <0>         0.1341
     56 H23         4.1018   -1.2361   13.8368 H         1 <0>         0.1331
     57 H24         5.7293   -2.0235   12.1695 H         1 <0>         0.1595
     58 N7         -7.3714   -5.6657   -1.3399 N.pl3     1 <0>        -0.7722
     59 H25        -6.8937   -6.3465   -0.7377 H         1 <0>         0.4572
     60 O3          7.1701   -1.7540    6.2963 O.co2     1 <0>        -0.7646
@<TRIPOS>BOND
     1    1    2 1
     2    1   34 1
     3    1   35 1
     4    1   36 1
     5    2   10 1
     6    2    3 1
     7    3    8 ar
     8    3    4 ar
     9    4    5 ar
    10    4   37 1
    11    5    6 ar
    12    5   38 1
    13    6    7 ar
    14    6   21 1
    15    7    8 ar
    16    7   39 1
    17    8    9 1
    18    9   10 2
    19   10   11 1
    20   11   12 1
    21   11   40 1
    22   11   41 1
    23   12   13 1
    24   12   42 1
    25   13   18 ar
    26   13   14 ar
    27   14   15 ar
    28   14   43 1
    29   15   16 ar
    30   15   44 1
    31   16   17 ar
    32   16   19 1
    33   17   18 ar
    34   17   45 1
    35   18   46 1
    36   19   20 1
    37   19   58 2
    38   20   48 1
    39   20   49 1
    40   21   22 2
    41   21   23 am
    42   23   24 1
    43   23   28 1
    44   24   25 1
    45   24   50 1
    46   24   51 1
    47   25   26 1
    48   25   52 1
    49   25   53 1
    50   26   27 2
    51   26   60 1
    52   28   33 ar
    53   28   29 ar
    54   29   30 ar
    55   29   54 1
    56   30   31 ar
    57   30   55 1
    58   31   32 ar
    59   31   56 1
    60   32   33 ar
    61   32   57 1
    62   47   58 1
    63   58   59 1
@<TRIPOS>MOLECULE
ZINC06527999
   22    22     0     0     0
SMALL
USER_CHARGES

@<TRIPOS>ATOM
      1 C1         -0.0167    1.3782    0.0096 C.ar      1 <0>        -0.0115
      2 C2          1.1707    2.0857    0.0021 C.ar      1 <0>        -0.1129
      3 C3          2.3778    1.4105   -0.0131 C.ar      1 <0>        -0.0400
      4 C4          2.3961    0.0274   -0.0207 C.ar      1 <0>        -0.1130
      5 C5          1.2082   -0.6793   -0.0132 C.ar      1 <0>        -0.0114
      6 C6          0.0021   -0.0041    0.0020 C.ar      1 <0>        -0.6247
      7 S1         -1.5119   -0.9055    0.0117 S.o2      1 <0>         2.6508
      8 O1         -1.2185   -2.1862    0.5528 O.2       1 <0>        -0.9839
      9 O2         -2.4926   -0.0462    0.5765 O.2       1 <0>        -0.9839
     10 N1         -1.9477   -1.1475   -1.5675 N.2       1 <0>        -1.0529
     11 C7         -3.0425   -1.7962   -1.8494 C.2       1 <0>         0.7508
     12 N2         -3.8355   -2.2795   -0.8356 N.pl3     1 <0>        -0.8789
     13 N3         -3.4044   -1.9971   -3.1604 N.pl3     1 <0>        -0.8159
     14 Br1         4.0026    2.3779   -0.0240 Br        1 <0>        -0.0336
     15 H1         -0.9592    1.9053    0.0260 H         1 <0>         0.1504
     16 H2          1.1559    3.1656    0.0077 H         1 <0>         0.1452
     17 H3          3.3384   -0.5003   -0.0329 H         1 <0>         0.1452
     18 H4          1.2224   -1.7592   -0.0191 H         1 <0>         0.1504
     19 H5         -3.5802   -2.1377    0.0894 H         1 <0>         0.4126
     20 H6         -4.6503   -2.7622   -1.0454 H         1 <0>         0.4146
     21 H7         -2.8449   -1.6561   -3.8757 H         1 <0>         0.4302
     22 H8         -4.2191   -2.4798   -3.3702 H         1 <0>         0.4126
@<TRIPOS>BOND
     1    1    6 ar
     2    1    2 ar
     3    1   15 1
     4    2    3 ar
     5    2   16 1
     6    3    4 ar
     7    3   14 1
     8    4    5 ar
     9    4   17 1
    10    5    6 ar
    11    5   18 1
    12    6    7 1
    13    7    8 2
    14    7    9 2
    15    7   10 1
    16   10   11 2
    17   11   12 1
    18   11   13 1
    19   12   19 1
    20   12   20 1
    21   13   21 1
    22   13   22 1
@<TRIPOS>MOLECULE
ZINC03276773
   25    25     0     0     0
SMALL
USER_CHARGES

@<TRIPOS>ATOM
      1 C1         -0.0184    1.5028    0.0103 C.3       1 <0>        -0.1248
      2 C2          0.0021   -0.0041    0.0020 C.ar      1 <0>        -0.0303
      3 C3          0.0057   -0.6887   -1.1989 C.ar      1 <0>        -0.1437
      4 C4          0.0245   -2.0709   -1.2065 C.ar      1 <0>        -0.0142
      5 C5          0.0400   -2.7685   -0.0132 C.ar      1 <0>        -0.6422
      6 C6          0.0373   -2.0839    1.1877 C.ar      1 <0>        -0.0143
      7 C7          0.0229   -0.7016    1.1953 C.ar      1 <0>        -0.1437
      8 S1          0.0628   -4.5303   -0.0229 S.o2      1 <0>         2.6505
      9 O1         -0.4759   -4.9503    1.2232 O.2       1 <0>        -0.9886
     10 O2         -0.4897   -4.9367   -1.2674 O.2       1 <0>        -0.9886
     11 N1          1.6509   -4.9994   -0.0343 N.2       1 <0>        -1.0528
     12 C8          1.9561   -6.2666   -0.0428 C.2       1 <0>         0.7489
     13 N2          0.9595   -7.2137   -0.0424 N.pl3     1 <0>        -0.8795
     14 N3          3.2745   -6.6561   -0.0523 N.pl3     1 <0>        -0.8171
     15 H1          1.0042    1.8801    0.0026 H         1 <0>         0.0797
     16 H2         -0.5455    1.8639   -0.8728 H         1 <0>         0.0730
     17 H3         -0.5286    1.8543    0.9071 H         1 <0>         0.0730
     18 H4         -0.0064   -0.1436   -2.1312 H         1 <0>         0.1335
     19 H5          0.0266   -2.6057   -2.1448 H         1 <0>         0.1400
     20 H6          0.0491   -2.6289    2.1200 H         1 <0>         0.1400
     21 H7          0.0245   -0.1667    2.1335 H         1 <0>         0.1335
     22 H8          0.0293   -6.9389   -0.0358 H         1 <0>         0.4125
     23 H9          1.1866   -8.1567   -0.0488 H         1 <0>         0.4137
     24 H10         3.9776   -5.9878   -0.0525 H         1 <0>         0.4297
     25 H11         3.5016   -7.5991   -0.0586 H         1 <0>         0.4119
@<TRIPOS>BOND
     1    1    2 1
     2    1   15 1
     3    1   16 1
     4    1   17 1
     5    2    7 ar
     6    2    3 ar
     7    3    4 ar
     8    3   18 1
     9    4    5 ar
    10    4   19 1
    11    5    6 ar
    12    5    8 1
    13    6    7 ar
    14    6   20 1
    15    7   21 1
    16    8    9 2
    17    8   10 2
    18    8   11 1
    19   11   12 2
    20   12   13 1
    21   12   14 1
    22   13   22 1
    23   13   23 1
    24   14   24 1
    25   14   25 1
@<TRIPOS>MOLECULE
ZINC13808146
   26    26     0     0     0
SMALL
USER_CHARGES

@<TRIPOS>ATOM
      1 C1         -0.0167    1.3779    0.0096 C.ar      1 <0>        -0.1302
      2 C2          1.1711    2.0854    0.0021 C.ar      1 <0>         0.0011
      3 C3          2.3773    1.4107   -0.0130 C.ar      1 <0>        -0.0665
      4 C4          2.3961    0.0283   -0.0201 C.ar      1 <0>         0.0471
      5 C5          1.2086   -0.6790   -0.0117 C.ar      1 <0>        -0.6857
      6 C6          0.0021   -0.0041    0.0020 C.ar      1 <0>         0.0232
      7 S1          1.2325   -2.4408   -0.0219 S.o2      1 <0>         2.7020
      8 O1         -0.0129   -2.8607   -0.5621 O.2       1 <0>        -0.9230
      9 O2          2.4774   -2.8268   -0.5880 O.2       1 <0>        -0.9235
     10 N1          1.2558   -2.9393    1.5571 N.pl3     1 <0>        -0.8958
     11 N2          0.2090   -2.5860    2.4187 N.pl3     1 <0>        -0.5547
     12 C7         -0.4782   -3.5615    3.1016 C.2       1 <0>         0.6388
     13 N3         -0.1559   -4.8150    2.9474 N.2       1 <0>        -0.8056
     14 N4         -1.5054   -3.2149    3.9471 N.pl3     1 <0>        -0.8409
     15 N5          3.6490    2.1682   -0.0221 N.pl3     1 <0>         0.0295
     16 O3          3.6326    3.3771   -0.0163 O.2       1 <0>        -0.1457
     17 O4          4.7040    1.5780   -0.0353 O.3       1 <0>        -0.1445
     18 H1         -0.9591    1.9051    0.0259 H         1 <0>         0.1631
     19 H2          1.1565    3.1653    0.0076 H         1 <0>         0.1659
     20 H3          3.3385   -0.4989   -0.0326 H         1 <0>         0.1725
     21 H4         -0.9258   -0.5567    0.0082 H         1 <0>         0.1635
     22 H5          1.9941   -3.4759    1.8855 H         1 <0>         0.4276
     23 H6         -0.0309   -1.6532    2.5335 H         1 <0>         0.4092
     24 H7         -1.7452   -2.2820    4.0618 H         1 <0>         0.4037
     25 H8         -1.9902   -3.9031    4.4289 H         1 <0>         0.4256
     26 H9          0.5689   -5.0596    2.3509 H         1 <0>         0.3432
@<TRIPOS>BOND
     1    1    6 ar
     2    1    2 ar
     3    1   18 1
     4    2    3 ar
     5    2   19 1
     6    3    4 ar
     7    3   15 1
     8    4    5 ar
     9    4   20 1
    10    5    6 ar
    11    5    7 1
    12    6   21 1
    13    7    8 2
    14    7    9 2
    15    7   10 1
    16   10   11 1
    17   10   22 1
    18   11   12 1
    19   11   23 1
    20   12   13 2
    21   12   14 1
    22   13   26 1
    23   14   24 1
    24   14   25 1
    25   15   16 2
    26   15   17 1
@<TRIPOS>MOLECULE
ZINC13808146
   27    27     0     0     0
SMALL
USER_CHARGES

@<TRIPOS>ATOM
      1 C1         -0.0167    1.3779    0.0096 C.ar      1 <0>        -0.1232
      2 C2          1.1711    2.0854    0.0021 C.ar      1 <0>         0.0110
      3 C3          2.3773    1.4107   -0.0130 C.ar      1 <0>        -0.0598
      4 C4          2.3961    0.0283   -0.0201 C.ar      1 <0>         0.0486
      5 C5          1.2086   -0.6790   -0.0117 C.ar      1 <0>        -0.6962
      6 C6          0.0021   -0.0041    0.0020 C.ar      1 <0>         0.0107
      7 S1          1.2325   -2.4408   -0.0219 S.o2      1 <0>         2.6871
      8 O1         -0.0129   -2.8607   -0.5621 O.2       1 <0>        -0.9012
      9 O2          2.4774   -2.8268   -0.5880 O.2       1 <0>        -0.8837
     10 N1          1.2558   -2.9393    1.5571 N.pl3     1 <0>        -0.9120
     11 N2          0.2090   -2.5860    2.4187 N.pl3     1 <0>        -0.4294
     12 C7          0.2272   -2.9771    3.6573 C.cat     1 <0>         0.7416
     13 N3          1.2838   -3.7450    4.1272 N.pl3     1 <0>        -0.8059
     14 N4         -0.8099   -2.6271    4.5109 N.pl3     1 <0>        -0.7994
     15 N5          3.6490    2.1682   -0.0221 N.pl3     1 <0>         0.0234
     16 O3          3.6326    3.3771   -0.0163 O.2       1 <0>        -0.1329
     17 O4          4.7040    1.5780   -0.0353 O.3       1 <0>        -0.1378
     18 H1         -0.9591    1.9051    0.0259 H         1 <0>         0.1680
     19 H2          1.1565    3.1653    0.0076 H         1 <0>         0.1718
     20 H3          3.3385   -0.4989   -0.0326 H         1 <0>         0.1756
     21 H4         -0.9258   -0.5567    0.0082 H         1 <0>         0.1630
     22 H5         -1.5482   -2.0905    4.1826 H         1 <0>         0.4419
     23 H6         -0.7963   -2.9191    5.4358 H         1 <0>         0.4479
     24 H7          2.0085   -3.9895    3.5307 H         1 <0>         0.4350
     25 H8          1.2974   -4.0370    5.0521 H         1 <0>         0.4464
     26 H9         -0.5293   -2.0495    2.0904 H         1 <0>         0.4639
     27 H10         1.9941   -3.4759    1.8855 H         1 <0>         0.4455
@<TRIPOS>BOND
     1    1    6 ar
     2    1    2 ar
     3    1   18 1
     4    2    3 ar
     5    2   19 1
     6    3    4 ar
     7    3   15 1
     8    4    5 ar
     9    4   20 1
    10    5    6 ar
    11    5    7 1
    12    6   21 1
    13    7    8 2
    14    7    9 2
    15    7   10 1
    16   10   11 1
    17   10   27 1
    18   11   12 2
    19   11   26 1
    20   12   13 1
    21   12   14 1
    22   13   24 1
    23   13   25 1
    24   14   22 1
    25   14   23 1
    26   15   16 2
    27   15   17 1
@<TRIPOS>MOLECULE
ZINC13808146
   26    26     0     0     0
SMALL
USER_CHARGES

@<TRIPOS>ATOM
      1 C1         -0.0167    1.3779    0.0096 C.ar      1 <0>        -0.1364
      2 C2          1.1711    2.0854    0.0021 C.ar      1 <0>        -0.0115
      3 C3          2.3773    1.4107   -0.0130 C.ar      1 <0>        -0.0714
      4 C4          2.3961    0.0283   -0.0201 C.ar      1 <0>         0.0432
      5 C5          1.2086   -0.6790   -0.0117 C.ar      1 <0>        -0.6196
      6 C6          0.0021   -0.0041    0.0020 C.ar      1 <0>         0.0265
      7 S1          1.2325   -2.4408   -0.0219 S.o2      1 <0>         2.6039
      8 O1         -0.0129   -2.8607   -0.5621 O.2       1 <0>        -1.0096
      9 O2          2.4774   -2.8268   -0.5880 O.2       1 <0>        -1.0079
     10 N1          1.2558   -2.9393    1.5571 N.2       1 <0>        -0.9418
     11 N2          1.2775   -4.3071    1.8596 N.pl3     1 <0>        -0.3977
     12 C7          1.2958   -4.6981    3.0982 C.cat     1 <0>         0.7079
     13 N3          1.2937   -3.7608    4.1220 N.pl3     1 <0>        -0.8136
     14 N4          1.3173   -6.0533    3.3979 N.pl3     1 <0>        -0.8501
     15 N5          3.6490    2.1682   -0.0221 N.pl3     1 <0>         0.0338
     16 O3          3.6326    3.3771   -0.0163 O.2       1 <0>        -0.1550
     17 O4          4.7040    1.5780   -0.0353 O.3       1 <0>        -0.1513
     18 H1         -0.9591    1.9051    0.0259 H         1 <0>         0.1573
     19 H2          1.1565    3.1653    0.0076 H         1 <0>         0.1606
     20 H3          3.3385   -0.4989   -0.0326 H         1 <0>         0.1679
     21 H4         -0.9258   -0.5567    0.0082 H         1 <0>         0.1589
     22 H5          1.3188   -6.7083    2.6825 H         1 <0>         0.4243
     23 H6          1.3310   -6.3453    4.3228 H         1 <0>         0.4274
     24 H7          1.2786   -2.8138    3.9126 H         1 <0>         0.4406
     25 H8          1.3073   -4.0528    5.0469 H         1 <0>         0.4163
     26 H9          1.2790   -4.9621    1.1442 H         1 <0>         0.3975
@<TRIPOS>BOND
     1    1    6 ar
     2    1    2 ar
     3    1   18 1
     4    2    3 ar
     5    2   19 1
     6    3    4 ar
     7    3   15 1
     8    4    5 ar
     9    4   20 1
    10    5    6 ar
    11    5    7 1
    12    6   21 1
    13    7    8 2
    14    7    9 2
    15    7   10 1
    16   10   11 1
    17   11   12 2
    18   11   26 1
    19   12   13 1
    20   12   14 1
    21   13   24 1
    22   13   25 1
    23   14   22 1
    24   14   23 1
    25   15   16 2
    26   15   17 1
@<TRIPOS>MOLECULE
ZINC13808171
   38    39     0     0     0
SMALL
USER_CHARGES

@<TRIPOS>ATOM
      1 C1         -1.4070    1.5521    0.2056 C.3       1 <0>         0.1136
      2 N1         -1.1754    0.1057    0.1870 N.pl3     1 <0>        -0.6883
      3 C2         -1.2031   -0.6568    1.4376 C.3       1 <0>         0.1144
      4 C3         -0.9288   -0.5448   -1.0201 C.ar      1 <0>         0.1989
      5 C4          0.3626   -0.6895   -1.4813 C.ar      1 <0>        -0.1321
      6 C5          0.6196   -1.3379   -2.6852 C.ar      1 <0>        -0.0718
      7 C6         -0.3933   -1.8461   -3.4403 C.ar      1 <0>        -0.1451
      8 C7         -1.7238   -1.7199   -3.0062 C.ar      1 <0>         0.0370
      9 C8         -1.9980   -1.0668   -1.7792 C.ar      1 <0>        -0.0832
     10 C9         -3.3272   -0.9460   -1.3446 C.ar      1 <0>        -0.0247
     11 C10        -4.3338   -1.4613   -2.1029 C.ar      1 <0>        -0.1551
     12 C11        -4.0647   -2.1092   -3.3070 C.ar      1 <0>         0.0173
     13 C12        -2.7893   -2.2343   -3.7653 C.ar      1 <0>        -0.6817
     14 S1         -2.4734   -3.0560   -5.2916 S.o2      1 <0>         2.6994
     15 O1         -3.7299   -3.5092   -5.7765 O.2       1 <0>        -0.9419
     16 O2         -1.6296   -2.1982   -6.0476 O.2       1 <0>        -0.9358
     17 N2         -1.5841   -4.4091   -4.9445 N.pl3     1 <0>        -0.8780
     18 N3         -2.0935   -5.3764   -4.0684 N.pl3     1 <0>        -0.5039
     19 C13        -2.1975   -6.6856   -4.4751 C.2       1 <0>         0.6359
     20 N4         -1.8221   -7.0268   -5.6758 N.2       1 <0>        -0.8101
     21 N5         -2.6974   -7.6349   -3.6154 N.pl3     1 <0>        -0.8913
     22 H1         -0.4564    2.0707    0.3301 H         1 <0>         0.0389
     23 H2         -1.8678    1.8585   -0.7335 H         1 <0>         0.0557
     24 H3         -2.0691    1.8034    1.0342 H         1 <0>         0.0615
     25 H4         -1.4089    0.0169    2.2694 H         1 <0>         0.0697
     26 H5         -1.9836   -1.4157    1.3832 H         1 <0>         0.0409
     27 H6         -0.2376   -1.1389    1.5908 H         1 <0>         0.0436
     28 H7          1.1839   -0.2947   -0.9016 H         1 <0>         0.1293
     29 H8          1.6391   -1.4395   -3.0267 H         1 <0>         0.1334
     30 H9         -0.1743   -2.3456   -4.3725 H         1 <0>         0.1320
     31 H10        -3.5503   -0.4470   -0.4131 H         1 <0>         0.1355
     32 H11        -5.3556   -1.3669   -1.7662 H         1 <0>         0.1361
     33 H12        -4.8811   -2.5099   -3.8895 H         1 <0>         0.1468
     34 H13        -0.7104   -4.5319   -5.3477 H         1 <0>         0.4287
     35 H14        -1.8954   -7.9504   -5.9628 H         1 <0>         0.3438
     36 H15        -2.9767   -7.3810   -2.7219 H         1 <0>         0.3913
     37 H16        -2.7707   -8.5585   -3.9024 H         1 <0>         0.4138
     38 H17        -2.3728   -5.1225   -3.1749 H         1 <0>         0.4255
@<TRIPOS>BOND
     1    1    2 1
     2    1   22 1
     3    1   23 1
     4    1   24 1
     5    2    3 1
     6    2    4 1
     7    3   25 1
     8    3   26 1
     9    3   27 1
    10    4    9 ar
    11    4    5 ar
    12    5    6 ar
    13    5   28 1
    14    6    7 ar
    15    6   29 1
    16    7    8 ar
    17    7   30 1
    18    8   13 ar
    19    8    9 ar
    20    9   10 ar
    21   10   11 ar
    22   10   31 1
    23   11   12 ar
    24   11   32 1
    25   12   13 ar
    26   12   33 1
    27   13   14 1
    28   14   15 2
    29   14   16 2
    30   14   17 1
    31   17   18 1
    32   17   34 1
    33   18   19 1
    34   18   38 1
    35   19   20 2
    36   19   21 1
    37   20   35 1
    38   21   36 1
    39   21   37 1
@<TRIPOS>MOLECULE
ZINC13808171
   38    39     0     0     0
SMALL
USER_CHARGES

@<TRIPOS>ATOM
      1 C1         -0.0178    1.4608    0.0101 C.3       1 <0>         0.1159
      2 N1          0.0021   -0.0041    0.0020 N.pl3     1 <0>        -0.6862
      3 C2          1.2806   -0.7192   -0.0140 C.3       1 <0>         0.1151
      4 C3         -1.1948   -0.7170    0.0096 C.ar      1 <0>         0.1806
      5 C4         -1.8010   -1.0716   -1.1770 C.ar      1 <0>        -0.1266
      6 C5         -2.9961   -1.7840   -1.1803 C.ar      1 <0>        -0.0965
      7 C6         -3.5998   -2.1499   -0.0157 C.ar      1 <0>        -0.1085
      8 C7         -3.0149   -1.8082    1.2154 C.ar      1 <0>         0.0348
      9 C8         -1.7950   -1.0880    1.2320 C.ar      1 <0>        -0.0804
     10 C9         -1.2096   -0.7518    2.4626 C.ar      1 <0>        -0.0325
     11 C10        -1.8169   -1.1258    3.6224 C.ar      1 <0>        -0.1557
     12 C11        -3.0136   -1.8396    3.6073 C.ar      1 <0>         0.0043
     13 C12        -3.6159   -2.1723    2.4329 C.ar      1 <0>        -0.6635
     14 S1         -5.1299   -3.0736    2.4385 S.o2      1 <0>         2.7280
     15 O1         -4.9589   -4.1605    1.5393 O.2       1 <0>        -0.9417
     16 O2         -5.4859   -3.2611    3.8013 O.2       1 <0>        -0.9608
     17 N2         -6.2874   -2.0906    1.7779 N.pl3     1 <0>        -0.9546
     18 N3         -6.1401   -1.6179    0.4673 N.2       1 <0>        -0.3847
     19 C13        -7.0480   -0.8468   -0.0508 C.2       1 <0>         0.5982
     20 N4         -8.1640   -0.4911    0.6940 N.pl3     1 <0>        -0.8886
     21 N5         -6.9022   -0.3785   -1.3493 N.pl3     1 <0>        -0.8428
     22 H1          1.0048    1.8381    0.0023 H         1 <0>         0.0673
     23 H2         -0.5450    1.8219   -0.8730 H         1 <0>         0.0419
     24 H3         -0.5280    1.8123    0.9069 H         1 <0>         0.0392
     25 H4          1.6074   -0.9021    1.0096 H         1 <0>         0.0337
     26 H5          1.1583   -1.6705   -0.5318 H         1 <0>         0.0564
     27 H6          2.0272   -0.1171   -0.5318 H         1 <0>         0.0601
     28 H7         -1.3430   -0.7929   -2.1146 H         1 <0>         0.1235
     29 H8         -3.4528   -2.0509   -2.1219 H         1 <0>         0.1271
     30 H9         -4.5276   -2.7021   -0.0384 H         1 <0>         0.1627
     31 H10        -0.2819   -0.1995    2.4893 H         1 <0>         0.1316
     32 H11        -1.3643   -0.8658    4.5679 H         1 <0>         0.1320
     33 H12        -3.4748   -2.1250    4.5413 H         1 <0>         0.1427
     34 H13        -7.0672   -1.8420    2.2984 H         1 <0>         0.3893
     35 H14        -6.1223   -0.6270   -1.8698 H         1 <0>         0.4200
     36 H15        -7.5801    0.1974   -1.7363 H         1 <0>         0.4094
     37 H16        -8.2660   -0.8184    1.6015 H         1 <0>         0.4079
     38 H17        -8.8420    0.0847    0.3071 H         1 <0>         0.4015
@<TRIPOS>BOND
     1    1    2 1
     2    1   22 1
     3    1   23 1
     4    1   24 1
     5    2    3 1
     6    2    4 1
     7    3   25 1
     8    3   26 1
     9    3   27 1
    10    4    9 ar
    11    4    5 ar
    12    5    6 ar
    13    5   28 1
    14    6    7 ar
    15    6   29 1
    16    7    8 ar
    17    7   30 1
    18    8   13 ar
    19    8    9 ar
    20    9   10 ar
    21   10   11 ar
    22   10   31 1
    23   11   12 ar
    24   11   32 1
    25   12   13 ar
    26   12   33 1
    27   13   14 1
    28   14   15 2
    29   14   16 2
    30   14   17 1
    31   17   18 1
    32   17   34 1
    33   18   19 2
    34   19   20 1
    35   19   21 1
    36   20   37 1
    37   20   38 1
    38   21   35 1
    39   21   36 1
@<TRIPOS>MOLECULE
ZINC13808035
   22    22     0     0     0
SMALL
USER_CHARGES

@<TRIPOS>ATOM
      1 C1         -0.0167    1.3782    0.0096 C.ar      1 <0>        -0.0049
      2 C2          1.1706    2.0858    0.0021 C.ar      1 <0>        -0.1325
      3 C3          2.3780    1.4104   -0.0130 C.ar      1 <0>         0.0166
      4 C4          2.3961    0.0270   -0.0206 C.ar      1 <0>        -0.1325
      5 C5          1.2082   -0.6795   -0.0130 C.ar      1 <0>        -0.0048
      6 C6          0.0021   -0.0041    0.0020 C.ar      1 <0>        -0.6356
      7 S1         -1.5119   -0.9054    0.0122 S.o2      1 <0>         2.6517
      8 O1         -1.2185   -2.1862    0.5533 O.2       1 <0>        -0.9846
      9 O2         -2.4924   -0.0460    0.5773 O.2       1 <0>        -0.9846
     10 N1         -1.9483   -1.1474   -1.5669 N.2       1 <0>        -1.0529
     11 C7         -3.0432   -1.7960   -1.8484 C.2       1 <0>         0.7506
     12 N2         -3.8359   -2.2793   -0.8344 N.pl3     1 <0>        -0.8790
     13 N3         -3.4055   -1.9969   -3.1593 N.pl3     1 <0>        -0.8161
     14 Cl1         3.8696    2.2984   -0.0231 Cl        1 <0>        -0.0537
     15 H1         -0.9592    1.9053    0.0259 H         1 <0>         0.1506
     16 H2          1.1558    3.1656    0.0076 H         1 <0>         0.1458
     17 H3          3.3383   -0.5007   -0.0327 H         1 <0>         0.1458
     18 H4          1.2222   -1.7594   -0.0193 H         1 <0>         0.1506
     19 H5         -3.5803   -2.1375    0.0906 H         1 <0>         0.4126
     20 H6         -4.6508   -2.7620   -1.0438 H         1 <0>         0.4144
     21 H7         -2.8462   -1.6559   -3.8747 H         1 <0>         0.4301
     22 H8         -4.2204   -2.4796   -3.3688 H         1 <0>         0.4125
@<TRIPOS>BOND
     1    1    6 ar
     2    1    2 ar
     3    1   15 1
     4    2    3 ar
     5    2   16 1
     6    3    4 ar
     7    3   14 1
     8    4    5 ar
     9    4   17 1
    10    5    6 ar
    11    5   18 1
    12    6    7 1
    13    7    8 2
    14    7    9 2
    15    7   10 1
    16   10   11 2
    17   11   12 1
    18   11   13 1
    19   12   19 1
    20   12   20 1
    21   13   21 1
    22   13   22 1
@<TRIPOS>MOLECULE
ZINC06405865
   28    28     0     0     0
SMALL
USER_CHARGES

@<TRIPOS>ATOM
      1 C1         -0.0173    1.4248    0.0099 C.3       1 <0>         0.0211
      2 O1          0.0021   -0.0041    0.0020 O.3       1 <0>        -0.3094
      3 C2          0.6258   -0.6184    1.0415 C.ar      1 <0>         0.1869
      4 C3          1.2022    0.1384    2.0513 C.ar      1 <0>        -0.2293
      5 C4          1.8353   -0.4884    3.1070 C.ar      1 <0>         0.0261
      6 C5          1.8951   -1.8688    3.1577 C.ar      1 <0>        -0.7213
      7 C6          1.3218   -2.6253    2.1523 C.ar      1 <0>         0.0147
      8 C7          0.6822   -2.0034    1.0976 C.ar      1 <0>        -0.1711
      9 S1          2.7038   -2.6653    4.5054 S.o2      1 <0>         2.7023
     10 O2          3.0980   -3.9492    4.0411 O.2       1 <0>        -0.9410
     11 O3          3.6322   -1.7279    5.0333 O.2       1 <0>        -0.9414
     12 N1          1.5645   -2.9163    5.6808 N.pl3     1 <0>        -0.8793
     13 N2          0.4366   -3.7010    5.4070 N.pl3     1 <0>        -0.5062
     14 C8          0.1392   -4.7796    6.2059 C.2       1 <0>         0.6353
     15 N3          0.9066   -5.0722    7.2180 N.2       1 <0>        -0.8102
     16 N4         -0.9676   -5.5496    5.9372 N.pl3     1 <0>        -0.8914
     17 H1          1.0053    1.8021    0.0021 H         1 <0>         0.0621
     18 H2         -0.5445    1.7859   -0.8732 H         1 <0>         0.1073
     19 H3         -0.5275    1.7763    0.9067 H         1 <0>         0.0617
     20 H4          1.1564    1.2167    2.0118 H         1 <0>         0.1408
     21 H5          2.2842    0.1003    3.8934 H         1 <0>         0.1461
     22 H6          1.3701   -3.7035    2.1940 H         1 <0>         0.1491
     23 H7          0.2307   -2.5948    0.3148 H         1 <0>         0.1437
     24 H8          1.6781   -2.5201    6.5589 H         1 <0>         0.4289
     25 H9          0.6967   -5.8332    7.7817 H         1 <0>         0.3441
     26 H10        -1.5387   -5.3318    5.1839 H         1 <0>         0.3914
     27 H11        -1.1775   -6.3106    6.5008 H         1 <0>         0.4140
     28 H12        -0.1344   -3.4832    4.6537 H         1 <0>         0.4249
@<TRIPOS>BOND
     1    1    2 1
     2    1   17 1
     3    1   18 1
     4    1   19 1
     5    2    3 1
     6    3    8 ar
     7    3    4 ar
     8    4    5 ar
     9    4   20 1
    10    5    6 ar
    11    5   21 1
    12    6    7 ar
    13    6    9 1
    14    7    8 ar
    15    7   22 1
    16    8   23 1
    17    9   10 2
    18    9   11 2
    19    9   12 1
    20   12   13 1
    21   12   24 1
    22   13   14 1
    23   13   28 1
    24   14   15 2
    25   14   16 1
    26   15   25 1
    27   16   26 1
    28   16   27 1
@<TRIPOS>MOLECULE
ZINC06405865
   28    28     0     0     0
SMALL
USER_CHARGES

@<TRIPOS>ATOM
      1 C1         -0.0173    1.4248    0.0099 C.3       1 <0>         0.0226
      2 O1          0.0021   -0.0041    0.0020 O.3       1 <0>        -0.3114
      3 C2          0.6058   -0.6071   -1.0557 C.ar      1 <0>         0.1817
      4 C3          1.1730    0.1607   -2.0624 C.ar      1 <0>        -0.2329
      5 C4          1.7865   -0.4547   -3.1363 C.ar      1 <0>         0.0186
      6 C5          1.8352   -1.8346   -3.2086 C.ar      1 <0>        -0.7041
      7 C6          1.2702   -2.6021   -2.2068 C.ar      1 <0>         0.0336
      8 C7          0.6609   -1.9915   -1.1277 C.ar      1 <0>        -0.1746
      9 S1          2.6179   -2.6165   -4.5800 S.o2      1 <0>         2.7309
     10 O2          2.0512   -3.9154   -4.6847 O.2       1 <0>        -0.9457
     11 O3          2.5875   -1.6833   -5.6512 O.2       1 <0>        -0.9614
     12 N1          4.2112   -2.8262   -4.1801 N.pl3     1 <0>        -0.9551
     13 N2          4.5574   -3.5985   -3.0636 N.2       1 <0>        -0.3828
     14 C8          5.8072   -3.7630   -2.7500 C.2       1 <0>         0.5941
     15 N3          6.7996   -3.1735   -3.5210 N.pl3     1 <0>        -0.8898
     16 N4          6.1502   -4.5282   -1.6438 N.pl3     1 <0>        -0.8437
     17 H1          1.0053    1.8021    0.0021 H         1 <0>         0.0595
     18 H2         -0.5445    1.7859   -0.8732 H         1 <0>         0.0605
     19 H3         -0.5275    1.7763    0.9067 H         1 <0>         0.1054
     20 H4          1.1347    1.2385   -2.0068 H         1 <0>         0.1370
     21 H5          2.2283    0.1425   -3.9203 H         1 <0>         0.1407
     22 H6          1.3092   -3.6798   -2.2657 H         1 <0>         0.1500
     23 H7          0.2237   -2.5913   -0.3432 H         1 <0>         0.1411
     24 H8          4.9047   -2.4143   -4.7188 H         1 <0>         0.3870
     25 H9          5.4567   -4.9401   -1.1051 H         1 <0>         0.4206
     26 H10         7.0835   -4.6510   -1.4096 H         1 <0>         0.4093
     27 H11         6.5599   -2.6388   -4.2940 H         1 <0>         0.4075
     28 H12         7.7329   -3.2963   -3.2868 H         1 <0>         0.4014
@<TRIPOS>BOND
     1    1    2 1
     2    1   17 1
     3    1   18 1
     4    1   19 1
     5    2    3 1
     6    3    8 ar
     7    3    4 ar
     8    4    5 ar
     9    4   20 1
    10    5    6 ar
    11    5   21 1
    12    6    7 ar
    13    6    9 1
    14    7    8 ar
    15    7   22 1
    16    8   23 1
    17    9   10 2
    18    9   11 2
    19    9   12 1
    20   12   13 1
    21   12   24 1
    22   13   14 2
    23   14   15 1
    24   14   16 1
    25   15   27 1
    26   15   28 1
    27   16   25 1
    28   16   26 1
@<TRIPOS>MOLECULE
ZINC06792642
   30    31     0     0     0
SMALL
USER_CHARGES

@<TRIPOS>ATOM
      1 C1         -0.0173    1.4248    0.0099 C.3       1 <0>         0.0502
      2 O1          0.0021   -0.0041    0.0020 O.3       1 <0>        -0.3067
      3 C2         -1.1931   -0.6337    0.0100 C.2       1 <0>         0.6962
      4 N1         -1.2464   -2.0060    0.0032 N.pl3     1 <0>        -0.8424
      5 N2         -2.2937    0.0600    0.0243 N.2       1 <0>        -1.0484
      6 S1         -3.7588   -0.7119    0.0341 S.o2      1 <0>         2.6468
      7 O2         -3.8733   -1.3818   -1.2138 O.2       1 <0>        -0.9808
      8 O3         -3.8495   -1.3952    1.2767 O.2       1 <0>        -0.9781
      9 C3         -5.0041    0.5345    0.0527 C.ar      1 <0>        -0.6315
     10 C4         -5.4737    1.0176    1.2728 C.ar      1 <0>        -0.0418
     11 C5         -6.4350    1.9796    1.3224 C.ar      1 <0>        -0.1181
     12 C6         -6.9641    2.4962    0.1273 C.ar      1 <0>        -0.0118
     13 C7         -7.9574    3.4904    0.1384 C.ar      1 <0>        -0.1192
     14 C8         -8.4460    3.9672   -1.0388 C.ar      1 <0>        -0.0933
     15 C9         -7.9762    3.4844   -2.2590 C.ar      1 <0>        -0.1225
     16 C10        -7.0152    2.5220   -2.3085 C.ar      1 <0>        -0.0891
     17 C11        -6.4864    2.0052   -1.1133 C.ar      1 <0>        -0.0799
     18 C12        -5.4892    1.0150   -1.1246 C.ar      1 <0>         0.0206
     19 H1          1.0053    1.8021    0.0021 H         1 <0>         0.1089
     20 H2         -0.5445    1.7859   -0.8732 H         1 <0>         0.0736
     21 H3         -0.5275    1.7763    0.9067 H         1 <0>         0.0740
     22 H4         -0.4258   -2.5232   -0.0074 H         1 <0>         0.4241
     23 H5         -5.0687    0.6224    2.1927 H         1 <0>         0.1400
     24 H6         -6.7898    2.3439    2.2753 H         1 <0>         0.1378
     25 H7         -8.3312    3.8738    1.0764 H         1 <0>         0.1332
     26 H8         -9.2095    4.7310   -1.0275 H         1 <0>         0.1289
     27 H9         -8.3812    3.8795   -3.1789 H         1 <0>         0.1293
     28 H10        -6.6610    2.1571   -3.2613 H         1 <0>         0.1339
     29 H11        -5.1125    0.6346   -2.0625 H         1 <0>         0.1464
     30 H12        -2.1046   -2.4581    0.0090 H         1 <0>         0.4200
@<TRIPOS>BOND
     1    1    2 1
     2    1   19 1
     3    1   20 1
     4    1   21 1
     5    2    3 1
     6    3    4 1
     7    3    5 2
     8    4   22 1
     9    4   30 1
    10    5    6 1
    11    6    7 2
    12    6    8 2
    13    6    9 1
    14    9   18 ar
    15    9   10 ar
    16   10   11 ar
    17   10   23 1
    18   11   12 ar
    19   11   24 1
    20   12   17 ar
    21   12   13 ar
    22   13   14 ar
    23   13   25 1
    24   14   15 ar
    25   14   26 1
    26   15   16 ar
    27   15   27 1
    28   16   17 ar
    29   16   28 1
    30   17   18 ar
    31   18   29 1
@<TRIPOS>MOLECULE
ZINC13808049
   26    26     0     0     0
SMALL
USER_CHARGES

@<TRIPOS>ATOM
      1 C1         -0.0173    1.4248    0.0099 C.3       1 <0>         0.0219
      2 O1          0.0021   -0.0041    0.0020 O.3       1 <0>        -0.3107
      3 C2          0.6058   -0.6071   -1.0557 C.ar      1 <0>         0.1816
      4 C3          1.1730    0.1607   -2.0624 C.ar      1 <0>        -0.2306
      5 C4          1.7865   -0.4547   -3.1363 C.ar      1 <0>         0.0232
      6 C5          1.8352   -1.8346   -3.2086 C.ar      1 <0>        -0.6743
      7 C6          1.2702   -2.6021   -2.2068 C.ar      1 <0>         0.0205
      8 C7          0.6609   -1.9915   -1.1277 C.ar      1 <0>        -0.1726
      9 S1          2.6179   -2.6165   -4.5800 S.o2      1 <0>         2.6540
     10 O2          2.0512   -3.9154   -4.6847 O.2       1 <0>        -0.9888
     11 O3          2.5875   -1.6833   -5.6512 O.2       1 <0>        -0.9899
     12 N1          4.2112   -2.8262   -4.1801 N.2       1 <0>        -1.0532
     13 C8          5.0270   -3.3888   -5.0267 C.2       1 <0>         0.7488
     14 N2          4.5648   -3.8081   -6.2517 N.pl3     1 <0>        -0.8796
     15 N3          6.3497   -3.5629   -4.6948 N.pl3     1 <0>        -0.8175
     16 H1          1.0053    1.8021    0.0021 H         1 <0>         0.0608
     17 H2         -0.5445    1.7859   -0.8732 H         1 <0>         0.0607
     18 H3         -0.5275    1.7763    0.9067 H         1 <0>         0.1058
     19 H4          1.1347    1.2385   -2.0068 H         1 <0>         0.1393
     20 H5          2.2283    0.1425   -3.9203 H         1 <0>         0.1430
     21 H6          1.3092   -3.6798   -2.2657 H         1 <0>         0.1475
     22 H7          0.2237   -2.5913   -0.3432 H         1 <0>         0.1426
     23 H8          3.6315   -3.6853   -6.4860 H         1 <0>         0.4126
     24 H9          5.1719   -4.2268   -6.8818 H         1 <0>         0.4136
     25 H10         6.6759   -3.2670   -3.8305 H         1 <0>         0.4296
     26 H11         6.9569   -3.9816   -5.3248 H         1 <0>         0.4117
@<TRIPOS>BOND
     1    1    2 1
     2    1   16 1
     3    1   17 1
     4    1   18 1
     5    2    3 1
     6    3    8 ar
     7    3    4 ar
     8    4    5 ar
     9    4   19 1
    10    5    6 ar
    11    5   20 1
    12    6    7 ar
    13    6    9 1
    14    7    8 ar
    15    7   21 1
    16    8   22 1
    17    9   10 2
    18    9   11 2
    19    9   12 1
    20   12   13 2
    21   13   14 1
    22   13   15 1
    23   14   23 1
    24   14   24 1
    25   15   25 1
    26   15   26 1
@<TRIPOS>MOLECULE
ZINC03807246
   69    72     0     0     0
SMALL
USER_CHARGES

@<TRIPOS>ATOM
      1 C1         -1.4468    1.0204    1.5598 C.ar      1 <0>        -0.0881
      2 C2         -0.3637    1.8925    1.4651 C.ar      1 <0>        -0.1181
      3 C3          0.8927    1.4262    1.2278 C.ar      1 <0>        -0.0900
      4 C4          1.1047    0.0452    1.0760 C.ar      1 <0>        -0.0797
      5 C5          2.3875   -0.4736    0.8307 C.ar      1 <0>         0.0262
      6 C6          2.5549   -1.8168    0.6895 C.ar      1 <0>        -0.6802
      7 C7          1.4718   -2.6889    0.7846 C.ar      1 <0>        -0.0526
      8 C8          0.2154   -2.2225    1.0214 C.ar      1 <0>        -0.1132
      9 C9          0.0034   -0.8415    1.1728 C.ar      1 <0>        -0.0113
     10 C10        -1.2794   -0.3227    1.4182 C.ar      1 <0>        -0.1213
     11 S1          4.1649   -2.4631    0.3814 S.o2      1 <0>         2.6992
     12 O1          3.9829   -3.7195   -0.2570 O.2       1 <0>        -0.9555
     13 O2          4.9188   -1.4119   -0.2067 O.2       1 <0>        -0.9466
     14 N1          4.8569   -2.7758    1.8530 N.pl3     1 <0>        -1.1073
     15 C11         4.2874   -3.8049    2.7264 C.3       1 <0>         0.1000
     16 C12         5.2796   -4.1529    3.8059 C.2       1 <0>         0.5210
     17 O3          6.3564   -3.5961    3.8422 O.2       1 <0>        -0.5181
     18 N2          4.9704   -5.0829    4.7311 N.am      1 <0>        -0.7101
     19 C13         5.9349   -5.4212    5.7806 C.3       1 <0>         0.1339
     20 H1          6.9457   -5.3661    5.3765 H         1 <0>         0.1200
     21 C14         5.6637   -6.8402    6.2843 C.3       1 <0>        -0.1006
     22 C15         5.9436   -7.8272    5.1805 C.ar      1 <0>        -0.0118
     23 C16         4.9340   -8.1867    4.3055 C.ar      1 <0>        -0.1089
     24 C17         5.1837   -9.0901    3.2931 C.ar      1 <0>        -0.0513
     25 C18         6.4577   -9.6411    3.1524 C.ar      1 <0>        -0.1581
     26 C19         7.4717   -9.2742    4.0377 C.ar      1 <0>        -0.0513
     27 C20         7.2105   -8.3658    5.0428 C.ar      1 <0>        -0.1097
     28 C21         6.7323  -10.6110    2.0691 C.cat     1 <0>         0.6003
     29 N3          7.9491  -11.1351    1.9374 N.pl3     1 <0>        -0.7617
     30 N4          5.7625  -10.9596    1.2261 N.pl3     1 <0>        -0.7609
     31 C22         5.7967   -4.4477    6.9226 C.2       1 <0>         0.5048
     32 O4          4.7594   -3.8388    7.0782 O.2       1 <0>        -0.5232
     33 N5          6.8258   -4.2538    7.7710 N.am      1 <0>        -0.6053
     34 C23         8.1249   -4.8969    7.5315 C.3       1 <0>         0.1030
     35 C24         9.2160   -3.8216    7.5376 C.3       1 <0>        -0.1381
     36 C25         9.1384   -3.0292    8.8446 C.3       1 <0>        -0.1219
     37 C26         7.7772   -2.3367    8.9433 C.3       1 <0>        -0.1374
     38 C27         6.6716   -3.3904    8.9498 C.3       1 <0>         0.1098
     39 H2         -2.4330    1.4161    1.7529 H         1 <0>         0.1312
     40 H3         -0.5239    2.9542    1.5813 H         1 <0>         0.1317
     41 H4          1.7223    2.1139    1.1562 H         1 <0>         0.1355
     42 H5          3.2360    0.1901    0.7541 H         1 <0>         0.1473
     43 H6          1.6320   -3.7506    0.6683 H         1 <0>         0.1377
     44 H7         -0.6144   -2.9101    1.0922 H         1 <0>         0.1372
     45 H8         -2.1280   -0.9865    1.4944 H         1 <0>         0.1341
     46 H9          5.6393   -2.2776    2.1368 H         1 <0>         0.4304
     47 H10         3.3716   -3.4286    3.1822 H         1 <0>         0.1037
     48 H11         4.0618   -4.6953    2.1395 H         1 <0>         0.1122
     49 H12         4.1091   -5.5283    4.7021 H         1 <0>         0.4077
     50 H13         6.3108   -7.0536    7.1352 H         1 <0>         0.1102
     51 H14         4.6211   -6.9239    6.5908 H         1 <0>         0.1049
     52 H15         3.9482   -7.7594    4.4155 H         1 <0>         0.1479
     53 H16         4.3946   -9.3705    2.6111 H         1 <0>         0.1406
     54 H17         8.4599   -9.6975    3.9342 H         1 <0>         0.1397
     55 H18         7.9956   -8.0779    5.7263 H         1 <0>         0.1495
     56 H19         8.6556  -10.8812    2.5516 H         1 <0>         0.4441
     57 H20         4.8760  -10.5777    1.3220 H         1 <0>         0.4444
     58 H21         5.9424  -11.5953    0.5159 H         1 <0>         0.4343
     59 H22         8.3237   -5.6236    8.3192 H         1 <0>         0.0758
     60 H23         8.1115   -5.3983    6.5638 H         1 <0>         0.0802
     61 H24        10.1943   -4.2954    7.4570 H         1 <0>         0.0789
     62 H25         9.0671   -3.1474    6.6941 H         1 <0>         0.0710
     63 H26         9.2627   -3.7078    9.6886 H         1 <0>         0.0666
     64 H27         9.9294   -2.2794    8.8623 H         1 <0>         0.0702
     65 H28         7.7314   -1.7538    9.8632 H         1 <0>         0.0799
     66 H29         7.6419   -1.6766    8.0866 H         1 <0>         0.0676
     67 H30         5.6996   -2.8981    8.9176 H         1 <0>         0.0938
     68 H31         6.7492   -3.9915    9.8557 H         1 <0>         0.0720
     69 H32         8.1291  -11.7709    1.2273 H         1 <0>         0.4342
@<TRIPOS>BOND
     1    1   10 ar
     2    1    2 ar
     3    1   39 1
     4    2    3 ar
     5    2   40 1
     6    3    4 ar
     7    3   41 1
     8    4    9 ar
     9    4    5 ar
    10    5    6 ar
    11    5   42 1
    12    6    7 ar
    13    6   11 1
    14    7    8 ar
    15    7   43 1
    16    8    9 ar
    17    8   44 1
    18    9   10 ar
    19   10   45 1
    20   11   12 2
    21   11   13 2
    22   11   14 1
    23   14   15 1
    24   14   46 1
    25   15   16 1
    26   15   47 1
    27   15   48 1
    28   16   17 2
    29   16   18 am
    30   18   19 1
    31   18   49 1
    32   19   20 1
    33   19   21 1
    34   19   31 1
    35   21   22 1
    36   21   50 1
    37   21   51 1
    38   22   27 ar
    39   22   23 ar
    40   23   24 ar
    41   23   52 1
    42   24   25 ar
    43   24   53 1
    44   25   26 ar
    45   25   28 1
    46   26   27 ar
    47   26   54 1
    48   27   55 1
    49   28   29 2
    50   28   30 1
    51   29   56 1
    52   29   69 1
    53   30   57 1
    54   30   58 1
    55   31   32 2
    56   31   33 am
    57   33   38 1
    58   33   34 1
    59   34   35 1
    60   34   59 1
    61   34   60 1
    62   35   36 1
    63   35   61 1
    64   35   62 1
    65   36   37 1
    66   36   63 1
    67   36   64 1
    68   37   38 1
    69   37   65 1
    70   37   66 1
    71   38   67 1
    72   38   68 1
@<TRIPOS>MOLECULE
ZINC13808101
   26    26     0     0     0
SMALL
USER_CHARGES

@<TRIPOS>ATOM
      1 C1         -0.0173    1.4248    0.0099 C.3       1 <0>         0.0510
      2 O1          0.0021   -0.0041    0.0020 O.3       1 <0>        -0.3088
      3 C2          0.6022   -0.6035   -1.0494 C.2       1 <0>         0.6934
      4 N1          0.6561   -1.9740   -1.1195 N.pl3     1 <0>        -0.8434
      5 N2          1.1291    0.1175   -1.9956 N.2       1 <0>        -1.0489
      6 S1          1.8647   -0.6173   -3.2844 S.o2      1 <0>         2.6514
      7 O2          3.0131   -1.2798   -2.7731 O.2       1 <0>        -0.9861
      8 O3          0.8445   -1.3025   -3.9979 O.2       1 <0>        -0.9861
      9 C3          2.4515    0.6598   -4.3470 C.ar      1 <0>        -0.6931
     10 C4          1.6357    1.1529   -5.3488 C.ar      1 <0>         0.0304
     11 C5          2.0925    2.1539   -6.1835 C.ar      1 <0>        -0.2184
     12 C6          3.3730    2.6655   -6.0157 C.ar      1 <0>         0.2682
     13 C7          4.1899    2.1679   -5.0084 C.ar      1 <0>        -0.2184
     14 C8          3.7248    1.1708   -4.1737 C.ar      1 <0>         0.0303
     15 N3          3.8383    3.6776   -6.8583 N.pl3     1 <0>        -0.8663
     16 H1          1.0053    1.8021    0.0021 H         1 <0>         0.0733
     17 H2         -0.5445    1.7859   -0.8732 H         1 <0>         0.0733
     18 H3         -0.5275    1.7763    0.9067 H         1 <0>         0.1077
     19 H4          0.2633   -2.5116   -0.4141 H         1 <0>         0.4229
     20 H5          0.6403    0.7545   -5.4789 H         1 <0>         0.1391
     21 H6          1.4549    2.5383   -6.9659 H         1 <0>         0.1313
     22 H7          5.1861    2.5632   -4.8755 H         1 <0>         0.1312
     23 H8          4.3577    0.7866   -3.3875 H         1 <0>         0.1391
     24 H9          3.2671    4.0241   -7.5616 H         1 <0>         0.4034
     25 H10         4.7327    4.0341   -6.7402 H         1 <0>         0.4034
     26 H11         1.0870   -2.4045   -1.8745 H         1 <0>         0.4200
@<TRIPOS>BOND
     1    1    2 1
     2    1   16 1
     3    1   17 1
     4    1   18 1
     5    2    3 1
     6    3    4 1
     7    3    5 2
     8    4   19 1
     9    4   26 1
    10    5    6 1
    11    6    7 2
    12    6    8 2
    13    6    9 1
    14    9   14 ar
    15    9   10 ar
    16   10   11 ar
    17   10   20 1
    18   11   12 ar
    19   11   21 1
    20   12   13 ar
    21   12   15 1
    22   13   14 ar
    23   13   22 1
    24   14   23 1
    25   15   24 1
    26   15   25 1
@<TRIPOS>MOLECULE
ZINC13808067
   18    18     0     0     0
SMALL
USER_CHARGES

@<TRIPOS>ATOM
      1 C1         -0.0163    1.3513    0.0095 C.2       1 <0>        -0.1798
      2 C2          1.1833    2.0380    0.0017 C.2       1 <0>        -0.0485
      3 C3          2.3426    1.3358   -0.0131 C.2       1 <0>        -0.6783
      4 S1          1.7535   -0.3495   -0.0166 S.3       1 <0>         0.1367
      5 C4          0.0021   -0.0041    0.0020 C.2       1 <0>        -0.1729
      6 S2          4.0007    1.9316   -0.0263 S.o2      1 <0>         2.7073
      7 O1          4.7986    0.8998   -0.5901 O.2       1 <0>        -1.0019
      8 O2          3.9565    3.2437   -0.5701 O.2       1 <0>        -1.0015
      9 N1          4.4769    2.0892    1.5520 N.2       1 <0>        -1.0995
     10 C5          5.6758    2.5176    1.8313 C.2       1 <0>         0.6589
     11 N2          6.5451    2.8386    0.8157 N.2       1 <0>        -0.9560
     12 N3          6.0711    2.6484    3.1415 N.pl3     1 <0>        -0.8849
     13 H1         -0.9542    1.8866    0.0258 H         1 <0>         0.1351
     14 H2          1.1967    3.1179    0.0070 H         1 <0>         0.1431
     15 H3         -0.8275   -0.6955    0.0065 H         1 <0>         0.1870
     16 H4          5.4578    2.4219    3.8581 H         1 <0>         0.3800
     17 H5          6.9633    2.9672    3.3494 H         1 <0>         0.3825
     18 H6          7.4373    3.1574    1.0236 H         1 <0>         0.2925
@<TRIPOS>BOND
     1    1    5 2
     2    1    2 1
     3    1   13 1
     4    2    3 2
     5    2   14 1
     6    3    4 1
     7    3    6 1
     8    4    5 1
     9    5   15 1
    10    6    7 2
    11    6    8 2
    12    6    9 1
    13    9   10 2
    14   10   11 1
    15   10   12 1
    16   11   18 1
    17   12   16 1
    18   12   17 1
@<TRIPOS>MOLECULE
ZINC06863734
   24    24     0     0     0
SMALL
USER_CHARGES

@<TRIPOS>ATOM
      1 C1         -0.0166    1.3748    0.0096 C.ar      1 <0>        -0.0885
      2 C2          1.1705    2.0863    0.0021 C.ar      1 <0>        -0.1552
      3 C3          2.3836    1.4211   -0.0130 C.ar      1 <0>        -0.0469
      4 C4          2.4177    0.0421   -0.0212 C.ar      1 <0>        -0.6167
      5 C5          1.2235   -0.6828   -0.0137 C.ar      1 <0>        -0.0301
      6 C6          0.0021   -0.0041    0.0020 C.ar      1 <0>        -0.1130
      7 C7          1.2517   -2.1579   -0.0223 C.2       1 <0>         0.5026
      8 O1          0.2046   -2.7895   -0.0157 O.co2     1 <0>        -0.6805
      9 O2          2.3222   -2.7489   -0.0360 O.co2     1 <0>        -0.6253
     10 S1          3.9636   -0.8030   -0.0416 S.o2      1 <0>         2.6750
     11 O3          3.8799   -1.7781   -1.0718 O.2       1 <0>        -0.9500
     12 O4          4.9733    0.1967   -0.0190 O.2       1 <0>        -1.0316
     13 N1          4.0871   -1.6326    1.3863 N.2       1 <0>        -1.0057
     14 C8          5.1463   -2.3508    1.6333 C.2       1 <0>         0.7359
     15 N2          6.1612   -2.4196    0.7084 N.pl3     1 <0>        -0.8871
     16 N3          5.2488   -3.0395    2.8188 N.pl3     1 <0>        -0.8292
     17 H1         -0.9598    1.9006    0.0259 H         1 <0>         0.1212
     18 H2          1.1498    3.1661    0.0077 H         1 <0>         0.1215
     19 H3          3.3060    1.9828   -0.0188 H         1 <0>         0.1329
     20 H4         -0.9250   -0.5581    0.0082 H         1 <0>         0.1344
     21 H5          6.0889   -1.9337   -0.1280 H         1 <0>         0.4086
     22 H6          6.9495   -2.9541    0.8923 H         1 <0>         0.4021
     23 H7          4.5328   -2.9909    3.4714 H         1 <0>         0.4243
     24 H8          6.0371   -3.5740    3.0026 H         1 <0>         0.4015
@<TRIPOS>BOND
     1    1    6 ar
     2    1    2 ar
     3    1   17 1
     4    2    3 ar
     5    2   18 1
     6    3    4 ar
     7    3   19 1
     8    4    5 ar
     9    4   10 1
    10    5    6 ar
    11    5    7 1
    12    6   20 1
    13    7    8 2
    14    7    9 1
    15   10   11 2
    16   10   12 2
    17   10   13 1
    18   13   14 2
    19   14   15 1
    20   14   16 1
    21   15   21 1
    22   15   22 1
    23   16   23 1
    24   16   24 1
@<TRIPOS>MOLECULE
ZINC06864978
   30    31     0     0     0
SMALL
USER_CHARGES

@<TRIPOS>ATOM
      1 C1          0.0146    0.4131   -0.1434 C.ar      1 <0>        -0.1214
      2 C2          1.0489    1.3469   -0.1747 C.ar      1 <0>        -0.0799
      3 C3          2.3506    0.9524   -0.1323 C.ar      1 <0>        -0.1416
      4 C4          2.6603   -0.4163   -0.0553 C.ar      1 <0>         0.0299
      5 C5          1.6085   -1.3660   -0.0230 C.ar      1 <0>        -0.0757
      6 C6          0.2763   -0.9203   -0.0690 C.ar      1 <0>        -0.0897
      7 C7          1.9179   -2.7343    0.0545 C.ar      1 <0>        -0.0342
      8 C8          3.2201   -3.1289    0.0974 C.ar      1 <0>        -0.1499
      9 C9          4.2540   -2.1954    0.0660 C.ar      1 <0>         0.0171
     10 C10         3.9920   -0.8617   -0.0093 C.ar      1 <0>        -0.6789
     11 S1          5.3162    0.3000   -0.0488 S.o2      1 <0>         2.6974
     12 O1          6.5182   -0.4504    0.0584 O.2       1 <0>        -0.9379
     13 O2          5.0581    1.1732   -1.1397 O.2       1 <0>        -0.9335
     14 N1          5.2056    1.2156    1.3267 N.pl3     1 <0>        -0.8981
     15 N2          5.2544    0.5995    2.5840 N.pl3     1 <0>        -0.5504
     16 C11         6.1887    0.9998    3.5098 C.2       1 <0>         0.6396
     17 N3          7.0290    1.9524    3.2178 N.2       1 <0>        -0.8101
     18 N4          6.2365    0.3952    4.7437 N.pl3     1 <0>        -0.8416
     19 H1         -1.0100    0.7531   -0.1741 H         1 <0>         0.1311
     20 H2          0.8137    2.3993   -0.2339 H         1 <0>         0.1328
     21 H3          3.1416    1.6873   -0.1581 H         1 <0>         0.1310
     22 H4         -0.5354   -1.6323   -0.0452 H         1 <0>         0.1341
     23 H5          1.1269   -3.4691    0.0803 H         1 <0>         0.1392
     24 H6          3.4552   -4.1813    0.1569 H         1 <0>         0.1390
     25 H7          5.2785   -2.5351    0.1017 H         1 <0>         0.1479
     26 H8          5.1070    2.1783    1.2618 H         1 <0>         0.4229
     27 H9          4.6290   -0.1094    2.8014 H         1 <0>         0.4112
     28 H10         5.6112   -0.3137    4.9610 H         1 <0>         0.4036
     29 H11         6.8957    0.6776    5.3969 H         1 <0>         0.4242
     30 H12         6.9952    2.3789    2.3472 H         1 <0>         0.3420
@<TRIPOS>BOND
     1    1    6 ar
     2    1    2 ar
     3    1   19 1
     4    2    3 ar
     5    2   20 1
     6    3    4 ar
     7    3   21 1
     8    4   10 ar
     9    4    5 ar
    10    5    6 ar
    11    5    7 ar
    12    6   22 1
    13    7    8 ar
    14    7   23 1
    15    8    9 ar
    16    8   24 1
    17    9   10 ar
    18    9   25 1
    19   10   11 1
    20   11   12 2
    21   11   13 2
    22   11   14 1
    23   14   15 1
    24   14   26 1
    25   15   16 1
    26   15   27 1
    27   16   17 2
    28   16   18 1
    29   17   30 1
    30   18   28 1
    31   18   29 1
@<TRIPOS>MOLECULE
ZINC06864978
   30    31     0     0     0
SMALL
USER_CHARGES

@<TRIPOS>ATOM
      1 C1         -0.0164    1.3567    0.0095 C.ar      1 <0>        -0.1209
      2 C2          1.1685    2.0906    0.0021 C.ar      1 <0>        -0.1020
      3 C3          2.3785    1.4679   -0.0132 C.ar      1 <0>        -0.1147
      4 C4          2.4378    0.0637   -0.0214 C.ar      1 <0>         0.0266
      5 C5          1.2328   -0.6827   -0.0134 C.ar      1 <0>        -0.0741
      6 C6          0.0021   -0.0041    0.0020 C.ar      1 <0>        -0.1015
      7 C7          1.2920   -2.0865   -0.0210 C.ar      1 <0>        -0.0543
      8 C8          2.5022   -2.7094   -0.0359 C.ar      1 <0>        -0.1445
      9 C9          3.6867   -1.9757   -0.0433 C.ar      1 <0>        -0.0047
     10 C10         3.6681   -0.6146   -0.0367 C.ar      1 <0>        -0.6083
     11 S1          5.1790    0.2918   -0.0475 S.o2      1 <0>         2.6024
     12 O1          5.0766    1.2641    0.9837 O.2       1 <0>        -1.0161
     13 O2          6.2273   -0.6666   -0.0895 O.2       1 <0>        -1.0214
     14 N1          5.2408    1.1237   -1.4780 N.2       1 <0>        -0.9418
     15 N2          6.3420    1.9404   -1.7665 N.pl3     1 <0>        -0.3951
     16 C11         6.3904    2.5929   -2.8886 C.cat     1 <0>         0.7032
     17 N3          5.3511    2.4812   -3.8019 N.pl3     1 <0>        -0.8142
     18 N4          7.4815    3.4020   -3.1744 N.pl3     1 <0>        -0.8522
     19 H1         -0.9634    1.8756    0.0259 H         1 <0>         0.1253
     20 H2          1.1258    3.1698    0.0084 H         1 <0>         0.1261
     21 H3          3.2883    2.0497   -0.0195 H         1 <0>         0.1435
     22 H4         -0.9241   -0.5595    0.0082 H         1 <0>         0.1288
     23 H5          0.3820   -2.6682   -0.0147 H         1 <0>         0.1338
     24 H6          2.5450   -3.7886   -0.0417 H         1 <0>         0.1331
     25 H7          4.6338   -2.4947   -0.0548 H         1 <0>         0.1420
     26 H8          8.2078    3.4801   -2.5362 H         1 <0>         0.4233
     27 H9          7.5177    3.8893   -4.0123 H         1 <0>         0.4263
     28 H10         4.5886    1.9158   -3.6021 H         1 <0>         0.4412
     29 H11         5.3873    2.9685   -4.6398 H         1 <0>         0.4150
     30 H12         7.0683    2.0185   -1.1283 H         1 <0>         0.3951
@<TRIPOS>BOND
     1    1    6 ar
     2    1    2 ar
     3    1   19 1
     4    2    3 ar
     5    2   20 1
     6    3    4 ar
     7    3   21 1
     8    4   10 ar
     9    4    5 ar
    10    5    6 ar
    11    5    7 ar
    12    6   22 1
    13    7    8 ar
    14    7   23 1
    15    8    9 ar
    16    8   24 1
    17    9   10 ar
    18    9   25 1
    19   10   11 1
    20   11   12 2
    21   11   13 2
    22   11   14 1
    23   14   15 1
    24   15   16 2
    25   15   30 1
    26   16   17 1
    27   16   18 1
    28   17   28 1
    29   17   29 1
    30   18   26 1
    31   18   27 1
@<TRIPOS>MOLECULE
ZINC06864978
   31    32     0     0     0
SMALL
USER_CHARGES

@<TRIPOS>ATOM
      1 C1         -0.0873    0.9440    0.0717 C.ar      1 <0>        -0.1219
      2 C2          1.0346    1.7679    0.0003 C.ar      1 <0>        -0.0672
      3 C3          2.2901    1.2429   -0.0104 C.ar      1 <0>        -0.1596
      4 C4          2.4616   -0.1507    0.0518 C.ar      1 <0>         0.0318
      5 C5          1.3206   -0.9886    0.1249 C.ar      1 <0>        -0.0768
      6 C6          0.0400   -0.4096    0.1332 C.ar      1 <0>        -0.0794
      7 C7          1.4920   -2.3817    0.1876 C.ar      1 <0>        -0.0176
      8 C8          2.7478   -2.9070    0.1773 C.ar      1 <0>        -0.1533
      9 C9          3.8693   -2.0833    0.1060 C.ar      1 <0>         0.0232
     10 C10         3.7418   -0.7295    0.0435 C.ar      1 <0>        -0.6944
     11 S1          5.1748    0.2918   -0.0473 S.o2      1 <0>         2.6796
     12 O1          6.2975   -0.5767    0.0219 O.2       1 <0>        -0.9174
     13 O2          4.9686    1.1852   -1.1329 O.2       1 <0>        -0.8936
     14 N1          5.2056    1.2156    1.3267 N.pl3     1 <0>        -0.9142
     15 N2          5.2544    0.5995    2.5840 N.pl3     1 <0>        -0.4215
     16 C11         5.1773    1.3186    3.6630 C.cat     1 <0>         0.7398
     17 N3          5.0465    2.6974    3.5703 N.pl3     1 <0>        -0.8086
     18 N4          5.2256    0.7082    4.9088 N.pl3     1 <0>        -0.8016
     19 H1         -1.0724    1.3866    0.0828 H         1 <0>         0.1364
     20 H2          0.9057    2.8391   -0.0476 H         1 <0>         0.1359
     21 H3          3.1502    1.8936   -0.0667 H         1 <0>         0.1250
     22 H4         -0.8384   -1.0354    0.1885 H         1 <0>         0.1394
     23 H5          0.6319   -3.0325    0.2439 H         1 <0>         0.1451
     24 H6          2.8768   -3.9782    0.2256 H         1 <0>         0.1450
     25 H7          4.8546   -2.5257    0.0997 H         1 <0>         0.1515
     26 H8          5.3170   -0.2553    4.9736 H         1 <0>         0.4417
     27 H9          5.1680    1.2452    5.7145 H         1 <0>         0.4464
     28 H10         5.0127    3.1239    2.6998 H         1 <0>         0.4339
     29 H11         4.9889    3.2344    4.3761 H         1 <0>         0.4448
     30 H12         5.3458   -0.3640    2.6488 H         1 <0>         0.4664
     31 H13         5.1898    2.1832    1.2610 H         1 <0>         0.4413
@<TRIPOS>BOND
     1    1    6 ar
     2    1    2 ar
     3    1   19 1
     4    2    3 ar
     5    2   20 1
     6    3    4 ar
     7    3   21 1
     8    4   10 ar
     9    4    5 ar
    10    5    6 ar
    11    5    7 ar
    12    6   22 1
    13    7    8 ar
    14    7   23 1
    15    8    9 ar
    16    8   24 1
    17    9   10 ar
    18    9   25 1
    19   10   11 1
    20   11   12 2
    21   11   13 2
    22   11   14 1
    23   14   15 1
    24   14   31 1
    25   15   16 2
    26   15   30 1
    27   16   17 1
    28   16   18 1
    29   17   28 1
    30   17   29 1
    31   18   26 1
    32   18   27 1
@<TRIPOS>MOLECULE
ZINC13808164
   33    33     0     0     0
SMALL
USER_CHARGES

@<TRIPOS>ATOM
      1 C1         -1.0228    1.3007    0.1869 C.3       1 <0>        -0.1266
      2 C2         -0.4784   -0.1009    0.0864 C.ar      1 <0>        -0.0146
      3 C3         -0.0852   -0.6034   -1.1399 C.ar      1 <0>        -0.1547
      4 C4          0.4141   -1.8891   -1.2321 C.ar      1 <0>         0.0278
      5 C5          0.5207   -2.6722   -0.0980 C.ar      1 <0>        -0.6988
      6 C6          0.1283   -2.1694    1.1284 C.ar      1 <0>         0.0342
      7 C7         -0.3670   -0.8822    1.2213 C.ar      1 <0>        -0.1539
      8 C8          0.2441   -3.0233    2.3648 C.3       1 <0>        -0.1402
      9 S1          1.1561   -4.3114   -0.2157 S.o2      1 <0>         2.6971
     10 O1          1.9115   -4.3688   -1.4180 O.2       1 <0>        -0.9395
     11 O2          1.7176   -4.6214    1.0523 O.2       1 <0>        -0.9394
     12 N1         -0.1377   -5.3245   -0.4209 N.pl3     1 <0>        -0.8802
     13 N2         -0.9789   -5.1705   -1.5307 N.pl3     1 <0>        -0.5061
     14 C9         -1.2099   -6.2339   -2.3709 C.2       1 <0>         0.6351
     15 N3         -0.6463   -7.3853   -2.1350 N.2       1 <0>        -0.8093
     16 N4         -2.0353   -6.0828   -3.4599 N.pl3     1 <0>        -0.8914
     17 C10         0.8419   -2.4372   -2.5692 C.3       1 <0>        -0.1451
     18 H1         -0.2032    1.9969    0.3645 H         1 <0>         0.0809
     19 H2         -1.5267    1.5624   -0.7435 H         1 <0>         0.0736
     20 H3         -1.7323    1.3566    1.0125 H         1 <0>         0.0737
     21 H4         -0.1685    0.0084   -2.0260 H         1 <0>         0.1327
     22 H5         -0.6701   -0.4881    2.1801 H         1 <0>         0.1330
     23 H6          1.2587   -2.9580    2.7578 H         1 <0>         0.0987
     24 H7         -0.4606   -2.6701    3.1176 H         1 <0>         0.0766
     25 H8          0.0179   -4.0595    2.1132 H         1 <0>         0.0774
     26 H9         -0.3131   -6.0245    0.2273 H         1 <0>         0.4280
     27 H10        -0.8093   -8.1356   -2.7279 H         1 <0>         0.3440
     28 H11        -2.4547   -5.2260   -3.6354 H         1 <0>         0.3912
     29 H12        -2.1983   -6.8331   -4.0527 H         1 <0>         0.4141
     30 H13         1.9176   -2.3071   -2.6879 H         1 <0>         0.0967
     31 H14         0.5960   -3.4978   -2.6226 H         1 <0>         0.0872
     32 H15         0.3214   -1.9031   -3.3642 H         1 <0>         0.0732
     33 H16        -1.3983   -4.3137   -1.7062 H         1 <0>         0.4245
@<TRIPOS>BOND
     1    1    2 1
     2    1   18 1
     3    1   19 1
     4    1   20 1
     5    2    7 ar
     6    2    3 ar
     7    3    4 ar
     8    3   21 1
     9    4    5 ar
    10    4   17 1
    11    5    6 ar
    12    5    9 1
    13    6    7 ar
    14    6    8 1
    15    7   22 1
    16    8   23 1
    17    8   24 1
    18    8   25 1
    19    9   10 2
    20    9   11 2
    21    9   12 1
    22   12   13 1
    23   12   26 1
    24   13   14 1
    25   13   33 1
    26   14   15 2
    27   14   16 1
    28   15   27 1
    29   16   28 1
    30   16   29 1
    31   17   30 1
    32   17   31 1
    33   17   32 1
@<TRIPOS>MOLECULE
ZINC13808164
   33    33     0     0     0
SMALL
USER_CHARGES

@<TRIPOS>ATOM
      1 C1         -1.0226    1.3005    0.1901 C.3       1 <0>        -0.1240
      2 C2         -0.4783   -0.1010    0.0879 C.ar      1 <0>        -0.0202
      3 C3         -0.0876   -0.6029   -1.1394 C.ar      1 <0>        -0.1582
      4 C4          0.4117   -1.8886   -1.2331 C.ar      1 <0>         0.0448
      5 C5          0.5206   -2.6721   -0.0995 C.ar      1 <0>        -0.6812
      6 C6          0.1307   -2.1699    1.1279 C.ar      1 <0>         0.0256
      7 C7         -0.3646   -0.8827    1.2223 C.ar      1 <0>        -0.1583
      8 C8          0.2490   -3.0243    2.3637 C.3       1 <0>        -0.1349
      9 S1          1.1559   -4.3112   -0.2192 S.o2      1 <0>         2.7250
     10 O1          1.9111   -4.3673   -1.4216 O.2       1 <0>        -0.9448
     11 O2          1.7176   -4.6227    1.0484 O.2       1 <0>        -0.9591
     12 N1         -0.1380   -5.3240   -0.4253 N.pl3     1 <0>        -0.9557
     13 N2         -0.9793   -5.1688   -1.5347 N.2       1 <0>        -0.3823
     14 C9         -1.9943   -5.9632   -1.6964 C.2       1 <0>         0.5943
     15 N3         -2.2452   -6.9659   -0.7699 N.pl3     1 <0>        -0.8896
     16 N4         -2.8279   -5.8093   -2.7956 N.pl3     1 <0>        -0.8437
     17 C10         0.8368   -2.4361   -2.5713 C.3       1 <0>        -0.1437
     18 H1         -0.2027    1.9968    0.3663 H         1 <0>         0.0787
     19 H2         -1.5284    1.5626   -0.7392 H         1 <0>         0.0720
     20 H3         -1.7304    1.3560    1.0172 H         1 <0>         0.0712
     21 H4         -0.1726    0.0092   -2.0250 H         1 <0>         0.1297
     22 H5         -0.6657   -0.4891    2.1819 H         1 <0>         0.1289
     23 H6          1.2644   -2.9592    2.7545 H         1 <0>         0.0959
     24 H7         -0.4541   -2.6712    3.1181 H         1 <0>         0.0727
     25 H8          0.0221   -4.0603    2.1122 H         1 <0>         0.0727
     26 H9         -0.3134   -6.0247    0.2221 H         1 <0>         0.3862
     27 H10        -2.6525   -5.1086   -3.4430 H         1 <0>         0.4204
     28 H11        -3.5858   -6.4026   -2.9163 H         1 <0>         0.4093
     29 H12         1.9119   -2.3039   -2.6930 H         1 <0>         0.0885
     30 H13         0.5929   -3.4971   -2.6238 H         1 <0>         0.1036
     31 H14         0.3131   -1.9032   -3.3649 H         1 <0>         0.0673
     32 H15        -1.6627   -7.0734   -0.0018 H         1 <0>         0.4073
     33 H16        -3.0031   -7.5591   -0.8906 H         1 <0>         0.4014
@<TRIPOS>BOND
     1    1    2 1
     2    1   18 1
     3    1   19 1
     4    1   20 1
     5    2    7 ar
     6    2    3 ar
     7    3    4 ar
     8    3   21 1
     9    4    5 ar
    10    4   17 1
    11    5    6 ar
    12    5    9 1
    13    6    7 ar
    14    6    8 1
    15    7   22 1
    16    8   23 1
    17    8   24 1
    18    8   25 1
    19    9   10 2
    20    9   11 2
    21    9   12 1
    22   12   13 1
    23   12   26 1
    24   13   14 2
    25   14   15 1
    26   14   16 1
    27   15   32 1
    28   15   33 1
    29   16   27 1
    30   16   28 1
    31   17   29 1
    32   17   30 1
    33   17   31 1
@<TRIPOS>MOLECULE
ZINC13808043
   22    22     0     0     0
SMALL
USER_CHARGES

@<TRIPOS>ATOM
      1 C1         -0.0167    1.3815    0.0096 C.ar      1 <0>         0.1522
      2 C2          1.1742    2.0898    0.0021 C.ar      1 <0>         0.0351
      3 C3          2.3831    1.4120   -0.0131 C.ar      1 <0>         0.2264
      4 C4          2.4009    0.0281   -0.0212 C.ar      1 <0>        -0.6914
      5 C5          1.2118   -0.6802   -0.0141 C.ar      1 <0>         0.2262
      6 C6          0.0021   -0.0041    0.0020 C.ar      1 <0>         0.0351
      7 F1         -1.1585   -0.6956    0.0098 F         1 <0>        -0.0935
      8 F2          1.2303   -2.0311   -0.0229 F         1 <0>        -0.0728
      9 S1          3.9383   -0.8326   -0.0411 S.o2      1 <0>         2.6577
     10 O1          3.6790   -2.1145   -0.5967 O.2       1 <0>        -0.9576
     11 O2          4.8956    0.0589   -0.5962 O.2       1 <0>        -0.9576
     12 N1          4.3809   -1.0807    1.5353 N.2       1 <0>        -1.0524
     13 C7          5.4928   -1.7032    1.8097 C.2       1 <0>         0.7568
     14 N2          6.2980   -2.1537    0.7906 N.pl3     1 <0>        -0.8769
     15 N3          5.8602   -1.9092    3.1184 N.pl3     1 <0>        -0.8120
     16 F3          3.5443    2.1024   -0.0205 F         1 <0>        -0.0727
     17 F4          1.1570    3.4407    0.0090 F         1 <0>        -0.0935
     18 F5         -1.1954    2.0413    0.0301 F         1 <0>        -0.0842
     19 H1          6.0387   -2.0084   -0.1328 H         1 <0>         0.4127
     20 H2          7.1254   -2.6170    0.9948 H         1 <0>         0.4168
     21 H3          5.2921   -1.5914    3.8375 H         1 <0>         0.4313
     22 H4          6.6876   -2.3725    3.3227 H         1 <0>         0.4145
@<TRIPOS>BOND
     1    1    6 ar
     2    1    2 ar
     3    1   18 1
     4    2    3 ar
     5    2   17 1
     6    3    4 ar
     7    3   16 1
     8    4    5 ar
     9    4    9 1
    10    5    6 ar
    11    5    8 1
    12    6    7 1
    13    9   10 2
    14    9   11 2
    15    9   12 1
    16   12   13 2
    17   13   14 1
    18   13   15 1
    19   14   19 1
    20   14   20 1
    21   15   21 1
    22   15   22 1
@<TRIPOS>MOLECULE
ZINC06225091
   24    24     0     0     0
SMALL
USER_CHARGES

@<TRIPOS>ATOM
      1 C1         -0.0167    1.3779    0.0096 C.ar      1 <0>        -0.1337
      2 C2          1.1711    2.0854    0.0021 C.ar      1 <0>        -0.0046
      3 C3          2.3773    1.4107   -0.0130 C.ar      1 <0>        -0.0697
      4 C4          2.3961    0.0283   -0.0201 C.ar      1 <0>         0.0459
      5 C5          1.2086   -0.6790   -0.0117 C.ar      1 <0>        -0.6395
      6 C6          0.0021   -0.0041    0.0020 C.ar      1 <0>         0.0290
      7 S1          1.2325   -2.4408   -0.0219 S.o2      1 <0>         2.6546
      8 O1         -0.0129   -2.8607   -0.5621 O.2       1 <0>        -0.9771
      9 O2          2.4774   -2.8268   -0.5880 O.2       1 <0>        -0.9759
     10 N1          1.2558   -2.9393    1.5571 N.2       1 <0>        -1.0545
     11 C7          1.2760   -4.2118    1.8386 C.2       1 <0>         0.7537
     12 N2          1.2781   -5.1402    0.8245 N.pl3     1 <0>        -0.8777
     13 N3          1.2953   -4.6257    3.1495 N.pl3     1 <0>        -0.8137
     14 N4          3.6490    2.1682   -0.0221 N.pl3     1 <0>         0.0324
     15 O3          3.6326    3.3771   -0.0163 O.2       1 <0>        -0.1502
     16 O4          4.7040    1.5780   -0.0353 O.3       1 <0>        -0.1486
     17 H1         -0.9591    1.9051    0.0259 H         1 <0>         0.1609
     18 H2          1.1565    3.1653    0.0076 H         1 <0>         0.1639
     19 H3          3.3385   -0.4989   -0.0326 H         1 <0>         0.1699
     20 H4         -0.9258   -0.5567    0.0082 H         1 <0>         0.1613
     21 H5          1.2645   -4.8482   -0.1004 H         1 <0>         0.4127
     22 H6          1.2932   -6.0872    1.0340 H         1 <0>         0.4160
     23 H7          1.2938   -3.9707    3.8649 H         1 <0>         0.4308
     24 H8          1.3104   -5.5727    3.3589 H         1 <0>         0.4139
@<TRIPOS>BOND
     1    1    6 ar
     2    1    2 ar
     3    1   17 1
     4    2    3 ar
     5    2   18 1
     6    3    4 ar
     7    3   14 1
     8    4    5 ar
     9    4   19 1
    10    5    6 ar
    11    5    7 1
    12    6   20 1
    13    7    8 2
    14    7    9 2
    15    7   10 1
    16   10   11 2
    17   11   12 1
    18   11   13 1
    19   12   21 1
    20   12   22 1
    21   13   23 1
    22   13   24 1
    23   14   15 2
    24   14   16 1
@<TRIPOS>MOLECULE
ZINC13808110
   26    26     0     0     0
SMALL
USER_CHARGES

@<TRIPOS>ATOM
      1 C1         -0.0173    1.4248    0.0099 C.3       1 <0>         0.0550
      2 O1          0.0021   -0.0041    0.0020 O.3       1 <0>        -0.3197
      3 C2          0.6221   -0.6147    1.0353 C.2       1 <0>         0.6795
      4 N1          1.1670    0.0961    1.9789 N.2       1 <0>        -0.9999
      5 S1          1.9270   -0.6524    3.2455 S.o2      1 <0>         2.6726
      6 O2          0.9206   -1.3453    3.9709 O.2       1 <0>        -1.0245
      7 O3          3.0654   -1.3093    2.7052 O.2       1 <0>        -0.9429
      8 C3          2.5342    0.6133    4.3104 C.ar      1 <0>        -0.6172
      9 C4          2.0334    0.7399    5.5894 C.ar      1 <0>        -0.0459
     10 C5          2.5089    1.7333    6.4270 C.ar      1 <0>        -0.1541
     11 C6          3.4893    2.6066    5.9889 C.ar      1 <0>        -0.0868
     12 C7          3.9989    2.4923    4.7126 C.ar      1 <0>        -0.1121
     13 C8          3.5279    1.4875    3.8633 C.ar      1 <0>        -0.0303
     14 C9          4.0732    1.3544    2.4989 C.2       1 <0>         0.5033
     15 O4          4.9430    2.1212    2.1105 O.co2     1 <0>        -0.6774
     16 O5          3.6553    0.4772    1.7563 O.co2     1 <0>        -0.6287
     17 N2          0.6772   -1.9859    1.0897 N.pl3     1 <0>        -0.8526
     18 H1          1.0053    1.8021    0.0021 H         1 <0>         0.0775
     19 H2         -0.5445    1.7859   -0.8732 H         1 <0>         0.0973
     20 H3         -0.5275    1.7763    0.9067 H         1 <0>         0.0653
     21 H4          1.2680    0.0623    5.9378 H         1 <0>         0.1336
     22 H5          2.1130    1.8280    7.4273 H         1 <0>         0.1224
     23 H6          3.8558    3.3796    6.6480 H         1 <0>         0.1220
     24 H7          4.7637    3.1746    4.3720 H         1 <0>         0.1351
     25 H8          0.2710   -2.5159    0.3861 H         1 <0>         0.4122
     26 H9          1.1224   -2.4244    1.8316 H         1 <0>         0.4162
@<TRIPOS>BOND
     1    1    2 1
     2    1   18 1
     3    1   19 1
     4    1   20 1
     5    2    3 1
     6    3    4 2
     7    3   17 1
     8    4    5 1
     9    5    6 2
    10    5    7 2
    11    5    8 1
    12    8   13 ar
    13    8    9 ar
    14    9   10 ar
    15    9   21 1
    16   10   11 ar
    17   10   22 1
    18   11   12 ar
    19   11   23 1
    20   12   13 ar
    21   12   24 1
    22   13   14 1
    23   14   15 2
    24   14   16 1
    25   17   25 1
    26   17   26 1
@<TRIPOS>MOLECULE
ZINC13808108
   24    24     0     0     0
SMALL
USER_CHARGES

@<TRIPOS>ATOM
      1 C1         -0.0173    1.4248    0.0099 C.3       1 <0>         0.0480
      2 O1          0.0021   -0.0041    0.0020 O.3       1 <0>        -0.3016
      3 C2          0.6022   -0.6035   -1.0494 C.2       1 <0>         0.7047
      4 N1          1.1291    0.1175   -1.9956 N.2       1 <0>        -1.0499
      5 S1          1.8647   -0.6174   -3.2844 S.o2      1 <0>         2.6569
      6 O2          3.0131   -1.2798   -2.7731 O.2       1 <0>        -0.9502
      7 O3          0.8445   -1.3025   -3.9979 O.2       1 <0>        -0.9502
      8 C3          2.4515    0.6598   -4.3470 C.ar      1 <0>        -0.6931
      9 C4          1.6359    1.1542   -5.3501 C.ar      1 <0>         0.2266
     10 C5          2.0967    2.1588   -6.1864 C.ar      1 <0>         0.0362
     11 C6          3.3743    2.6683   -6.0180 C.ar      1 <0>         0.1539
     12 C7          4.1901    2.1728   -5.0135 C.ar      1 <0>         0.0362
     13 C8          3.7257    1.1721   -4.1746 C.ar      1 <0>         0.2266
     14 F1          4.5188    0.6930   -3.1914 F         1 <0>        -0.0724
     15 F2          5.4359    2.6688   -4.8485 F         1 <0>        -0.0926
     16 F3          3.8244    3.6473   -6.8331 F         1 <0>        -0.0832
     17 F4          1.3006    2.6409   -7.1657 F         1 <0>        -0.0926
     18 F5          0.3905    0.6570   -5.5144 F         1 <0>        -0.0725
     19 N2          0.6561   -1.9741   -1.1196 N.pl3     1 <0>        -0.8394
     20 H1          1.0053    1.8021    0.0021 H         1 <0>         0.0751
     21 H2         -0.5445    1.7859   -0.8732 H         1 <0>         0.0751
     22 H3         -0.5275    1.7763    0.9067 H         1 <0>         0.1114
     23 H4          0.2633   -2.5116   -0.4141 H         1 <0>         0.4269
     24 H5          1.0870   -2.4045   -1.8745 H         1 <0>         0.4201
@<TRIPOS>BOND
     1    1    2 1
     2    1   20 1
     3    1   21 1
     4    1   22 1
     5    2    3 1
     6    3    4 2
     7    3   19 1
     8    4    5 1
     9    5    6 2
    10    5    7 2
    11    5    8 1
    12    8   13 ar
    13    8    9 ar
    14    9   10 ar
    15    9   18 1
    16   10   11 ar
    17   10   17 1
    18   11   12 ar
    19   11   16 1
    20   12   13 ar
    21   12   15 1
    22   13   14 1
    23   19   23 1
    24   19   24 1
@<TRIPOS>MOLECULE
ZINC13808031
   25    25     0     0     0
SMALL
USER_CHARGES
2-benzylsulfonylguanidine
@<TRIPOS>ATOM
      1 C1         -0.0126    1.0758    0.0080 C.ar      1 <0>        -0.1097
      2 C2         -1.2190    1.7506    0.0173 C.ar      1 <0>        -0.1181
      3 C3         -1.2377    3.1328    0.0299 C.ar      1 <0>        -0.1035
      4 C4         -0.0501    3.8402    0.0228 C.ar      1 <0>        -0.0985
      5 C5          1.1563    3.1654    0.0076 C.ar      1 <0>        -0.1035
      6 C6          1.1750    1.7832    0.0004 C.ar      1 <0>        -0.1181
      7 C7         -0.0705    5.3471    0.0311 C.3       1 <0>        -0.5408
      8 S1         -0.0951    5.9609   -1.6757 S.o2      1 <0>         2.5640
      9 O1          1.1376    5.6678   -2.3190 O.2       1 <0>        -0.9838
     10 O2         -1.3313    5.6342   -2.2955 O.2       1 <0>        -0.9838
     11 N1         -0.1162    7.6107   -1.5343 N.2       1 <0>        -1.0634
     12 C8         -0.1365    8.3562   -2.6033 C.2       1 <0>         0.7521
     13 N2         -0.1404    7.7728   -3.8482 N.pl3     1 <0>        -0.8765
     14 N3         -0.1540    9.7259   -2.4860 N.pl3     1 <0>        -0.8193
     15 H1          0.0021   -0.0041    0.0020 H         1 <0>         0.1280
     16 H2         -2.1469    1.1980    0.0187 H         1 <0>         0.1298
     17 H3         -2.1802    3.6600    0.0414 H         1 <0>         0.1306
     18 H4          2.0842    3.7181    0.0017 H         1 <0>         0.1307
     19 H5          2.1175    1.2560   -0.0115 H         1 <0>         0.1298
     20 H6         -0.9604    5.6955    0.5554 H         1 <0>         0.1436
     21 H7          0.8193    5.7197    0.5385 H         1 <0>         0.1436
     22 H8         -0.1280    6.8065   -3.9310 H         1 <0>         0.4149
     23 H9         -0.1555    8.3276   -4.6438 H         1 <0>         0.4118
     24 H10        -0.1513   10.1375   -1.6076 H         1 <0>         0.4288
     25 H11        -0.1691   10.2807   -3.2815 H         1 <0>         0.4113
@<TRIPOS>BOND
     1    1    6 ar
     2    1    2 ar
     3    1   15 1
     4    2    3 ar
     5    2   16 1
     6    3    4 ar
     7    3   17 1
     8    4    5 ar
     9    4    7 1
    10    5    6 ar
    11    5   18 1
    12    6   19 1
    13    7    8 1
    14    7   20 1
    15    7   21 1
    16    8    9 2
    17    8   10 2
    18    8   11 1
    19   11   12 2
    20   12   13 1
    21   12   14 1
    22   13   22 1
    23   13   23 1
    24   14   24 1
    25   14   25 1
@<TRIPOS>MOLECULE
ZINC02164945
   24    24     0     0     0
SMALL
USER_CHARGES

@<TRIPOS>ATOM
      1 C1         -0.0167    1.3781    0.0096 C.ar      1 <0>        -0.0763
      2 C2          1.1709    2.0855    0.0021 C.ar      1 <0>        -0.0156
      3 C3          2.3773    1.4107   -0.0130 C.ar      1 <0>        -0.5970
      4 C4          2.3961    0.0285   -0.0201 C.ar      1 <0>        -0.0155
      5 C5          1.2084   -0.6789   -0.0117 C.ar      1 <0>        -0.0763
      6 C6          0.0021   -0.0041    0.0020 C.ar      1 <0>         0.0012
      7 N1         -1.2696   -0.7615    0.0105 N.pl3     1 <0>         0.0241
      8 O1         -2.3247   -0.1714    0.0241 O.2       1 <0>        -0.1437
      9 O2         -1.2532   -1.9704    0.0039 O.3       1 <0>        -0.1439
     10 S1          3.8911    2.3124   -0.0238 S.o2      1 <0>         2.6509
     11 O3          4.8717    1.4529   -0.5884 O.2       1 <0>        -0.9762
     12 O4          3.5973    3.5927   -0.5658 O.2       1 <0>        -0.9762
     13 N2          4.3274    2.5556    1.5551 N.2       1 <0>        -1.0535
     14 C7          5.4222    3.2047    1.8361 C.2       1 <0>         0.7538
     15 N3          6.2148    3.6874    0.8217 N.pl3     1 <0>        -0.8777
     16 N4          5.7844    3.4066    3.1469 N.pl3     1 <0>        -0.8135
     17 H1         -0.9591    1.9053    0.0259 H         1 <0>         0.1656
     18 H2          1.1563    3.1654    0.0076 H         1 <0>         0.1652
     19 H3          3.3385   -0.4987   -0.0326 H         1 <0>         0.1652
     20 H4          1.2231   -1.7588   -0.0179 H         1 <0>         0.1656
     21 H5          5.9592    3.5450   -0.1031 H         1 <0>         0.4127
     22 H6          7.0295    4.1705    1.0309 H         1 <0>         0.4161
     23 H7          5.2252    3.0660    3.8626 H         1 <0>         0.4310
     24 H8          6.5992    3.8896    3.3560 H         1 <0>         0.4140
@<TRIPOS>BOND
     1    1    6 ar
     2    1    2 ar
     3    1   17 1
     4    2    3 ar
     5    2   18 1
     6    3    4 ar
     7    3   10 1
     8    4    5 ar
     9    4   19 1
    10    5    6 ar
    11    5   20 1
    12    6    7 1
    13    7    8 2
    14    7    9 1
    15   10   11 2
    16   10   12 2
    17   10   13 1
    18   13   14 2
    19   14   15 1
    20   14   16 1
    21   15   21 1
    22   15   22 1
    23   16   23 1
    24   16   24 1
@<TRIPOS>MOLECULE
ZINC08379018
   22    22     0     0     0
SMALL
USER_CHARGES

@<TRIPOS>ATOM
      1 C1         -0.0167    1.3804    0.0096 C.ar      1 <0>        -0.1757
      2 C2          1.1709    2.0870    0.0021 C.ar      1 <0>         0.0116
      3 C3          2.3774    1.4122   -0.0131 C.ar      1 <0>        -0.6511
      4 C4          2.3973    0.0299   -0.0211 C.ar      1 <0>         0.0117
      5 C5          1.2110   -0.6789   -0.0136 C.ar      1 <0>        -0.1757
      6 C6          0.0021   -0.0041    0.0020 C.ar      1 <0>         0.1557
      7 F1         -1.1583   -0.6959    0.0094 F         1 <0>        -0.1286
      8 S1          3.8907    2.3146   -0.0227 S.o2      1 <0>         2.6534
      9 O1          4.8720    1.4559   -0.5875 O.2       1 <0>        -0.9854
     10 O2          3.5966    3.5951   -0.5638 O.2       1 <0>        -0.9854
     11 N1          4.3264    2.5568    1.5565 N.2       1 <0>        -1.0534
     12 C7          5.4208    3.2062    1.8384 C.2       1 <0>         0.7504
     13 N2          6.2135    3.6900    0.8247 N.pl3     1 <0>        -0.8790
     14 N3          5.7825    3.4073    3.1495 N.pl3     1 <0>        -0.8163
     15 H1         -0.9590    1.9078    0.0260 H         1 <0>         0.1480
     16 H2          1.1565    3.1669    0.0077 H         1 <0>         0.1512
     17 H3          3.3404   -0.4962   -0.0337 H         1 <0>         0.1512
     18 H4          1.2268   -1.7587   -0.0203 H         1 <0>         0.1479
     19 H5          5.9583    3.5481   -0.1003 H         1 <0>         0.4127
     20 H6          7.0280    4.1732    1.0345 H         1 <0>         0.4143
     21 H7          5.2232    3.0659    3.8647 H         1 <0>         0.4301
     22 H8          6.5970    3.8905    3.3593 H         1 <0>         0.4124
@<TRIPOS>BOND
     1    1    6 ar
     2    1    2 ar
     3    1   15 1
     4    2    3 ar
     5    2   16 1
     6    3    4 ar
     7    3    8 1
     8    4    5 ar
     9    4   17 1
    10    5    6 ar
    11    5   18 1
    12    6    7 1
    13    8    9 2
    14    8   10 2
    15    8   11 1
    16   11   12 2
    17   12   13 1
    18   12   14 1
    19   13   19 1
    20   13   20 1
    21   14   21 1
    22   14   22 1
@<TRIPOS>MOLECULE
ZINC01646573
   29    29     0     0     0
SMALL
USER_CHARGES

@<TRIPOS>ATOM
      1 C1         -0.6167    1.5067   -2.1653 C.3       1 <0>        -0.1714
      2 C2         -0.6037   -0.0002   -2.1694 C.2       1 <0>         0.5111
      3 O1         -1.1366   -0.6088   -3.0731 O.2       1 <0>        -0.5187
      4 N1          0.0001   -0.6716   -1.1688 N.am      1 <0>        -0.6781
      5 C3         -0.0708   -2.0682   -1.1208 C.ar      1 <0>         0.1975
      6 C4         -0.1517   -2.7192    0.1032 C.ar      1 <0>        -0.1671
      7 C5         -0.2215   -4.0979    0.1472 C.ar      1 <0>         0.0017
      8 C6         -0.2108   -4.8300   -1.0259 C.ar      1 <0>        -0.6516
      9 C7         -0.1298   -4.1848   -2.2463 C.ar      1 <0>         0.0017
     10 C8         -0.0660   -2.8061   -2.2973 C.ar      1 <0>        -0.1442
     11 S1         -0.3000   -6.5887   -0.9655 S.o2      1 <0>         2.6523
     12 O2          0.2766   -7.0663   -2.1733 O.2       1 <0>        -0.9880
     13 O3          0.1818   -6.9760    0.3140 O.2       1 <0>        -0.9889
     14 N2         -1.9035   -6.9995   -1.0117 N.2       1 <0>        -1.0524
     15 C9         -2.2561   -8.2539   -0.9796 C.2       1 <0>         0.7489
     16 N3         -1.2967   -9.2360   -0.9074 N.pl3     1 <0>        -0.8796
     17 N4         -3.5874   -8.5950   -1.0180 N.pl3     1 <0>        -0.8173
     18 H1         -1.5023    1.8610   -1.6379 H         1 <0>         0.1006
     19 H2          0.2774    1.8764   -1.6633 H         1 <0>         0.0848
     20 H3         -0.6345    1.8727   -3.1919 H         1 <0>         0.1003
     21 H4          0.4837   -0.1866   -0.4820 H         1 <0>         0.4161
     22 H5         -0.1598   -2.1480    1.0197 H         1 <0>         0.1373
     23 H6         -0.2841   -4.6048    1.0988 H         1 <0>         0.1447
     24 H7         -0.1213   -4.7594   -3.1607 H         1 <0>         0.1439
     25 H8         -0.0080   -2.3025   -3.2510 H         1 <0>         0.1489
     26 H9         -0.3574   -8.9953   -0.8803 H         1 <0>         0.4125
     27 H10        -1.5591  -10.1695   -0.8835 H         1 <0>         0.4136
     28 H11        -4.2643   -7.9021   -1.0689 H         1 <0>         0.4298
     29 H12        -3.8498   -9.5285   -0.9941 H         1 <0>         0.4117
@<TRIPOS>BOND
     1    1    2 1
     2    1   18 1
     3    1   19 1
     4    1   20 1
     5    2    3 2
     6    2    4 am
     7    4    5 1
     8    4   21 1
     9    5   10 ar
    10    5    6 ar
    11    6    7 ar
    12    6   22 1
    13    7    8 ar
    14    7   23 1
    15    8    9 ar
    16    8   11 1
    17    9   10 ar
    18    9   24 1
    19   10   25 1
    20   11   12 2
    21   11   13 2
    22   11   14 1
    23   14   15 2
    24   15   16 1
    25   15   17 1
    26   16   26 1
    27   16   27 1
    28   17   28 1
    29   17   29 1
@<TRIPOS>MOLECULE
ZINC03791107
   62    65     0     0     0
SMALL
USER_CHARGES
3-(7-amidino-2-naphthyl)-2-[4-(1-ethanimidoylpyrrolidin-3-yl)oxyphenyl]-propanoic acid
@<TRIPOS>ATOM
      1 C1         -5.0940    5.9928   -0.1468 C.3       1 <0>        -0.1541
      2 C2         -5.1629    5.2111    1.1398 C.cat     1 <0>         0.5423
      3 N1         -4.2222    4.2525    1.4101 N.pl3     1 <0>        -0.5640
      4 C3         -3.0946    3.8842    0.5348 C.3       1 <0>         0.0859
      5 C4         -2.7351    2.4275    0.9390 C.3       1 <0>        -0.1558
      6 C5         -2.9628    2.4709    2.4731 C.3       1 <0>         0.0765
      7 H1         -2.0884    2.8773    2.9814 H         1 <0>         0.1079
      8 C6         -4.1706    3.4199    2.6209 C.3       1 <0>         0.0683
      9 O1         -3.2776    1.1702    2.9744 O.3       1 <0>        -0.3020
     10 C7         -2.2551    0.4498    3.5061 C.ar      1 <0>         0.0983
     11 C8         -2.5091   -0.7673    4.1213 C.ar      1 <0>        -0.1421
     12 C9         -1.4673   -1.5006    4.6556 C.ar      1 <0>        -0.0419
     13 C10        -0.1739   -1.0166    4.5882 C.ar      1 <0>        -0.0630
     14 C11         0.0812    0.1988    3.9805 C.ar      1 <0>        -0.0838
     15 C12        -0.9564    0.9330    3.4393 C.ar      1 <0>        -0.2074
     16 C13         0.9599   -1.8155    5.1777 C.3       1 <0>        -0.0961
     17 H2          1.8974   -1.2793    5.0301 H         1 <0>         0.0800
     18 C14         1.0374   -3.1780    4.4861 C.3       1 <0>        -0.0572
     19 C15         2.2441   -3.9283    4.9880 C.ar      1 <0>        -0.0714
     20 C16         3.4637   -3.7873    4.3284 C.ar      1 <0>        -0.0584
     21 C17         4.5740   -4.4469    4.7588 C.ar      1 <0>        -0.1431
     22 C18         4.4920   -5.2921    5.8781 C.ar      1 <0>        -0.0103
     23 C19         5.6203   -5.9910    6.3441 C.ar      1 <0>        -0.0865
     24 C20         5.5167   -6.8018    7.4281 C.ar      1 <0>        -0.1014
     25 C21         4.2909   -6.9566    8.0981 C.ar      1 <0>        -0.1777
     26 C22         3.1632   -6.2825    7.6648 C.ar      1 <0>         0.0095
     27 C23         3.2500   -5.4399    6.5461 C.ar      1 <0>        -0.0688
     28 C24         2.1259   -4.7380    6.0754 C.ar      1 <0>         0.0060
     29 C25         4.2060   -7.8478    9.2769 C.cat     1 <0>         0.6014
     30 N2          5.3260   -8.5218    9.7133 N.pl3     1 <0>        -0.7881
     31 C26         0.7213   -2.0136    6.6524 C.2       1 <0>         0.4679
     32 O2         -0.2680   -1.5533    7.1715 O.co2     1 <0>        -0.6228
     33 H3         -4.2355    5.6588   -0.7293 H         1 <0>         0.1172
     34 H4         -6.0071    5.8309   -0.7197 H         1 <0>         0.1304
     35 H5         -4.9896    7.0542    0.0782 H         1 <0>         0.1310
     36 H6         -6.8225    6.1036    1.8878 H         1 <0>         0.4577
     37 H7         -3.3980    3.9234   -0.5114 H         1 <0>         0.1097
     38 H8         -2.2473    4.5476    0.7083 H         1 <0>         0.1077
     39 H9         -1.6954    2.1989    0.7046 H         1 <0>         0.1127
     40 H10        -3.4073    1.7128    0.4642 H         1 <0>         0.1016
     41 H11        -5.0890    2.8399    2.7113 H         1 <0>         0.1104
     42 H12        -4.0405    4.0515    3.4997 H         1 <0>         0.1079
     43 H13        -3.5198   -1.1436    4.1785 H         1 <0>         0.1272
     44 H14        -1.6640   -2.4504    5.1307 H         1 <0>         0.1287
     45 H15         1.0924    0.5744    3.9285 H         1 <0>         0.1224
     46 H16        -0.7567    1.8826    2.9651 H         1 <0>         0.1206
     47 H17         0.1361   -3.7497    4.7076 H         1 <0>         0.0711
     48 H18         1.1209   -3.0345    3.4088 H         1 <0>         0.0697
     49 H19         3.5298   -3.1419    3.4650 H         1 <0>         0.1270
     50 H20         5.5130   -4.3241    4.2395 H         1 <0>         0.1324
     51 H21         6.5692   -5.8823    5.8397 H         1 <0>         0.1407
     52 H22         6.3875   -7.3351    7.7799 H         1 <0>         0.1270
     53 H23         2.2236   -6.4040    8.1832 H         1 <0>         0.1355
     54 H24         1.1737   -4.8407    6.5746 H         1 <0>         0.1355
     55 H25         2.9162   -8.5565   10.6840 H         1 <0>         0.4393
     56 H26         6.1699   -8.4121    9.2480 H         1 <0>         0.4412
     57 H27         5.2703   -9.1058   10.4858 H         1 <0>         0.4262
     58 N3         -6.0995    5.4010    2.0429 N.pl3     1 <0>        -0.7653
     59 H28        -6.1030    4.8422    2.9042 H         1 <0>         0.4433
     60 N4          3.0255   -7.9545    9.8677 N.pl3     1 <0>        -0.7667
     61 H29         2.2203   -7.4314    9.5042 H         1 <0>         0.4604
     62 O3          1.6076   -2.7013    7.3893 O.co2     1 <0>        -0.7504
@<TRIPOS>BOND
     1    1    2 1
     2    1   33 1
     3    1   34 1
     4    1   35 1
     5    2    3 1
     6    2   58 2
     7    3    8 1
     8    3    4 1
     9    4    5 1
    10    4   37 1
    11    4   38 1
    12    5    6 1
    13    5   39 1
    14    5   40 1
    15    6    7 1
    16    6    8 1
    17    6    9 1
    18    8   41 1
    19    8   42 1
    20    9   10 1
    21   10   15 ar
    22   10   11 ar
    23   11   12 ar
    24   11   43 1
    25   12   13 ar
    26   12   44 1
    27   13   14 ar
    28   13   16 1
    29   14   15 ar
    30   14   45 1
    31   15   46 1
    32   16   17 1
    33   16   18 1
    34   16   31 1
    35   18   19 1
    36   18   47 1
    37   18   48 1
    38   19   28 ar
    39   19   20 ar
    40   20   21 ar
    41   20   49 1
    42   21   22 ar
    43   21   50 1
    44   22   27 ar
    45   22   23 ar
    46   23   24 ar
    47   23   51 1
    48   24   25 ar
    49   24   52 1
    50   25   26 ar
    51   25   29 1
    52   26   27 ar
    53   26   53 1
    54   27   28 ar
    55   28   54 1
    56   29   30 1
    57   29   60 2
    58   30   56 1
    59   30   57 1
    60   31   32 2
    61   31   62 1
    62   36   58 1
    63   55   60 1
    64   58   59 1
    65   60   61 1
@<TRIPOS>MOLECULE
ZINC13808118
   33    33     0     0     0
SMALL
USER_CHARGES

@<TRIPOS>ATOM
      1 C1         -1.0272    1.2995    0.1791 C.3       1 <0>        -0.1245
      2 C2         -0.4805   -0.1015    0.0826 C.ar      1 <0>        -0.0187
      3 C3         -0.1253   -0.6217   -1.1479 C.ar      1 <0>        -0.1556
      4 C4          0.3762   -1.9068   -1.2363 C.ar      1 <0>         0.0308
      5 C5          0.5228   -2.6716   -0.0942 C.ar      1 <0>        -0.6529
      6 C6          0.1684   -2.1512    1.1364 C.ar      1 <0>         0.0311
      7 C7         -0.3290   -0.8645    1.2254 C.ar      1 <0>        -0.1556
      8 C8          0.3278   -2.9851    2.3815 C.3       1 <0>        -0.1363
      9 S1          1.1609   -4.3101   -0.2070 S.o2      1 <0>         2.6483
     10 O1          1.9062   -4.3734   -1.4153 O.2       1 <0>        -0.9802
     11 O2          1.7339   -4.6109    1.0581 O.2       1 <0>        -0.9804
     12 N1         -0.1323   -5.3274   -0.3948 N.2       1 <0>        -1.0496
     13 C9          0.0592   -6.6095   -0.5045 C.2       1 <0>         0.6946
     14 N2          1.3338   -7.1194   -0.4647 N.pl3     1 <0>        -0.8429
     15 O3         -0.9958   -7.4393   -0.6577 O.3       1 <0>        -0.3076
     16 C10        -2.2928   -6.8405   -0.6906 C.3       1 <0>         0.0505
     17 C11         0.7625   -2.4742   -2.5779 C.3       1 <0>        -0.1368
     18 H1         -0.2052    2.0015    0.3190 H         1 <0>         0.0797
     19 H2         -1.5622    1.5447   -0.7384 H         1 <0>         0.0730
     20 H3         -1.7097    1.3657    1.0263 H         1 <0>         0.0730
     21 H4         -0.2398   -0.0241   -2.0402 H         1 <0>         0.1322
     22 H5         -0.6024   -0.4565    2.1873 H         1 <0>         0.1322
     23 H6          1.3530   -2.9057    2.7432 H         1 <0>         0.0938
     24 H7         -0.3573   -2.6261    3.1495 H         1 <0>         0.0728
     25 H8          0.1030   -4.0268    2.1523 H         1 <0>         0.0814
     26 H9          2.0913   -6.5235   -0.3547 H         1 <0>         0.4200
     27 H10         1.4766   -8.0753   -0.5465 H         1 <0>         0.4234
     28 H11        -3.0480   -7.6161   -0.8176 H         1 <0>         0.1086
     29 H12        -2.4715   -6.3091    0.2442 H         1 <0>         0.0734
     30 H13        -2.3484   -6.1394   -1.5233 H         1 <0>         0.0734
     31 H14         1.8341   -2.3467   -2.7313 H         1 <0>         0.0932
     32 H15         0.5148   -3.5352   -2.6086 H         1 <0>         0.0839
     33 H16         0.2182   -1.9511   -3.3640 H         1 <0>         0.0719
@<TRIPOS>BOND
     1    1    2 1
     2    1   18 1
     3    1   19 1
     4    1   20 1
     5    2    7 ar
     6    2    3 ar
     7    3    4 ar
     8    3   21 1
     9    4    5 ar
    10    4   17 1
    11    5    6 ar
    12    5    9 1
    13    6    7 ar
    14    6    8 1
    15    7   22 1
    16    8   23 1
    17    8   24 1
    18    8   25 1
    19    9   10 2
    20    9   11 2
    21    9   12 1
    22   12   13 2
    23   13   14 1
    24   13   15 1
    25   14   26 1
    26   14   27 1
    27   15   16 1
    28   16   28 1
    29   16   29 1
    30   16   30 1
    31   17   31 1
    32   17   32 1
    33   17   33 1
@<TRIPOS>MOLECULE
ZINC18046173
   44    45     0     0     0
SMALL
USER_CHARGES

@<TRIPOS>ATOM
      1 C1         -0.0178    1.4608    0.0101 C.3       1 <0>         0.0831
      2 N1          0.0021   -0.0041    0.0020 N.pl3     1 <0>        -0.6212
      3 C2          0.0241   -0.7433    1.2666 C.3       1 <0>         0.0831
      4 C3          0.0000   -0.6937   -1.2076 C.ar      1 <0>         0.2612
      5 C4          0.0132   -2.0856   -1.2131 C.ar      1 <0>        -0.2113
      6 C5          0.0112   -2.7709   -2.4067 C.ar      1 <0>         0.0135
      7 C6         -0.0041   -2.0667   -3.6156 C.ar      1 <0>        -0.0343
      8 C7         -0.0173   -0.6675   -3.6059 C.ar      1 <0>        -0.0243
      9 C8         -0.0210    0.0105   -2.4081 C.ar      1 <0>        -0.2121
     10 N2         -0.0057   -2.7424   -4.8009 N.2       1 <0>        -0.1655
     11 N3         -0.0198   -2.0914   -5.9145 N.2       1 <0>        -0.2697
     12 C9         -0.0214   -2.7686   -7.1022 C.ar      1 <0>         0.1276
     13 C10        -0.0135   -4.1660   -7.1137 C.ar      1 <0>        -0.1382
     14 C11        -0.0151   -4.8423   -8.3156 C.ar      1 <0>        -0.0129
     15 C12        -0.0245   -4.1405   -9.5083 C.ar      1 <0>        -0.6778
     16 C13        -0.0318   -2.7566   -9.5047 C.ar      1 <0>        -0.0227
     17 C14        -0.0366   -2.0668   -8.3105 C.ar      1 <0>        -0.0961
     18 S1         -0.0265   -5.0132  -11.0390 S.o2      1 <0>         2.6992
     19 O1          0.5150   -4.1294  -12.0111 O.2       1 <0>        -0.9387
     20 O2          0.5328   -6.2931  -10.7775 O.2       1 <0>        -0.9386
     21 N4         -1.6089   -5.2646  -11.4572 N.pl3     1 <0>        -0.8785
     22 N5         -2.4646   -4.1722  -11.6503 N.pl3     1 <0>        -0.5061
     23 C15        -3.1518   -4.0380  -12.8334 C.2       1 <0>         0.6357
     24 N6         -3.0073   -4.9271  -13.7755 N.2       1 <0>        -0.8102
     25 N7         -3.9914   -2.9659  -13.0228 N.pl3     1 <0>        -0.8913
     26 H1          1.0048    1.8381    0.0023 H         1 <0>         0.0570
     27 H2         -0.5450    1.8219   -0.8730 H         1 <0>         0.0743
     28 H3         -0.5280    1.8123    0.9069 H         1 <0>         0.0736
     29 H4         -0.9979   -0.9406    1.5900 H         1 <0>         0.0571
     30 H5          0.5496   -1.6879    1.1262 H         1 <0>         0.0750
     31 H6          0.5371   -0.1514    2.0246 H         1 <0>         0.0735
     32 H7          0.0253   -2.6285   -0.2796 H         1 <0>         0.1369
     33 H8          0.0217   -3.8509   -2.4101 H         1 <0>         0.1388
     34 H9         -0.0288   -0.1204   -4.5370 H         1 <0>         0.1400
     35 H10        -0.0356    1.0903   -2.3997 H         1 <0>         0.1320
     36 H11        -0.0059   -4.7150   -6.1836 H         1 <0>         0.1453
     37 H12        -0.0087   -5.9222   -8.3261 H         1 <0>         0.1456
     38 H13        -0.0388   -2.2155  -10.4394 H         1 <0>         0.1490
     39 H14        -0.0473   -0.9868   -8.3092 H         1 <0>         0.1444
     40 H15        -3.4922   -4.8324  -14.6102 H         1 <0>         0.3439
     41 H16        -4.0990   -2.3043  -12.3218 H         1 <0>         0.3915
     42 H17        -4.4763   -2.8712  -13.8576 H         1 <0>         0.4138
     43 H18        -2.5721   -3.5105  -10.9492 H         1 <0>         0.4253
     44 H19        -1.9435   -6.1683  -11.5685 H         1 <0>         0.4294
@<TRIPOS>BOND
     1    1    2 1
     2    1   26 1
     3    1   27 1
     4    1   28 1
     5    2    3 1
     6    2    4 1
     7    3   29 1
     8    3   30 1
     9    3   31 1
    10    4    9 ar
    11    4    5 ar
    12    5    6 ar
    13    5   32 1
    14    6    7 ar
    15    6   33 1
    16    7    8 ar
    17    7   10 1
    18    8    9 ar
    19    8   34 1
    20    9   35 1
    21   10   11 2
    22   11   12 1
    23   12   17 ar
    24   12   13 ar
    25   13   14 ar
    26   13   36 1
    27   14   15 ar
    28   14   37 1
    29   15   16 ar
    30   15   18 1
    31   16   17 ar
    32   16   38 1
    33   17   39 1
    34   18   19 2
    35   18   20 2
    36   18   21 1
    37   21   22 1
    38   21   44 1
    39   22   23 1
    40   22   43 1
    41   23   24 2
    42   23   25 1
    43   24   40 1
    44   25   41 1
    45   25   42 1
@<TRIPOS>MOLECULE
ZINC18046173
   44    45     0     0     0
SMALL
USER_CHARGES

@<TRIPOS>ATOM
      1 C1         -0.0178    1.4608    0.0101 C.3       1 <0>         0.0847
      2 N1          0.0021   -0.0041    0.0020 N.pl3     1 <0>        -0.6242
      3 C2          0.0241   -0.7433    1.2666 C.3       1 <0>         0.0848
      4 C3          0.0000   -0.6937   -1.2076 C.ar      1 <0>         0.2545
      5 C4          0.0132   -2.0856   -1.2131 C.ar      1 <0>        -0.2097
      6 C5          0.0112   -2.7709   -2.4067 C.ar      1 <0>         0.0075
      7 C6         -0.0041   -2.0667   -3.6156 C.ar      1 <0>        -0.0277
      8 C7         -0.0173   -0.6675   -3.6059 C.ar      1 <0>        -0.0304
      9 C8         -0.0210    0.0105   -2.4081 C.ar      1 <0>        -0.2102
     10 N2         -0.0057   -2.7424   -4.8009 N.2       1 <0>        -0.1783
     11 N3         -0.0198   -2.0914   -5.9145 N.2       1 <0>        -0.2558
     12 C9         -0.0214   -2.7686   -7.1022 C.ar      1 <0>         0.1081
     13 C10        -0.0135   -4.1660   -7.1137 C.ar      1 <0>        -0.1353
     14 C11        -0.0151   -4.8423   -8.3156 C.ar      1 <0>        -0.0213
     15 C12        -0.0245   -4.1405   -9.5083 C.ar      1 <0>        -0.6053
     16 C13        -0.0318   -2.7566   -9.5047 C.ar      1 <0>        -0.0223
     17 C14        -0.0366   -2.0668   -8.3105 C.ar      1 <0>        -0.0940
     18 S1         -0.0265   -5.0132  -11.0390 S.o2      1 <0>         2.6025
     19 O1          0.5150   -4.1294  -12.0111 O.2       1 <0>        -1.0189
     20 O2          0.5328   -6.2931  -10.7775 O.2       1 <0>        -1.0192
     21 N4         -1.6089   -5.2646  -11.4572 N.2       1 <0>        -0.9444
     22 N5         -1.9209   -5.9431  -12.6426 N.pl3     1 <0>        -0.3939
     23 C15        -3.1622   -6.1403  -12.9706 C.cat     1 <0>         0.7020
     24 N6         -4.1795   -5.6789  -12.1467 N.pl3     1 <0>        -0.8145
     25 N7         -3.4713   -6.8125  -14.1451 N.pl3     1 <0>        -0.8525
     26 H1          1.0048    1.8381    0.0023 H         1 <0>         0.0553
     27 H2         -0.5450    1.8219   -0.8730 H         1 <0>         0.0736
     28 H3         -0.5280    1.8123    0.9069 H         1 <0>         0.0721
     29 H4         -0.9979   -0.9406    1.5900 H         1 <0>         0.0555
     30 H5          0.5496   -1.6879    1.1262 H         1 <0>         0.0741
     31 H6          0.5371   -0.1514    2.0246 H         1 <0>         0.0719
     32 H7          0.0253   -2.6285   -0.2796 H         1 <0>         0.1352
     33 H8          0.0217   -3.8509   -2.4101 H         1 <0>         0.1374
     34 H9         -0.0288   -0.1204   -4.5370 H         1 <0>         0.1392
     35 H10        -0.0356    1.0903   -2.3997 H         1 <0>         0.1304
     36 H11        -0.0059   -4.7150   -6.1836 H         1 <0>         0.1415
     37 H12        -0.0087   -5.9222   -8.3261 H         1 <0>         0.1410
     38 H13        -0.0388   -2.2155  -10.4394 H         1 <0>         0.1458
     39 H14        -0.0473   -0.9868   -8.3092 H         1 <0>         0.1405
     40 H15        -3.9635   -5.2092  -11.3259 H         1 <0>         0.4411
     41 H16        -2.7603   -7.1349  -14.7209 H         1 <0>         0.4232
     42 H17        -4.3982   -6.9598  -14.3901 H         1 <0>         0.4261
     43 H18        -5.1065   -5.8262  -12.3916 H         1 <0>         0.4148
     44 H19        -1.2100   -6.2655  -13.2184 H         1 <0>         0.3951
@<TRIPOS>BOND
     1    1    2 1
     2    1   26 1
     3    1   27 1
     4    1   28 1
     5    2    3 1
     6    2    4 1
     7    3   29 1
     8    3   30 1
     9    3   31 1
    10    4    9 ar
    11    4    5 ar
    12    5    6 ar
    13    5   32 1
    14    6    7 ar
    15    6   33 1
    16    7    8 ar
    17    7   10 1
    18    8    9 ar
    19    8   34 1
    20    9   35 1
    21   10   11 2
    22   11   12 1
    23   12   17 ar
    24   12   13 ar
    25   13   14 ar
    26   13   36 1
    27   14   15 ar
    28   14   37 1
    29   15   16 ar
    30   15   18 1
    31   16   17 ar
    32   16   38 1
    33   17   39 1
    34   18   19 2
    35   18   20 2
    36   18   21 1
    37   21   22 1
    38   22   23 2
    39   22   44 1
    40   23   24 1
    41   23   25 1
    42   24   40 1
    43   24   43 1
    44   25   41 1
    45   25   42 1
@<TRIPOS>MOLECULE
ZINC18046173
   45    46     0     0     0
SMALL
USER_CHARGES

@<TRIPOS>ATOM
      1 C1         -0.0178    1.4608    0.0101 C.3       1 <0>         0.0790
      2 N1          0.0021   -0.0041    0.0020 N.pl3     1 <0>        -0.6138
      3 C2          0.0241   -0.7433    1.2666 C.3       1 <0>         0.0816
      4 C3          0.0000   -0.6937   -1.2076 C.ar      1 <0>         0.2733
      5 C4          0.0132   -2.0856   -1.2131 C.ar      1 <0>        -0.2105
      6 C5          0.0112   -2.7709   -2.4067 C.ar      1 <0>         0.0226
      7 C6         -0.0041   -2.0667   -3.6156 C.ar      1 <0>        -0.0446
      8 C7         -0.0173   -0.6675   -3.6059 C.ar      1 <0>        -0.0152
      9 C8         -0.0210    0.0105   -2.4081 C.ar      1 <0>        -0.2143
     10 N2         -0.0057   -2.7424   -4.8009 N.2       1 <0>        -0.1469
     11 N3         -0.0198   -2.0914   -5.9145 N.2       1 <0>        -0.2958
     12 C9         -0.0214   -2.7686   -7.1022 C.ar      1 <0>         0.1563
     13 C10        -0.0135   -4.1660   -7.1137 C.ar      1 <0>        -0.1445
     14 C11        -0.0151   -4.8423   -8.3156 C.ar      1 <0>        -0.0048
     15 C12        -0.0245   -4.1405   -9.5083 C.ar      1 <0>        -0.6966
     16 C13        -0.0318   -2.7566   -9.5047 C.ar      1 <0>        -0.0275
     17 C14        -0.0366   -2.0668   -8.3105 C.ar      1 <0>        -0.1006
     18 S1         -0.0265   -5.0132  -11.0390 S.o2      1 <0>         2.6785
     19 O1          0.5150   -4.1294  -12.0111 O.2       1 <0>        -0.9153
     20 O2          0.5328   -6.2931  -10.7775 O.2       1 <0>        -0.8983
     21 N4         -1.6089   -5.2646  -11.4572 N.pl3     1 <0>        -0.9139
     22 N5         -2.4646   -4.1722  -11.6503 N.pl3     1 <0>        -0.4230
     23 C15        -3.7058   -4.3694  -11.9783 C.cat     1 <0>         0.7390
     24 N6         -4.1845   -5.6626  -12.1375 N.pl3     1 <0>        -0.8089
     25 N7         -4.5536   -3.2870  -12.1696 N.pl3     1 <0>        -0.8022
     26 H1          1.0048    1.8381    0.0023 H         1 <0>         0.0607
     27 H2         -0.5450    1.8219   -0.8730 H         1 <0>         0.0754
     28 H3         -0.5280    1.8123    0.9069 H         1 <0>         0.0775
     29 H4          0.0224   -0.0395    2.0990 H         1 <0>         0.0829
     30 H5         -0.8567   -1.3823    1.3294 H         1 <0>         0.0646
     31 H6          0.9230   -1.3581    1.3125 H         1 <0>         0.0651
     32 H7          0.0253   -2.6285   -0.2796 H         1 <0>         0.1391
     33 H8          0.0217   -3.8509   -2.4101 H         1 <0>         0.1404
     34 H9         -0.0288   -0.1204   -4.5370 H         1 <0>         0.1408
     35 H10        -0.0356    1.0903   -2.3997 H         1 <0>         0.1351
     36 H11        -0.0059   -4.7150   -6.1836 H         1 <0>         0.1493
     37 H12        -0.0087   -5.9222   -8.3261 H         1 <0>         0.1466
     38 H13        -0.0388   -2.2155  -10.4394 H         1 <0>         0.1470
     39 H14        -0.0473   -0.9868   -8.3092 H         1 <0>         0.1487
     40 H15        -3.5921   -6.4190  -12.0039 H         1 <0>         0.4343
     41 H16        -4.2190   -2.3834  -12.0583 H         1 <0>         0.4416
     42 H17        -5.4805   -3.4343  -12.4145 H         1 <0>         0.4461
     43 H18        -5.1115   -5.8099  -12.3825 H         1 <0>         0.4446
     44 H19        -2.1300   -3.2685  -11.5390 H         1 <0>         0.4650
     45 H20        -1.9435   -6.1683  -11.5685 H         1 <0>         0.4414
@<TRIPOS>BOND
     1    1    2 1
     2    1   26 1
     3    1   27 1
     4    1   28 1
     5    2    3 1
     6    2    4 1
     7    3   29 1
     8    3   30 1
     9    3   31 1
    10    4    9 ar
    11    4    5 ar
    12    5    6 ar
    13    5   32 1
    14    6    7 ar
    15    6   33 1
    16    7    8 ar
    17    7   10 1
    18    8    9 ar
    19    8   34 1
    20    9   35 1
    21   10   11 2
    22   11   12 1
    23   12   17 ar
    24   12   13 ar
    25   13   14 ar
    26   13   36 1
    27   14   15 ar
    28   14   37 1
    29   15   16 ar
    30   15   18 1
    31   16   17 ar
    32   16   38 1
    33   17   39 1
    34   18   19 2
    35   18   20 2
    36   18   21 1
    37   21   22 1
    38   21   45 1
    39   22   23 2
    40   22   44 1
    41   23   24 1
    42   23   25 1
    43   24   40 1
    44   24   43 1
    45   25   41 1
    46   25   42 1
@<TRIPOS>MOLECULE
ZINC06322270
   24    24     0     0     0
SMALL
USER_CHARGES

@<TRIPOS>ATOM
      1 C1         -0.0167    1.3782    0.0096 C.ar      1 <0>        -0.0024
      2 C2          1.1706    2.0858    0.0021 C.ar      1 <0>        -0.1301
      3 C3          2.3780    1.4104   -0.0130 C.ar      1 <0>         0.0212
      4 C4          2.3961    0.0270   -0.0206 C.ar      1 <0>        -0.1302
      5 C5          1.2082   -0.6795   -0.0130 C.ar      1 <0>        -0.0091
      6 C6          0.0021   -0.0041    0.0020 C.ar      1 <0>        -0.6819
      7 S1         -1.5119   -0.9054    0.0122 S.o2      1 <0>         2.6988
      8 O1         -1.2185   -2.1862    0.5533 O.2       1 <0>        -0.9322
      9 O2         -2.4924   -0.0460    0.5773 O.2       1 <0>        -0.9332
     10 N1         -1.9483   -1.1474   -1.5669 N.pl3     1 <0>        -0.8976
     11 N2         -1.0992   -1.8552   -2.4277 N.pl3     1 <0>        -0.5532
     12 C7         -1.5708   -2.9516   -3.1101 C.2       1 <0>         0.6391
     13 N3         -2.8078   -3.3326   -2.9562 N.2       1 <0>        -0.8088
     14 N4         -0.7376   -3.6462   -3.9548 N.pl3     1 <0>        -0.8414
     15 Cl1         3.8696    2.2984   -0.0231 Cl        1 <0>        -0.0471
     16 H1         -0.9592    1.9053    0.0259 H         1 <0>         0.1533
     17 H2          1.1558    3.1656    0.0076 H         1 <0>         0.1479
     18 H3          3.3383   -0.5007   -0.0327 H         1 <0>         0.1480
     19 H4          1.2222   -1.7594   -0.0193 H         1 <0>         0.1528
     20 H5         -2.7917   -0.7991   -1.8958 H         1 <0>         0.4247
     21 H6         -0.1787   -1.5716   -2.5422 H         1 <0>         0.4104
     22 H7          0.1829   -3.3626   -4.0693 H         1 <0>         0.4037
     23 H8         -1.0703   -4.4197   -4.4362 H         1 <0>         0.4247
     24 H9         -3.3956   -2.8425   -2.3602 H         1 <0>         0.3424
@<TRIPOS>BOND
     1    1    6 ar
     2    1    2 ar
     3    1   16 1
     4    2    3 ar
     5    2   17 1
     6    3    4 ar
     7    3   15 1
     8    4    5 ar
     9    4   18 1
    10    5    6 ar
    11    5   19 1
    12    6    7 1
    13    7    8 2
    14    7    9 2
    15    7   10 1
    16   10   11 1
    17   10   20 1
    18   11   12 1
    19   11   21 1
    20   12   13 2
    21   12   14 1
    22   13   24 1
    23   14   22 1
    24   14   23 1
@<TRIPOS>MOLECULE
ZINC06322270
   24    24     0     0     0
SMALL
USER_CHARGES

@<TRIPOS>ATOM
      1 C1         -0.0167    1.3782    0.0096 C.ar      1 <0>        -0.0083
      2 C2          1.1706    2.0858    0.0021 C.ar      1 <0>        -0.1344
      3 C3          2.3780    1.4104   -0.0130 C.ar      1 <0>         0.0108
      4 C4          2.3961    0.0270   -0.0206 C.ar      1 <0>        -0.1344
      5 C5          1.2082   -0.6795   -0.0130 C.ar      1 <0>        -0.0082
      6 C6          0.0021   -0.0041    0.0020 C.ar      1 <0>        -0.6154
      7 S1         -1.5119   -0.9054    0.0122 S.o2      1 <0>         2.6029
      8 O1         -1.2185   -2.1862    0.5533 O.2       1 <0>        -1.0172
      9 O2         -2.4924   -0.0460    0.5773 O.2       1 <0>        -1.0173
     10 N1         -1.9483   -1.1474   -1.5669 N.2       1 <0>        -0.9440
     11 N2         -3.1252   -1.8446   -1.8695 N.pl3     1 <0>        -0.3952
     12 C7         -3.4675   -2.0344   -3.1080 C.cat     1 <0>         0.7037
     13 N3         -2.6671   -1.5464   -4.1318 N.pl3     1 <0>        -0.8142
     14 N4         -4.6336   -2.7251   -3.4078 N.pl3     1 <0>        -0.8518
     15 Cl1         3.8696    2.2984   -0.0231 Cl        1 <0>        -0.0600
     16 H1         -0.9592    1.9053    0.0259 H         1 <0>         0.1483
     17 H2          1.1558    3.1656    0.0076 H         1 <0>         0.1422
     18 H3          3.3383   -0.5007   -0.0327 H         1 <0>         0.1422
     19 H4          1.2222   -1.7594   -0.0193 H         1 <0>         0.1482
     20 H5         -5.1929   -3.0661   -2.6924 H         1 <0>         0.4235
     21 H6         -4.8892   -2.8669   -4.3327 H         1 <0>         0.4265
     22 H7         -1.8523   -1.0637   -3.9224 H         1 <0>         0.4409
     23 H8         -2.9227   -1.6882   -5.0568 H         1 <0>         0.4153
     24 H9         -3.6845   -2.1855   -1.1540 H         1 <0>         0.3957
@<TRIPOS>BOND
     1    1    6 ar
     2    1    2 ar
     3    1   16 1
     4    2    3 ar
     5    2   17 1
     6    3    4 ar
     7    3   15 1
     8    4    5 ar
     9    4   18 1
    10    5    6 ar
    11    5   19 1
    12    6    7 1
    13    7    8 2
    14    7    9 2
    15    7   10 1
    16   10   11 1
    17   11   12 2
    18   11   24 1
    19   12   13 1
    20   12   14 1
    21   13   22 1
    22   13   23 1
    23   14   20 1
    24   14   21 1
@<TRIPOS>MOLECULE
ZINC06322270
   25    25     0     0     0
SMALL
USER_CHARGES

@<TRIPOS>ATOM
      1 C1         -0.0167    1.3782    0.0096 C.ar      1 <0>         0.0017
      2 C2          1.1706    2.0858    0.0021 C.ar      1 <0>        -0.1245
      3 C3          2.3780    1.4104   -0.0130 C.ar      1 <0>         0.0285
      4 C4          2.3961    0.0270   -0.0206 C.ar      1 <0>        -0.1252
      5 C5          1.2082   -0.6795   -0.0130 C.ar      1 <0>        -0.0194
      6 C6          0.0021   -0.0041    0.0020 C.ar      1 <0>        -0.6930
      7 S1         -1.5119   -0.9054    0.0122 S.o2      1 <0>         2.6812
      8 O1         -1.2185   -2.1862    0.5533 O.2       1 <0>        -0.9106
      9 O2         -2.4924   -0.0460    0.5773 O.2       1 <0>        -0.8935
     10 N1         -1.9483   -1.1474   -1.5669 N.pl3     1 <0>        -0.9131
     11 N2         -1.0992   -1.8552   -2.4277 N.pl3     1 <0>        -0.4259
     12 C7         -1.4415   -2.0450   -3.6663 C.cat     1 <0>         0.7403
     13 N3         -2.6485   -1.5465   -4.1370 N.pl3     1 <0>        -0.8077
     14 N4         -0.6003   -2.7462   -4.5191 N.pl3     1 <0>        -0.8009
     15 Cl1         3.8696    2.2984   -0.0231 Cl        1 <0>        -0.0301
     16 H1         -0.9592    1.9053    0.0259 H         1 <0>         0.1567
     17 H2          1.1558    3.1656    0.0076 H         1 <0>         0.1538
     18 H3          3.3383   -0.5007   -0.0327 H         1 <0>         0.1532
     19 H4          1.2222   -1.7594   -0.0193 H         1 <0>         0.1522
     20 H5          0.2431   -3.0946   -4.1902 H         1 <0>         0.4418
     21 H6         -0.8559   -2.8880   -5.4441 H         1 <0>         0.4470
     22 H7         -3.2363   -1.0565   -3.5410 H         1 <0>         0.4345
     23 H8         -2.9041   -1.6883   -5.0619 H         1 <0>         0.4454
     24 H9         -0.2558   -2.2035   -2.0987 H         1 <0>         0.4646
     25 H10        -2.7917   -0.7991   -1.8958 H         1 <0>         0.4429
@<TRIPOS>BOND
     1    1    6 ar
     2    1    2 ar
     3    1   16 1
     4    2    3 ar
     5    2   17 1
     6    3    4 ar
     7    3   15 1
     8    4    5 ar
     9    4   18 1
    10    5    6 ar
    11    5   19 1
    12    6    7 1
    13    7    8 2
    14    7    9 2
    15    7   10 1
    16   10   11 1
    17   10   25 1
    18   11   12 2
    19   11   24 1
    20   12   13 1
    21   12   14 1
    22   13   22 1
    23   13   23 1
    24   14   20 1
    25   14   21 1
@<TRIPOS>MOLECULE
ZINC08376247
   24    24     0     0     0
SMALL
USER_CHARGES

@<TRIPOS>ATOM
      1 C1         -0.0167    1.3815    0.0096 C.ar      1 <0>         0.1574
      2 C2          1.1742    2.0898    0.0021 C.ar      1 <0>         0.0396
      3 C3          2.3831    1.4120   -0.0131 C.ar      1 <0>         0.2282
      4 C4          2.4009    0.0281   -0.0212 C.ar      1 <0>        -0.7378
      5 C5          1.2118   -0.6802   -0.0141 C.ar      1 <0>         0.2194
      6 C6          0.0021   -0.0041    0.0020 C.ar      1 <0>         0.0394
      7 F1         -1.1585   -0.6956    0.0098 F         1 <0>        -0.0903
      8 F2          1.2303   -2.0311   -0.0229 F         1 <0>        -0.0709
      9 S1          3.9383   -0.8326   -0.0411 S.o2      1 <0>         2.7019
     10 O1          3.6790   -2.1145   -0.5967 O.2       1 <0>        -0.9017
     11 O2          4.8956    0.0589   -0.5962 O.2       1 <0>        -0.9052
     12 N1          4.3809   -1.0807    1.5353 N.pl3     1 <0>        -0.8900
     13 N2          3.5510   -1.8205    2.3877 N.pl3     1 <0>        -0.5551
     14 C7          4.0515   -2.9117    3.0578 C.2       1 <0>         0.6412
     15 N3          5.2982   -3.2579    2.9000 N.2       1 <0>        -0.8049
     16 N4          3.2371   -3.6377    3.8944 N.pl3     1 <0>        -0.8399
     17 F3          3.5443    2.1024   -0.0205 F         1 <0>        -0.0717
     18 F4          1.1570    3.4407    0.0090 F         1 <0>        -0.0902
     19 F5         -1.1954    2.0413    0.0301 F         1 <0>        -0.0805
     20 H1          2.6233   -1.5629    2.5052 H         1 <0>         0.4083
     21 H2          2.3093   -3.3800    4.0118 H         1 <0>         0.4041
     22 H3          3.5902   -4.4075    4.3671 H         1 <0>         0.4258
     23 H4          5.8728   -2.7457    2.3098 H         1 <0>         0.3428
     24 H5          5.2148   -0.7139    1.8684 H         1 <0>         0.4300
@<TRIPOS>BOND
     1    1    6 ar
     2    1    2 ar
     3    1   19 1
     4    2    3 ar
     5    2   18 1
     6    3    4 ar
     7    3   17 1
     8    4    5 ar
     9    4    9 1
    10    5    6 ar
    11    5    8 1
    12    6    7 1
    13    9   10 2
    14    9   11 2
    15    9   12 1
    16   12   13 1
    17   12   24 1
    18   13   14 1
    19   13   20 1
    20   14   15 2
    21   14   16 1
    22   15   23 1
    23   16   21 1
    24   16   22 1
@<TRIPOS>MOLECULE
ZINC08376247
   23    23     0     0     0
SMALL
USER_CHARGES

@<TRIPOS>ATOM
      1 C1         -0.0167    1.3815    0.0096 C.ar      1 <0>         0.1309
      2 C2          1.1742    2.0898    0.0021 C.ar      1 <0>         0.0242
      3 C3          2.3831    1.4120   -0.0131 C.ar      1 <0>         0.2220
      4 C4          2.4009    0.0281   -0.0212 C.ar      1 <0>        -0.6491
      5 C5          1.2118   -0.6802   -0.0141 C.ar      1 <0>         0.2219
      6 C6          0.0021   -0.0041    0.0020 C.ar      1 <0>         0.0243
      7 F1         -1.1585   -0.6956    0.0098 F         1 <0>        -0.1040
      8 F2          1.2303   -2.0311   -0.0229 F         1 <0>        -0.0742
      9 S1          3.9383   -0.8326   -0.0411 S.o2      1 <0>         2.5534
     10 O1          3.6790   -2.1145   -0.5967 O.2       1 <0>        -1.0180
     11 O2          4.8956    0.0589   -0.5962 O.2       1 <0>        -1.0180
     12 N1          4.3809   -1.0807    1.5353 N.2       1 <0>        -0.8990
     13 N2          5.5760   -1.7498    1.8303 N.pl3     1 <0>        -0.5635
     14 C7          5.9435   -1.9558    3.1390 C.2       1 <0>         0.6499
     15 N3          5.1800   -1.5287    4.1052 N.2       1 <0>        -0.8525
     16 N4          7.1162   -2.6124    3.4285 N.pl3     1 <0>        -0.8661
     17 F3          3.5443    2.1024   -0.0205 F         1 <0>        -0.0741
     18 F4          1.1570    3.4407    0.0090 F         1 <0>        -0.1040
     19 F5         -1.1954    2.0413    0.0301 F         1 <0>        -0.0972
     20 H1          6.1441   -2.0677    1.1112 H         1 <0>         0.3465
     21 H2          7.6843   -2.9303    2.7094 H         1 <0>         0.3907
     22 H3          7.3754   -2.7578    4.3518 H         1 <0>         0.4080
     23 H4          4.3526   -1.0655    3.9010 H         1 <0>         0.3478
@<TRIPOS>BOND
     1    1    6 ar
     2    1    2 ar
     3    1   19 1
     4    2    3 ar
     5    2   18 1
     6    3    4 ar
     7    3   17 1
     8    4    5 ar
     9    4    9 1
    10    5    6 ar
    11    5    8 1
    12    6    7 1
    13    9   10 2
    14    9   11 2
    15    9   12 1
    16   12   13 1
    17   13   14 1
    18   13   20 1
    19   14   15 2
    20   14   16 1
    21   15   23 1
    22   16   21 1
    23   16   22 1
@<TRIPOS>MOLECULE
ZINC06527954
   24    24     0     0     0
SMALL
USER_CHARGES

@<TRIPOS>ATOM
      1 C1         -0.0167    1.3804    0.0096 C.ar      1 <0>        -0.1735
      2 C2          1.1709    2.0870    0.0021 C.ar      1 <0>         0.0143
      3 C3          2.3774    1.4122   -0.0131 C.ar      1 <0>        -0.6974
      4 C4          2.3973    0.0299   -0.0211 C.ar      1 <0>         0.0075
      5 C5          1.2110   -0.6789   -0.0136 C.ar      1 <0>        -0.1734
      6 C6          0.0021   -0.0041    0.0020 C.ar      1 <0>         0.1633
      7 F1         -1.1583   -0.6959    0.0094 F         1 <0>        -0.1253
      8 S1          3.8907    2.3146   -0.0227 S.o2      1 <0>         2.7006
      9 O1          4.8720    1.4559   -0.5875 O.2       1 <0>        -0.9331
     10 O2          3.5966    3.5951   -0.5638 O.2       1 <0>        -0.9340
     11 N1          4.3264    2.5568    1.5565 N.pl3     1 <0>        -0.8980
     12 N2          4.5527    1.4590    2.3971 N.pl3     1 <0>        -0.5533
     13 C7          5.7478    1.3404    3.0662 C.2       1 <0>         0.6390
     14 N3          6.6704    2.2493    2.9185 N.2       1 <0>        -0.8089
     15 N4          5.9699    0.2632    3.8910 N.pl3     1 <0>        -0.8415
     16 H1         -0.9590    1.9078    0.0260 H         1 <0>         0.1502
     17 H2          1.1565    3.1669    0.0077 H         1 <0>         0.1539
     18 H3          3.3404   -0.4962   -0.0337 H         1 <0>         0.1535
     19 H4          1.2268   -1.7587   -0.0203 H         1 <0>         0.1502
     20 H5          4.4249    3.4588    1.8996 H         1 <0>         0.4246
     21 H6          3.8661    0.7827    2.5070 H         1 <0>         0.4103
     22 H7          5.2833   -0.4132    4.0009 H         1 <0>         0.4037
     23 H8          6.8131    0.1795    4.3631 H         1 <0>         0.4247
     24 H9          6.5137    3.0093    2.3366 H         1 <0>         0.3425
@<TRIPOS>BOND
     1    1    6 ar
     2    1    2 ar
     3    1   16 1
     4    2    3 ar
     5    2   17 1
     6    3    4 ar
     7    3    8 1
     8    4    5 ar
     9    4   18 1
    10    5    6 ar
    11    5   19 1
    12    6    7 1
    13    8    9 2
    14    8   10 2
    15    8   11 1
    16   11   12 1
    17   11   20 1
    18   12   13 1
    19   12   21 1
    20   13   14 2
    21   13   15 1
    22   14   24 1
    23   15   22 1
    24   15   23 1
@<TRIPOS>MOLECULE
ZINC06527954
   24    24     0     0     0
SMALL
USER_CHARGES

@<TRIPOS>ATOM
      1 C1         -0.0167    1.3804    0.0096 C.ar      1 <0>        -0.1774
      2 C2          1.1709    2.0870    0.0021 C.ar      1 <0>         0.0082
      3 C3          2.3774    1.4122   -0.0131 C.ar      1 <0>        -0.6309
      4 C4          2.3973    0.0299   -0.0211 C.ar      1 <0>         0.0083
      5 C5          1.2110   -0.6789   -0.0136 C.ar      1 <0>        -0.1774
      6 C6          0.0021   -0.0041    0.0020 C.ar      1 <0>         0.1471
      7 F1         -1.1583   -0.6959    0.0094 F         1 <0>        -0.1323
      8 S1          3.8907    2.3146   -0.0227 S.o2      1 <0>         2.6050
      9 O1          4.8720    1.4559   -0.5875 O.2       1 <0>        -1.0180
     10 O2          3.5966    3.5951   -0.5638 O.2       1 <0>        -1.0180
     11 N1          4.3264    2.5568    1.5565 N.2       1 <0>        -0.9449
     12 N2          5.5027    3.2548    1.8595 N.pl3     1 <0>        -0.3950
     13 C7          5.8444    3.4448    3.0982 C.cat     1 <0>         0.7034
     14 N3          5.0441    2.9563    4.1217 N.pl3     1 <0>        -0.8143
     15 N4          7.0100    4.1363    3.3984 N.pl3     1 <0>        -0.8519
     16 H1         -0.9590    1.9078    0.0260 H         1 <0>         0.1443
     17 H2          1.1565    3.1669    0.0077 H         1 <0>         0.1489
     18 H3          3.3404   -0.4962   -0.0337 H         1 <0>         0.1489
     19 H4          1.2268   -1.7587   -0.0203 H         1 <0>         0.1442
     20 H5          7.5693    4.4777    2.6832 H         1 <0>         0.4235
     21 H6          7.2652    4.2782    4.3234 H         1 <0>         0.4265
     22 H7          4.2296    2.4731    3.9120 H         1 <0>         0.4409
     23 H8          5.2993    3.0982    5.0468 H         1 <0>         0.4153
     24 H9          6.0620    3.5961    1.1443 H         1 <0>         0.3957
@<TRIPOS>BOND
     1    1    6 ar
     2    1    2 ar
     3    1   16 1
     4    2    3 ar
     5    2   17 1
     6    3    4 ar
     7    3    8 1
     8    4    5 ar
     9    4   18 1
    10    5    6 ar
    11    5   19 1
    12    6    7 1
    13    8    9 2
    14    8   10 2
    15    8   11 1
    16   11   12 1
    17   12   13 2
    18   12   24 1
    19   13   14 1
    20   13   15 1
    21   14   22 1
    22   14   23 1
    23   15   20 1
    24   15   21 1
@<TRIPOS>MOLECULE
ZINC06527954
   25    25     0     0     0
SMALL
USER_CHARGES

@<TRIPOS>ATOM
      1 C1         -0.0167    1.3804    0.0096 C.ar      1 <0>        -0.1684
      2 C2          1.1709    2.0870    0.0021 C.ar      1 <0>         0.0186
      3 C3          2.3774    1.4122   -0.0131 C.ar      1 <0>        -0.7086
      4 C4          2.3973    0.0299   -0.0211 C.ar      1 <0>        -0.0023
      5 C5          1.2110   -0.6789   -0.0136 C.ar      1 <0>        -0.1688
      6 C6          0.0021   -0.0041    0.0020 C.ar      1 <0>         0.1778
      7 F1         -1.1583   -0.6959    0.0094 F         1 <0>        -0.1163
      8 S1          3.8907    2.3146   -0.0227 S.o2      1 <0>         2.6831
      9 O1          4.8720    1.4559   -0.5875 O.2       1 <0>        -0.9114
     10 O2          3.5966    3.5951   -0.5638 O.2       1 <0>        -0.8942
     11 N1          4.3264    2.5568    1.5565 N.pl3     1 <0>        -0.9135
     12 N2          4.5527    1.4590    2.3971 N.pl3     1 <0>        -0.4257
     13 C7          4.8944    1.6491    3.6358 C.cat     1 <0>         0.7402
     14 N3          5.0353    2.9398    4.1267 N.pl3     1 <0>        -0.8078
     15 N4          5.1186    0.5614    4.4686 N.pl3     1 <0>        -0.8011
     16 H1         -0.9590    1.9078    0.0260 H         1 <0>         0.1563
     17 H2          1.1565    3.1669    0.0077 H         1 <0>         0.1574
     18 H3          3.3404   -0.4962   -0.0337 H         1 <0>         0.1531
     19 H4          1.2268   -1.7587   -0.0203 H         1 <0>         0.1558
     20 H5          5.0201   -0.3405    4.1255 H         1 <0>         0.4418
     21 H6          5.3737    0.7033    5.3936 H         1 <0>         0.4469
     22 H7          4.8787    3.6998    3.5447 H         1 <0>         0.4345
     23 H8          5.2905    3.0817    5.0517 H         1 <0>         0.4454
     24 H9          4.4541    0.5571    2.0540 H         1 <0>         0.4645
     25 H10         4.4249    3.4588    1.8996 H         1 <0>         0.4428
@<TRIPOS>BOND
     1    1    6 ar
     2    1    2 ar
     3    1   16 1
     4    2    3 ar
     5    2   17 1
     6    3    4 ar
     7    3    8 1
     8    4    5 ar
     9    4   18 1
    10    5    6 ar
    11    5   19 1
    12    6    7 1
    13    8    9 2
    14    8   10 2
    15    8   11 1
    16   11   12 1
    17   11   25 1
    18   12   13 2
    19   12   24 1
    20   13   14 1
    21   13   15 1
    22   14   22 1
    23   14   23 1
    24   15   20 1
    25   15   21 1
