@<TRIPOS>MOLECULE
ZINC03809190
   61    63     0     0     0
SMALL
USER_CHARGES
1-[5-guanidino-2-[(1-hydroxy-2-naphthyl)carbonylamino]pentanoyl]pyrrolidine-2-carboxamide
@<TRIPOS>ATOM
      1 C1         -0.4964    3.1540    3.0960 C.ar      1 <0>        -0.0939
      2 C2          0.7724    2.6162    3.2982 C.ar      1 <0>        -0.1176
      3 C3          1.8906    3.3680    3.1004 C.ar      1 <0>        -0.0875
      4 C4          1.7659    4.7061    2.6928 C.ar      1 <0>        -0.0907
      5 C5          0.4755    5.2553    2.4928 C.ar      1 <0>        -0.0183
      6 C6         -0.6547    4.4494    2.7064 C.ar      1 <0>        -0.1173
      7 C7          0.3428    6.5965    2.0841 C.ar      1 <0>        -0.1176
      8 C8          1.4448    7.3605    1.8818 C.ar      1 <0>        -0.0799
      9 C9          2.7354    6.8336    2.0744 C.ar      1 <0>        -0.1788
     10 C10         2.9031    5.5111    2.4789 C.ar      1 <0>         0.2042
     11 O1          4.1454    5.0046    2.6652 O.3       1 <0>        -0.4683
     12 C11         3.9157    7.6856    1.8476 C.2       1 <0>         0.5713
     13 O2          5.0326    7.2338    2.0134 O.2       1 <0>        -0.5144
     14 N1          3.7578    8.9656    1.4562 N.am      1 <0>        -0.7117
     15 C12         4.9315    9.8127    1.2306 C.3       1 <0>         0.1429
     16 H1          5.7407    9.2101    0.8180 H         1 <0>         0.1180
     17 C13         4.5738   10.9284    0.2466 C.3       1 <0>        -0.1293
     18 C14         4.2461   10.3190   -1.1181 C.3       1 <0>        -0.1329
     19 C15         3.8882   11.4347   -2.1021 C.3       1 <0>         0.0920
     20 N2          3.5744   10.8512   -3.4088 N.pl3     1 <0>        -0.6974
     21 C16         3.2220   11.6660   -4.4586 C.cat     1 <0>         0.7389
     22 N3          2.9276   11.1184   -5.6849 N.pl3     1 <0>        -0.8070
     23 C17         5.3726   10.4185    2.5380 C.2       1 <0>         0.5237
     24 O3          4.7662   10.1673    3.5579 O.2       1 <0>        -0.5019
     25 N4          6.4409   11.2393    2.5741 N.am      1 <0>        -0.6032
     26 C18         7.2650   11.6283    1.4152 C.3       1 <0>         0.0951
     27 C19         8.6376   12.0190    2.0179 C.3       1 <0>        -0.1328
     28 C20         8.2116   12.7124    3.3389 C.3       1 <0>        -0.1248
     29 C21         6.9736   11.9004    3.7744 C.3       1 <0>         0.1164
     30 H2          7.2640   11.1518    4.5117 H         1 <0>         0.1049
     31 C22         5.9325   12.8210    4.3572 C.2       1 <0>         0.5134
     32 O4          4.8465   12.9213    3.8267 O.2       1 <0>        -0.5294
     33 N5          6.2083   13.5327    5.4680 N.am      1 <0>        -0.8523
     34 H3         -1.3678    2.5360    3.2548 H         1 <0>         0.1301
     35 H4          0.8710    1.5874    3.6116 H         1 <0>         0.1305
     36 H5          2.8687    2.9374    3.2568 H         1 <0>         0.1357
     37 H6         -1.6451    4.8539    2.5580 H         1 <0>         0.1336
     38 H7         -0.6397    7.0180    1.9312 H         1 <0>         0.1352
     39 H8          1.3304    8.3878    1.5688 H         1 <0>         0.1246
     40 H9          4.5284    4.6015    1.8740 H         1 <0>         0.3980
     41 H10         2.8669    9.3259    1.3239 H         1 <0>         0.4023
     42 H11         3.7074   11.4759    0.6175 H         1 <0>         0.0880
     43 H12         5.4188   11.6096    0.1468 H         1 <0>         0.0983
     44 H13         5.1125    9.7714   -1.4891 H         1 <0>         0.0882
     45 H14         3.4011    9.6378   -1.0184 H         1 <0>         0.0870
     46 H15         3.0219   11.9822   -1.7312 H         1 <0>         0.0947
     47 H16         4.7332   12.1160   -2.2018 H         1 <0>         0.0948
     48 H17         3.6153    9.8901   -3.5332 H         1 <0>         0.4341
     49 H18         2.9288   13.6152   -4.9711 H         1 <0>         0.4516
     50 H19         2.9684   10.1573   -5.8093 H         1 <0>         0.4402
     51 H20         2.6789   11.6932   -6.4256 H         1 <0>         0.4390
     52 H21         7.3769   10.7879    0.7301 H         1 <0>         0.0821
     53 H22         6.8197   12.4805    0.9019 H         1 <0>         0.0723
     54 H23         9.2423   11.1345    2.2183 H         1 <0>         0.0858
     55 H24         9.1678   12.7125    1.3653 H         1 <0>         0.0927
     56 H25         9.0038   12.6417    4.0844 H         1 <0>         0.0971
     57 H26         7.9449   13.7538    3.1592 H         1 <0>         0.0836
     58 H27         7.0769   13.4524    5.8923 H         1 <0>         0.4028
     59 H28         5.5382   14.1253    5.8431 H         1 <0>         0.4052
     60 N6          3.1848   12.9696   -4.2239 N.pl3     1 <0>        -0.7960
     61 H29         3.4136   13.3298   -3.2901 H         1 <0>         0.4555
@<TRIPOS>BOND
     1    1    6 ar
     2    1    2 ar
     3    1   34 1
     4    2    3 ar
     5    2   35 1
     6    3    4 ar
     7    3   36 1
     8    4   10 ar
     9    4    5 ar
    10    5    6 ar
    11    5    7 ar
    12    6   37 1
    13    7    8 ar
    14    7   38 1
    15    8    9 ar
    16    8   39 1
    17    9   10 ar
    18    9   12 1
    19   10   11 1
    20   11   40 1
    21   12   13 2
    22   12   14 am
    23   14   15 1
    24   14   41 1
    25   15   16 1
    26   15   17 1
    27   15   23 1
    28   17   18 1
    29   17   42 1
    30   17   43 1
    31   18   19 1
    32   18   44 1
    33   18   45 1
    34   19   20 1
    35   19   46 1
    36   19   47 1
    37   20   21 1
    38   20   48 1
    39   21   22 1
    40   21   60 2
    41   22   50 1
    42   22   51 1
    43   23   24 2
    44   23   25 am
    45   25   29 1
    46   25   26 1
    47   26   27 1
    48   26   52 1
    49   26   53 1
    50   27   28 1
    51   27   54 1
    52   27   55 1
    53   28   29 1
    54   28   56 1
    55   28   57 1
    56   29   30 1
    57   29   31 1
    58   31   32 2
    59   31   33 am
    60   33   58 1
    61   33   59 1
    62   49   60 1
    63   60   61 1
