@<TRIPOS>MOLECULE
ZINC03870481
   46    48     0     0     0
SMALL
USER_CHARGES

@<TRIPOS>ATOM
      1 C1          0.3458    0.8613   -0.9582 C.3       1 <0>        -0.1492
      2 C2          0.3121   -0.5590   -1.5261 C.3       1 <0>        -0.1314
      3 C3          0.9109   -0.5597   -2.9340 C.3       1 <0>         0.1316
      4 H1          1.9111   -0.1274   -2.9037 H         1 <0>         0.1016
      5 C4          0.9919   -1.9967   -3.4531 C.3       1 <0>        -0.1616
      6 N1          0.0625    0.2346   -3.8260 N.am      1 <0>        -0.5887
      7 C5         -1.3367   -0.1451   -4.0363 C.3       1 <0>         0.0851
      8 C6          0.5693    1.3147   -4.4530 C.2       1 <0>         0.5727
      9 O1          1.7517    1.5771   -4.3516 O.2       1 <0>        -0.5377
     10 C7         -0.3139    2.1810   -5.2648 C.ar      1 <0>         0.0504
     11 C8          0.2508    3.2052   -6.0030 C.ar      1 <0>        -0.0724
     12 C9         -0.5809    4.0326   -6.7773 C.ar      1 <0>        -0.0372
     13 C10        -0.0751    5.0886   -7.5496 C.ar      1 <0>        -0.0970
     14 C11        -0.9332    5.8556   -8.2799 C.ar      1 <0>        -0.1015
     15 C12        -2.3033    5.6066   -8.2702 C.ar      1 <0>        -0.1022
     16 C13        -2.8279    4.5876   -7.5300 C.ar      1 <0>        -0.0984
     17 C14        -1.9771    3.7799   -6.7689 C.ar      1 <0>        -0.0736
     18 C15        -2.4781    2.6743   -5.9571 C.ar      1 <0>         0.1999
     19 N2         -1.6255    1.9438   -5.2636 N.ar      1 <0>        -0.4328
     20 C16        -3.9273    2.3727   -5.9164 C.ar      1 <0>        -0.0367
     21 C17        -4.6423    2.2095   -7.1030 C.ar      1 <0>        -0.0870
     22 C18        -5.9922    1.9287   -7.0588 C.ar      1 <0>        -0.1151
     23 C19        -6.6380    1.8087   -5.8408 C.ar      1 <0>        -0.0932
     24 C20        -5.9359    1.9695   -4.6603 C.ar      1 <0>        -0.1122
     25 C21        -4.5825    2.2448   -4.6907 C.ar      1 <0>        -0.0039
     26 Cl1        -3.7004    2.4389   -3.2081 Cl        1 <0>        -0.0491
     27 H2          1.3774    1.2106   -0.9144 H         1 <0>         0.0547
     28 H3         -0.2350    1.5233   -1.6004 H         1 <0>         0.0510
     29 H4         -0.0808    0.8617    0.0448 H         1 <0>         0.0541
     30 H5          0.8929   -1.2210   -0.8839 H         1 <0>         0.0751
     31 H6         -0.7195   -0.9084   -1.5699 H         1 <0>         0.0663
     32 H7         -0.0082   -2.4289   -3.4835 H         1 <0>         0.0600
     33 H8          1.4186   -1.9971   -4.4562 H         1 <0>         0.0592
     34 H9          1.6232   -2.5877   -2.7895 H         1 <0>         0.0695
     35 H10        -1.9737    0.4264   -3.3613 H         1 <0>         0.0634
     36 H11        -1.6191    0.0655   -5.0678 H         1 <0>         0.0916
     37 H12        -1.4582   -1.2097   -3.8364 H         1 <0>         0.0573
     38 H13         1.3184    3.3677   -5.9844 H         1 <0>         0.1528
     39 H14         0.9854    5.2924   -7.5651 H         1 <0>         0.1376
     40 H15        -0.5446    6.6689   -8.8749 H         1 <0>         0.1323
     41 H16        -2.9610    6.2302   -8.8575 H         1 <0>         0.1319
     42 H17        -3.8925    4.4059   -7.5322 H         1 <0>         0.1365
     43 H18        -4.1401    2.3032   -8.0546 H         1 <0>         0.1359
     44 H19        -6.5465    1.8026   -7.9771 H         1 <0>         0.1356
     45 H20        -7.6950    1.5887   -5.8120 H         1 <0>         0.1363
     46 H21        -6.4457    1.8753   -3.7129 H         1 <0>         0.1386
@<TRIPOS>BOND
     1    1    2 1
     2    1   27 1
     3    1   28 1
     4    1   29 1
     5    2    3 1
     6    2   30 1
     7    2   31 1
     8    3    4 1
     9    3    5 1
    10    3    6 1
    11    5   32 1
    12    5   33 1
    13    5   34 1
    14    6    7 1
    15    6    8 am
    16    7   35 1
    17    7   36 1
    18    7   37 1
    19    8    9 2
    20    8   10 1
    21   10   19 ar
    22   10   11 ar
    23   11   12 ar
    24   11   38 1
    25   12   17 ar
    26   12   13 ar
    27   13   14 ar
    28   13   39 1
    29   14   15 ar
    30   14   40 1
    31   15   16 ar
    32   15   41 1
    33   16   17 ar
    34   16   42 1
    35   17   18 ar
    36   18   19 ar
    37   18   20 1
    38   20   25 ar
    39   20   21 ar
    40   21   22 ar
    41   21   43 1
    42   22   23 ar
    43   22   44 1
    44   23   24 ar
    45   23   45 1
    46   24   25 ar
    47   24   46 1
    48   25   26 1
@<TRIPOS>MOLECULE
ZINC03870482
   46    48     0     0     0
SMALL
USER_CHARGES

@<TRIPOS>ATOM
      1 C1          1.6261    3.2891   -0.4383 C.3       1 <0>        -0.1483
      2 C2          1.2900    1.8365   -0.0950 C.3       1 <0>        -0.1331
      3 C3          1.5880    0.9450   -1.3022 C.3       1 <0>         0.1317
      4 H1          1.0511    1.3212   -2.1730 H         1 <0>         0.1016
      5 C4          1.1363   -0.4859   -1.0034 C.3       1 <0>        -0.1604
      6 N1          3.0276    0.9560   -1.5739 N.am      1 <0>        -0.5887
      7 C5          3.9695    0.4937   -0.5515 C.3       1 <0>         0.0855
      8 C6          3.4854    1.3914   -2.7644 C.2       1 <0>         0.5726
      9 O1          2.7134    1.8599   -3.5779 O.2       1 <0>        -0.5373
     10 C7          4.9278    1.2991   -3.0810 C.ar      1 <0>         0.0504
     11 C8          5.3922    1.8703   -4.2519 C.ar      1 <0>        -0.0723
     12 C9          6.7611    1.7876   -4.5602 C.ar      1 <0>        -0.0373
     13 C10         7.2992    2.3448   -5.7295 C.ar      1 <0>        -0.0970
     14 C11         8.6358    2.2316   -5.9722 C.ar      1 <0>        -0.1015
     15 C12         9.4738    1.5713   -5.0772 C.ar      1 <0>        -0.1022
     16 C13         8.9827    1.0182   -3.9308 C.ar      1 <0>        -0.0985
     17 C14         7.6165    1.1155   -3.6491 C.ar      1 <0>        -0.0737
     18 C15         7.0314    0.5448   -2.4389 C.ar      1 <0>         0.1999
     19 N2          5.7356    0.6730   -2.2254 N.ar      1 <0>        -0.4330
     20 C16         7.8843   -0.1660   -1.4591 C.ar      1 <0>        -0.0367
     21 C17         9.0399    0.4405   -0.9664 C.ar      1 <0>        -0.0870
     22 C18         9.8305   -0.2267   -0.0538 C.ar      1 <0>        -0.1151
     23 C19         9.4799   -1.4953    0.3736 C.ar      1 <0>        -0.0932
     24 C20         8.3361   -2.1032   -0.1106 C.ar      1 <0>        -0.1121
     25 C21         7.5324   -1.4434   -1.0202 C.ar      1 <0>        -0.0039
     26 Cl1         6.0926   -2.2042   -1.6216 Cl        1 <0>        -0.0491
     27 H2          2.6825    3.3667   -0.6953 H         1 <0>         0.0506
     28 H3          1.0213    3.6113   -1.2860 H         1 <0>         0.0558
     29 H4          1.4138    3.9242    0.4218 H         1 <0>         0.0540
     30 H5          1.8948    1.5143    0.7527 H         1 <0>         0.0668
     31 H6          0.2336    1.7589    0.1620 H         1 <0>         0.0753
     32 H7          1.6733   -0.8621   -0.1326 H         1 <0>         0.0596
     33 H8          0.0652   -0.4941   -0.8013 H         1 <0>         0.0692
     34 H9          1.3486   -1.1210   -1.8635 H         1 <0>         0.0578
     35 H10         4.2167   -0.5524   -0.7317 H         1 <0>         0.0631
     36 H11         4.8778    1.0946   -0.5960 H         1 <0>         0.0916
     37 H12         3.5147    0.5951    0.4339 H         1 <0>         0.0574
     38 H13         4.7109    2.3738   -4.9218 H         1 <0>         0.1528
     39 H14         6.6598    2.8588   -6.4319 H         1 <0>         0.1376
     40 H15         9.0511    2.6604   -6.8723 H         1 <0>         0.1323
     41 H16        10.5291    1.4954   -5.2943 H         1 <0>         0.1319
     42 H17         9.6445    0.5092   -3.2456 H         1 <0>         0.1365
     43 H18         9.3153    1.4303   -1.2991 H         1 <0>         0.1359
     44 H19        10.7255    0.2421    0.3278 H         1 <0>         0.1356
     45 H20        10.1025   -2.0131    1.0883 H         1 <0>         0.1363
     46 H21         8.0682   -3.0937    0.2263 H         1 <0>         0.1386
@<TRIPOS>BOND
     1    1    2 1
     2    1   27 1
     3    1   28 1
     4    1   29 1
     5    2    3 1
     6    2   30 1
     7    2   31 1
     8    3    4 1
     9    3    5 1
    10    3    6 1
    11    5   32 1
    12    5   33 1
    13    5   34 1
    14    6    7 1
    15    6    8 am
    16    7   35 1
    17    7   36 1
    18    7   37 1
    19    8    9 2
    20    8   10 1
    21   10   19 ar
    22   10   11 ar
    23   11   12 ar
    24   11   38 1
    25   12   17 ar
    26   12   13 ar
    27   13   14 ar
    28   13   39 1
    29   14   15 ar
    30   14   40 1
    31   15   16 ar
    32   15   41 1
    33   16   17 ar
    34   16   42 1
    35   17   18 ar
    36   18   19 ar
    37   18   20 1
    38   20   25 ar
    39   20   21 ar
    40   21   22 ar
    41   21   43 1
    42   22   23 ar
    43   22   44 1
    44   23   24 ar
    45   23   45 1
    46   24   25 ar
    47   24   46 1
    48   25   26 1
@<TRIPOS>MOLECULE
ZINC28478250
   78    83     0     0     0
SMALL
USER_CHARGES

@<TRIPOS>ATOM
      1 C1          0.8636    2.1492    0.8489 C.3       1 <0>        -0.1521
      2 C2          0.7047    0.6323    0.7276 C.3       1 <0>        -0.0798
      3 C3          1.2939    0.1685   -0.5793 C.ar      1 <0>        -0.0153
      4 C4          0.6277    0.0927   -1.7682 C.ar      1 <0>        -0.1216
      5 C5          1.5133   -0.4170   -2.7335 C.ar      1 <0>         0.1792
      6 C6          1.2078   -0.5905   -4.0826 C.ar      1 <0>        -0.1190
      7 C7          2.1066   -1.0034   -5.0505 C.ar      1 <0>         0.1659
      8 C8          1.7475   -1.2202   -6.4122 C.ar      1 <0>        -0.0419
      9 C9          2.8911   -1.6125   -7.0876 C.ar      1 <0>        -0.0919
     10 C10         3.9488   -1.6428   -6.1651 C.ar      1 <0>         0.2365
     11 N1          3.4496   -1.2780   -4.9330 N.pl3     1 <0>        -0.6128
     12 H1          3.9748   -1.2206   -4.1217 H         1 <0>         0.4163
     13 C11         5.2563   -1.9849   -6.5008 C.ar      1 <0>        -0.1627
     14 C12         6.3113   -2.0201   -5.6134 C.ar      1 <0>         0.2359
     15 N2          6.2794   -1.7483   -4.3256 N.ar      1 <0>        -0.5659
     16 C13         7.4456   -1.9071   -3.7000 C.ar      1 <0>         0.1978
     17 C14         7.6355   -1.6611   -2.3639 C.ar      1 <0>        -0.1121
     18 C15         6.6260   -1.1763   -1.5026 C.ar      1 <0>         0.2106
     19 N3          5.3842   -0.6984   -1.4894 N.ar      1 <0>        -0.5129
     20 C16         4.9627   -0.5255   -0.2308 C.ar      1 <0>        -0.0160
     21 C17         3.6508   -0.1793    0.1333 C.ar      1 <0>         0.0766
     22 C18         2.6196   -0.2321   -0.7986 C.ar      1 <0>         0.0098
     23 N4          2.6991   -0.6969   -2.0971 N.pl3     1 <0>        -0.5826
     24 H2          3.4330   -1.1909   -2.4861 H         1 <0>         0.4083
     25 C19         6.0395   -0.7423    0.6544 C.2       1 <0>         0.0673
     26 C20         7.1204   -1.1460   -0.1195 C.2       1 <0>        -0.2622
     27 C21         8.5265   -1.5369   -0.1196 C.2       1 <0>         0.4366
     28 O1          9.2602   -1.6109    0.8441 O.2       1 <0>        -0.4110
     29 C22         8.8956   -1.8320   -1.5578 C.3       1 <0>        -0.1109
     30 C23         6.0237   -0.5697    2.1514 C.3       1 <0>        -0.1172
     31 C24         8.4734   -2.3883   -4.6792 C.3       1 <0>        -0.0994
     32 H3          9.3209   -1.7036   -4.7166 H         1 <0>         0.1232
     33 C25         7.7215   -2.3849   -6.0102 C.3       1 <0>        -0.1135
     34 H4          7.7472   -3.3737   -6.4674 H         1 <0>         0.1190
     35 C26         8.3061   -1.3356   -6.9573 C.3       1 <0>        -0.1411
     36 C27         8.9389   -3.8050   -4.3366 C.3       1 <0>        -0.0979
     37 C28        10.0814   -4.2066   -5.2718 C.3       1 <0>        -0.1152
     38 C29        10.5961   -5.5678   -4.8804 C.2       1 <0>         0.4572
     39 O2         10.1000   -6.1564   -3.9490 O.2       1 <0>        -0.5045
     40 O3         11.6056   -6.1263   -5.5664 O.3       1 <0>        -0.3524
     41 C30        12.0428   -7.4184   -5.1404 C.3       1 <0>         0.0320
     42 C31         2.9664   -1.9439   -8.5561 C.3       1 <0>        -0.1042
     43 C32         0.4099   -1.0616   -7.0119 C.2       1 <0>        -0.1236
     44 C33        -0.6459   -1.6323   -6.4414 C.2       1 <0>        -0.1404
     45 C34        -0.8089    0.4924   -1.9885 C.3       1 <0>        -0.1005
     46 H5          1.9220    2.4074    0.8155 H         1 <0>         0.0568
     47 H6          0.3446    2.6360    0.0232 H         1 <0>         0.0635
     48 H7          0.4373    2.4847    1.7943 H         1 <0>         0.0747
     49 H8          1.2237    0.1454    1.5532 H         1 <0>         0.0863
     50 H9         -0.3538    0.3740    0.7609 H         1 <0>         0.0975
     51 H10         0.1826   -0.3837   -4.4002 H         1 <0>         0.1854
     52 H11         5.4680   -2.2494   -7.5404 H         1 <0>         0.1734
     53 H12         3.4399    0.1309    1.1479 H         1 <0>         0.1914
     54 H13         9.2620   -2.8553   -1.6396 H         1 <0>         0.1288
     55 H14         9.6582   -1.1327   -1.8991 H         1 <0>         0.1313
     56 H15         5.0333   -0.2437    2.4691 H         1 <0>         0.0818
     57 H16         6.2642   -1.5194    2.6292 H         1 <0>         0.1011
     58 H17         6.7621    0.1789    2.4386 H         1 <0>         0.1032
     59 H18         8.2961   -0.3606   -6.4701 H         1 <0>         0.0612
     60 H19         9.3316   -1.6052   -7.2098 H         1 <0>         0.0791
     61 H20         7.7070   -1.2934   -7.8670 H         1 <0>         0.0727
     62 H21         9.2874   -3.8333   -3.3042 H         1 <0>         0.0881
     63 H22         8.1081   -4.5000   -4.4588 H         1 <0>         0.0799
     64 H23         9.7167   -4.2374   -6.2985 H         1 <0>         0.1104
     65 H24        10.8877   -3.4772   -5.1943 H         1 <0>         0.1143
     66 H25        12.3858   -7.3636   -4.1072 H         1 <0>         0.0635
     67 H26        11.2149   -8.1238   -5.2114 H         1 <0>         0.0624
     68 H27        12.8612   -7.7534   -5.7777 H         1 <0>         0.1067
     69 H28         3.1975   -1.0408   -9.1210 H         1 <0>         0.0918
     70 H29         3.7475   -2.6859   -8.7216 H         1 <0>         0.0824
     71 H30         2.0085   -2.3447   -8.8877 H         1 <0>         0.0883
     72 H31         0.2882   -0.4816   -7.9148 H         1 <0>         0.1432
     73 H32        -0.5242   -2.2123   -5.5385 H         1 <0>         0.1029
     74 H33        -1.6257   -1.5161   -6.8807 H         1 <0>         0.1233
     75 H34        -0.8542    1.5441   -2.2712 H         1 <0>         0.0857
     76 H35        -1.2375   -0.1166   -2.7845 H         1 <0>         0.0769
     77 H36        -1.3739    0.3386   -1.0691 H         1 <0>         0.0858
     78 H37         4.8949   -0.4638   -2.2910 H         1 <0>         0.4141
@<TRIPOS>BOND
     1    1    2 1
     2    1   46 1
     3    1   47 1
     4    1   48 1
     5    2    3 1
     6    2   49 1
     7    2   50 1
     8    3   22 ar
     9    3    4 ar
    10    4    5 ar
    11    4   45 1
    12    5   23 1
    13    5    6 ar
    14    6    7 ar
    15    6   51 1
    16    7   11 1
    17    7    8 ar
    18    8    9 ar
    19    8   43 1
    20    9   10 ar
    21    9   42 1
    22   10   11 1
    23   10   13 ar
    24   11   12 1
    25   13   14 ar
    26   13   52 1
    27   14   33 1
    28   14   15 ar
    29   15   16 ar
    30   16   17 ar
    31   16   31 1
    32   17   29 1
    33   17   18 ar
    34   18   26 1
    35   18   19 ar
    36   19   20 ar
    37   19   78 1
    38   20   21 ar
    39   20   25 1
    40   21   22 ar
    41   21   53 1
    42   22   23 1
    43   23   24 1
    44   25   26 2
    45   25   30 1
    46   26   27 1
    47   27   28 2
    48   27   29 1
    49   29   54 1
    50   29   55 1
    51   30   56 1
    52   30   57 1
    53   30   58 1
    54   31   32 1
    55   31   33 1
    56   31   36 1
    57   33   34 1
    58   33   35 1
    59   35   59 1
    60   35   60 1
    61   35   61 1
    62   36   37 1
    63   36   62 1
    64   36   63 1
    65   37   38 1
    66   37   64 1
    67   37   65 1
    68   38   39 2
    69   38   40 1
    70   40   41 1
    71   41   66 1
    72   41   67 1
    73   41   68 1
    74   42   69 1
    75   42   70 1
    76   42   71 1
    77   43   44 2
    78   43   72 1
    79   44   73 1
    80   44   74 1
    81   45   75 1
    82   45   76 1
    83   45   77 1
@<TRIPOS>MOLECULE
ZINC00591057
   51    53     0     0     0
SMALL
USER_CHARGES
N-[(2,5-dimethoxyphenyl)methyl]-N-(5-fluoro-2-phenoxy-phenyl)-acetamide
@<TRIPOS>ATOM
      1 C1         -0.2727    3.8455    1.9459 C.3       1 <0>        -0.1778
      2 C2         -1.1927    2.7170    2.3348 C.2       1 <0>         0.5223
      3 O1         -1.6016    2.6330    3.4736 O.2       1 <0>        -0.5238
      4 N1         -1.5611    1.8012    1.4172 N.am      1 <0>        -0.5683
      5 C3         -0.9779    1.8347    0.0737 C.3       1 <0>         0.1555
      6 C4          0.1996    0.8961    0.0137 C.ar      1 <0>        -0.1089
      7 C5          1.4825    1.3871    0.1602 C.ar      1 <0>        -0.1013
      8 C6          2.5664    0.5242    0.0993 C.ar      1 <0>         0.0947
      9 C7          2.3624   -0.8319   -0.1093 C.ar      1 <0>        -0.1599
     10 C8          1.0798   -1.3228   -0.2558 C.ar      1 <0>        -0.1671
     11 C9         -0.0044   -0.4597   -0.1944 C.ar      1 <0>         0.1117
     12 O2         -1.2672   -0.9430   -0.3387 O.3       1 <0>        -0.3080
     13 C10        -1.4033   -2.3497   -0.5501 C.3       1 <0>         0.0252
     14 O3          3.8292    1.0076    0.2436 O.3       1 <0>        -0.3160
     15 C11         4.8982    0.0621    0.1694 C.3       1 <0>         0.0271
     16 C12        -2.5019    0.8172    1.7481 C.ar      1 <0>         0.1781
     17 C13        -2.0834   -0.3943    2.2786 C.ar      1 <0>        -0.1134
     18 C14        -3.0146   -1.3646    2.6046 C.ar      1 <0>         0.1078
     19 C15        -4.3641   -1.1285    2.4022 C.ar      1 <0>        -0.1358
     20 C16        -4.7865    0.0768    1.8734 C.ar      1 <0>        -0.0935
     21 C17        -3.8601    1.0553    1.5505 C.ar      1 <0>         0.0818
     22 O4         -4.2757    2.2437    1.0363 O.3       1 <0>        -0.2494
     23 C18        -4.3343    2.3683   -0.3155 C.ar      1 <0>         0.1209
     24 C19        -4.0815    1.2708   -1.1262 C.ar      1 <0>        -0.1931
     25 C20        -4.1460    1.3992   -2.5001 C.ar      1 <0>        -0.0797
     26 C21        -4.4527    2.6221   -3.0678 C.ar      1 <0>        -0.1521
     27 C22        -4.6999    3.7185   -2.2623 C.ar      1 <0>        -0.0814
     28 C23        -4.6415    3.5945   -0.8878 C.ar      1 <0>        -0.1460
     29 F1         -2.6065   -2.5441    3.1217 F         1 <0>        -0.1331
     30 H1         -0.8574    4.6602    1.5188 H         1 <0>         0.0995
     31 H2          0.2575    4.2027    2.8287 H         1 <0>         0.0984
     32 H3          0.4472    3.4897    1.2088 H         1 <0>         0.0848
     33 H4         -0.6468    2.8480   -0.1535 H         1 <0>         0.1001
     34 H5         -1.7268    1.5252   -0.6553 H         1 <0>         0.1003
     35 H6          1.6414    2.4431    0.3219 H         1 <0>         0.1397
     36 H7          3.2066   -1.5039   -0.1574 H         1 <0>         0.1326
     37 H8          0.9210   -2.3786   -0.4185 H         1 <0>         0.1333
     38 H9         -2.4591   -2.6019   -0.6488 H         1 <0>         0.0994
     39 H10        -0.8754   -2.6330   -1.4607 H         1 <0>         0.0565
     40 H11        -0.9790   -2.8873    0.2979 H         1 <0>         0.0550
     41 H12         5.8493    0.5781    0.3001 H         1 <0>         0.1021
     42 H13         4.7786   -0.6840    0.9550 H         1 <0>         0.0550
     43 H14         4.8819   -0.4290   -0.8036 H         1 <0>         0.0553
     44 H15        -1.0314   -0.5800    2.4375 H         1 <0>         0.1373
     45 H16        -5.0881   -1.8880    2.6578 H         1 <0>         0.1468
     46 H17        -5.8397    0.2579    1.7167 H         1 <0>         0.1466
     47 H18        -3.8382    0.3163   -0.6834 H         1 <0>         0.1299
     48 H19        -3.9530    0.5445   -3.1315 H         1 <0>         0.1247
     49 H20        -4.4990    2.7212   -4.1423 H         1 <0>         0.1246
     50 H21        -4.9393    4.6726   -2.7083 H         1 <0>         0.1307
     51 H22        -4.8343    4.4512   -0.2592 H         1 <0>         0.1310
@<TRIPOS>BOND
     1    1    2 1
     2    1   30 1
     3    1   31 1
     4    1   32 1
     5    2    3 2
     6    2    4 am
     7    4    5 1
     8    4   16 1
     9    5    6 1
    10    5   33 1
    11    5   34 1
    12    6   11 ar
    13    6    7 ar
    14    7    8 ar
    15    7   35 1
    16    8    9 ar
    17    8   14 1
    18    9   10 ar
    19    9   36 1
    20   10   11 ar
    21   10   37 1
    22   11   12 1
    23   12   13 1
    24   13   38 1
    25   13   39 1
    26   13   40 1
    27   14   15 1
    28   15   41 1
    29   15   42 1
    30   15   43 1
    31   16   21 ar
    32   16   17 ar
    33   17   18 ar
    34   17   44 1
    35   18   19 ar
    36   18   29 1
    37   19   20 ar
    38   19   45 1
    39   20   21 ar
    40   20   46 1
    41   21   22 1
    42   22   23 1
    43   23   28 ar
    44   23   24 ar
    45   24   25 ar
    46   24   47 1
    47   25   26 ar
    48   25   48 1
    49   26   27 ar
    50   26   49 1
    51   27   28 ar
    52   27   50 1
    53   28   51 1
