@<TRIPOS>MOLECULE
ZINC00006427
   33    35     0     0     0
SMALL
USER_CHARGES

@<TRIPOS>ATOM
      1 C1          0.5645    1.4220    0.1928 C.3       1 <0>         0.0583
      2 N1          0.3235   -0.0204    0.1049 N.am      1 <0>        -0.5555
      3 C2         -0.9927   -0.4531    0.1626 C.ar      1 <0>         0.1844
      4 C3         -1.9457    0.2992   -0.5272 C.ar      1 <0>        -0.1319
      5 C4         -3.2733   -0.0670   -0.5149 C.ar      1 <0>        -0.0651
      6 C5         -3.6777   -1.1917    0.1872 C.ar      1 <0>        -0.0514
      7 C6         -2.7519   -1.9453    0.8726 C.ar      1 <0>        -0.0516
      8 C7         -1.3954   -1.5853    0.8674 C.ar      1 <0>        -0.1200
      9 C8         -0.4607   -2.4388    1.6175 C.2       1 <0>         0.2679
     10 N2          0.7150   -2.7715    1.2168 N.2       1 <0>        -0.4888
     11 C9          1.2537   -2.3110   -0.0624 C.3       1 <0>         0.0242
     12 C10         1.3847   -0.8126   -0.0296 C.2       1 <0>         0.5094
     13 O1          2.4861   -0.3137   -0.1239 O.2       1 <0>        -0.5107
     14 C11        -0.9076   -2.9538    2.9327 C.ar      1 <0>        -0.0709
     15 C12        -0.3330   -4.1079    3.4647 C.ar      1 <0>        -0.0682
     16 C13        -0.7535   -4.5827    4.6901 C.ar      1 <0>        -0.1263
     17 C14        -1.7429   -3.9163    5.3909 C.ar      1 <0>        -0.0986
     18 C15        -2.3166   -2.7710    4.8684 C.ar      1 <0>        -0.1241
     19 C16        -1.9005   -2.2832    3.6466 C.ar      1 <0>        -0.0904
     20 Cl1        -5.3522   -1.6496    0.2025 Cl        1 <0>        -0.0531
     21 H1          1.6353    1.6160    0.1296 H         1 <0>         0.1025
     22 H2          0.0549    1.9262   -0.6283 H         1 <0>         0.0740
     23 H3          0.1827    1.7970    1.1424 H         1 <0>         0.0729
     24 H4         -1.6385    1.1774   -1.0758 H         1 <0>         0.1452
     25 H5         -4.0004    0.5233   -1.0528 H         1 <0>         0.1468
     26 H6         -3.0719   -2.8206    1.4183 H         1 <0>         0.1484
     27 H7          2.2331   -2.7595   -0.2287 H         1 <0>         0.1343
     28 H8          0.5774   -2.5976   -0.8678 H         1 <0>         0.0942
     29 H9          0.4392   -4.6292    2.9184 H         1 <0>         0.1347
     30 H10        -0.3096   -5.4765    5.1029 H         1 <0>         0.1285
     31 H11        -2.0690   -4.2920    6.3495 H         1 <0>         0.1264
     32 H12        -3.0889   -2.2553    5.4199 H         1 <0>         0.1284
     33 H13        -2.3460   -1.3865    3.2417 H         1 <0>         0.1261
@<TRIPOS>BOND
     1    1    2 1
     2    1   21 1
     3    1   22 1
     4    1   23 1
     5    2   12 am
     6    2    3 1
     7    3    8 ar
     8    3    4 ar
     9    4    5 ar
    10    4   24 1
    11    5    6 ar
    12    5   25 1
    13    6    7 ar
    14    6   20 1
    15    7    8 ar
    16    7   26 1
    17    8    9 1
    18    9   10 2
    19    9   14 1
    20   10   11 1
    21   11   12 1
    22   11   27 1
    23   11   28 1
    24   12   13 2
    25   14   19 ar
    26   14   15 ar
    27   15   16 ar
    28   15   29 1
    29   16   17 ar
    30   16   30 1
    31   17   18 ar
    32   17   31 1
    33   18   19 ar
    34   18   32 1
    35   19   33 1
@<TRIPOS>MOLECULE
ZINC03870482
   46    48     0     0     0
SMALL
USER_CHARGES

@<TRIPOS>ATOM
      1 C1          1.6261    3.2891   -0.4383 C.3       1 <0>        -0.1483
      2 C2          1.2900    1.8365   -0.0950 C.3       1 <0>        -0.1331
      3 C3          1.5880    0.9450   -1.3022 C.3       1 <0>         0.1317
      4 H1          1.0511    1.3212   -2.1730 H         1 <0>         0.1016
      5 C4          1.1363   -0.4859   -1.0034 C.3       1 <0>        -0.1604
      6 N1          3.0276    0.9560   -1.5739 N.am      1 <0>        -0.5887
      7 C5          3.9695    0.4937   -0.5515 C.3       1 <0>         0.0855
      8 C6          3.4854    1.3914   -2.7644 C.2       1 <0>         0.5726
      9 O1          2.7134    1.8599   -3.5779 O.2       1 <0>        -0.5373
     10 C7          4.9278    1.2991   -3.0810 C.ar      1 <0>         0.0504
     11 C8          5.3922    1.8703   -4.2519 C.ar      1 <0>        -0.0723
     12 C9          6.7611    1.7876   -4.5602 C.ar      1 <0>        -0.0373
     13 C10         7.2992    2.3448   -5.7295 C.ar      1 <0>        -0.0970
     14 C11         8.6358    2.2316   -5.9722 C.ar      1 <0>        -0.1015
     15 C12         9.4738    1.5713   -5.0772 C.ar      1 <0>        -0.1022
     16 C13         8.9827    1.0182   -3.9308 C.ar      1 <0>        -0.0985
     17 C14         7.6165    1.1155   -3.6491 C.ar      1 <0>        -0.0737
     18 C15         7.0314    0.5448   -2.4389 C.ar      1 <0>         0.1999
     19 N2          5.7356    0.6730   -2.2254 N.ar      1 <0>        -0.4330
     20 C16         7.8843   -0.1660   -1.4591 C.ar      1 <0>        -0.0367
     21 C17         9.0399    0.4405   -0.9664 C.ar      1 <0>        -0.0870
     22 C18         9.8305   -0.2267   -0.0538 C.ar      1 <0>        -0.1151
     23 C19         9.4799   -1.4953    0.3736 C.ar      1 <0>        -0.0932
     24 C20         8.3361   -2.1032   -0.1106 C.ar      1 <0>        -0.1121
     25 C21         7.5324   -1.4434   -1.0202 C.ar      1 <0>        -0.0039
     26 Cl1         6.0926   -2.2042   -1.6216 Cl        1 <0>        -0.0491
     27 H2          2.6825    3.3667   -0.6953 H         1 <0>         0.0506
     28 H3          1.0213    3.6113   -1.2860 H         1 <0>         0.0558
     29 H4          1.4138    3.9242    0.4218 H         1 <0>         0.0540
     30 H5          1.8948    1.5143    0.7527 H         1 <0>         0.0668
     31 H6          0.2336    1.7589    0.1620 H         1 <0>         0.0753
     32 H7          1.6733   -0.8621   -0.1326 H         1 <0>         0.0596
     33 H8          0.0652   -0.4941   -0.8013 H         1 <0>         0.0692
     34 H9          1.3486   -1.1210   -1.8635 H         1 <0>         0.0578
     35 H10         4.2167   -0.5524   -0.7317 H         1 <0>         0.0631
     36 H11         4.8778    1.0946   -0.5960 H         1 <0>         0.0916
     37 H12         3.5147    0.5951    0.4339 H         1 <0>         0.0574
     38 H13         4.7109    2.3738   -4.9218 H         1 <0>         0.1528
     39 H14         6.6598    2.8588   -6.4319 H         1 <0>         0.1376
     40 H15         9.0511    2.6604   -6.8723 H         1 <0>         0.1323
     41 H16        10.5291    1.4954   -5.2943 H         1 <0>         0.1319
     42 H17         9.6445    0.5092   -3.2456 H         1 <0>         0.1365
     43 H18         9.3153    1.4303   -1.2991 H         1 <0>         0.1359
     44 H19        10.7255    0.2421    0.3278 H         1 <0>         0.1356
     45 H20        10.1025   -2.0131    1.0883 H         1 <0>         0.1363
     46 H21         8.0682   -3.0937    0.2263 H         1 <0>         0.1386
@<TRIPOS>BOND
     1    1    2 1
     2    1   27 1
     3    1   28 1
     4    1   29 1
     5    2    3 1
     6    2   30 1
     7    2   31 1
     8    3    4 1
     9    3    5 1
    10    3    6 1
    11    5   32 1
    12    5   33 1
    13    5   34 1
    14    6    7 1
    15    6    8 am
    16    7   35 1
    17    7   36 1
    18    7   37 1
    19    8    9 2
    20    8   10 1
    21   10   19 ar
    22   10   11 ar
    23   11   12 ar
    24   11   38 1
    25   12   17 ar
    26   12   13 ar
    27   13   14 ar
    28   13   39 1
    29   14   15 ar
    30   14   40 1
    31   15   16 ar
    32   15   41 1
    33   16   17 ar
    34   16   42 1
    35   17   18 ar
    36   18   19 ar
    37   18   20 1
    38   20   25 ar
    39   20   21 ar
    40   21   22 ar
    41   21   43 1
    42   22   23 ar
    43   22   44 1
    44   23   24 ar
    45   23   45 1
    46   24   25 ar
    47   24   46 1
    48   25   26 1
@<TRIPOS>MOLECULE
ZINC03870481
   46    48     0     0     0
SMALL
USER_CHARGES

@<TRIPOS>ATOM
      1 C1          0.3458    0.8613   -0.9582 C.3       1 <0>        -0.1492
      2 C2          0.3121   -0.5590   -1.5261 C.3       1 <0>        -0.1314
      3 C3          0.9109   -0.5597   -2.9340 C.3       1 <0>         0.1316
      4 H1          1.9111   -0.1274   -2.9037 H         1 <0>         0.1016
      5 C4          0.9919   -1.9967   -3.4531 C.3       1 <0>        -0.1616
      6 N1          0.0625    0.2346   -3.8260 N.am      1 <0>        -0.5887
      7 C5         -1.3367   -0.1451   -4.0363 C.3       1 <0>         0.0851
      8 C6          0.5693    1.3147   -4.4530 C.2       1 <0>         0.5727
      9 O1          1.7517    1.5771   -4.3516 O.2       1 <0>        -0.5377
     10 C7         -0.3139    2.1810   -5.2648 C.ar      1 <0>         0.0504
     11 C8          0.2508    3.2052   -6.0030 C.ar      1 <0>        -0.0724
     12 C9         -0.5809    4.0326   -6.7773 C.ar      1 <0>        -0.0372
     13 C10        -0.0751    5.0886   -7.5496 C.ar      1 <0>        -0.0970
     14 C11        -0.9332    5.8556   -8.2799 C.ar      1 <0>        -0.1015
     15 C12        -2.3033    5.6066   -8.2702 C.ar      1 <0>        -0.1022
     16 C13        -2.8279    4.5876   -7.5300 C.ar      1 <0>        -0.0984
     17 C14        -1.9771    3.7799   -6.7689 C.ar      1 <0>        -0.0736
     18 C15        -2.4781    2.6743   -5.9571 C.ar      1 <0>         0.1999
     19 N2         -1.6255    1.9438   -5.2636 N.ar      1 <0>        -0.4328
     20 C16        -3.9273    2.3727   -5.9164 C.ar      1 <0>        -0.0367
     21 C17        -4.6423    2.2095   -7.1030 C.ar      1 <0>        -0.0870
     22 C18        -5.9922    1.9287   -7.0588 C.ar      1 <0>        -0.1151
     23 C19        -6.6380    1.8087   -5.8408 C.ar      1 <0>        -0.0932
     24 C20        -5.9359    1.9695   -4.6603 C.ar      1 <0>        -0.1122
     25 C21        -4.5825    2.2448   -4.6907 C.ar      1 <0>        -0.0039
     26 Cl1        -3.7004    2.4389   -3.2081 Cl        1 <0>        -0.0491
     27 H2          1.3774    1.2106   -0.9144 H         1 <0>         0.0547
     28 H3         -0.2350    1.5233   -1.6004 H         1 <0>         0.0510
     29 H4         -0.0808    0.8617    0.0448 H         1 <0>         0.0541
     30 H5          0.8929   -1.2210   -0.8839 H         1 <0>         0.0751
     31 H6         -0.7195   -0.9084   -1.5699 H         1 <0>         0.0663
     32 H7         -0.0082   -2.4289   -3.4835 H         1 <0>         0.0600
     33 H8          1.4186   -1.9971   -4.4562 H         1 <0>         0.0592
     34 H9          1.6232   -2.5877   -2.7895 H         1 <0>         0.0695
     35 H10        -1.9737    0.4264   -3.3613 H         1 <0>         0.0634
     36 H11        -1.6191    0.0655   -5.0678 H         1 <0>         0.0916
     37 H12        -1.4582   -1.2097   -3.8364 H         1 <0>         0.0573
     38 H13         1.3184    3.3677   -5.9844 H         1 <0>         0.1528
     39 H14         0.9854    5.2924   -7.5651 H         1 <0>         0.1376
     40 H15        -0.5446    6.6689   -8.8749 H         1 <0>         0.1323
     41 H16        -2.9610    6.2302   -8.8575 H         1 <0>         0.1319
     42 H17        -3.8925    4.4059   -7.5322 H         1 <0>         0.1365
     43 H18        -4.1401    2.3032   -8.0546 H         1 <0>         0.1359
     44 H19        -6.5465    1.8026   -7.9771 H         1 <0>         0.1356
     45 H20        -7.6950    1.5887   -5.8120 H         1 <0>         0.1363
     46 H21        -6.4457    1.8753   -3.7129 H         1 <0>         0.1386
@<TRIPOS>BOND
     1    1    2 1
     2    1   27 1
     3    1   28 1
     4    1   29 1
     5    2    3 1
     6    2   30 1
     7    2   31 1
     8    3    4 1
     9    3    5 1
    10    3    6 1
    11    5   32 1
    12    5   33 1
    13    5   34 1
    14    6    7 1
    15    6    8 am
    16    7   35 1
    17    7   36 1
    18    7   37 1
    19    8    9 2
    20    8   10 1
    21   10   19 ar
    22   10   11 ar
    23   11   12 ar
    24   11   38 1
    25   12   17 ar
    26   12   13 ar
    27   13   14 ar
    28   13   39 1
    29   14   15 ar
    30   14   40 1
    31   15   16 ar
    32   15   41 1
    33   16   17 ar
    34   16   42 1
    35   17   18 ar
    36   18   19 ar
    37   18   20 1
    38   20   25 ar
    39   20   21 ar
    40   21   22 ar
    41   21   43 1
    42   22   23 ar
    43   22   44 1
    44   23   24 ar
    45   23   45 1
    46   24   25 ar
    47   24   46 1
    48   25   26 1
@<TRIPOS>MOLECULE
ZINC72119672
   46    47     0     0     0
SMALL
USER_CHARGES

@<TRIPOS>ATOM
      1 C1          0.3900    1.5252    0.1764 C.3       1 <0>        -0.1529
      2 C2          0.3666   -0.0044    0.1510 C.3       1 <0>        -0.1217
      3 C3          0.9181   -0.5008   -1.1870 C.3       1 <0>        -0.1361
      4 C4          0.8947   -2.0304   -1.2124 C.3       1 <0>         0.1132
      5 N1          1.4228   -2.5057   -2.4936 N.am      1 <0>        -0.5961
      6 C5          2.8676   -2.6652   -2.6764 C.3       1 <0>         0.0991
      7 C6          3.2594   -4.1180   -2.3991 C.3       1 <0>        -0.1340
      8 C7          4.7683   -4.2846   -2.5900 C.3       1 <0>        -0.1195
      9 C8          5.1601   -5.7373   -2.3127 C.3       1 <0>        -0.1516
     10 C9          0.5796   -2.7961   -3.5040 C.2       1 <0>         0.5930
     11 O1         -0.6095   -2.5707   -3.3874 O.2       1 <0>        -0.5039
     12 C10         1.0993   -3.3876   -4.7517 C.2       1 <0>         0.0192
     13 C11         0.3550   -3.8085   -5.8074 C.2       1 <0>        -0.1906
     14 C12         1.2403   -4.3070   -6.7915 C.2       1 <0>         0.1462
     15 N2          2.4628   -4.1857   -6.3354 N.2       1 <0>        -0.2944
     16 O2          2.3966   -3.6005   -5.0479 O.3       1 <0>        -0.0556
     17 C13         0.8526   -4.8693   -8.1095 C.ar      1 <0>        -0.0464
     18 C14        -0.4905   -4.9355   -8.4735 C.ar      1 <0>        -0.0831
     19 C15        -0.8455   -5.4588   -9.7004 C.ar      1 <0>        -0.1208
     20 C16         0.1296   -5.9176  -10.5677 C.ar      1 <0>        -0.0966
     21 C17         1.4646   -5.8542  -10.2113 C.ar      1 <0>        -0.1218
     22 C18         1.8309   -5.3275   -8.9892 C.ar      1 <0>        -0.0807
     23 H1          1.4150    1.8750    0.0537 H         1 <0>         0.0537
     24 H2         -0.2254    1.9115   -0.6361 H         1 <0>         0.0544
     25 H3         -0.0029    1.8788    1.1296 H         1 <0>         0.0560
     26 H4          0.9820   -0.3907    0.9635 H         1 <0>         0.0636
     27 H5         -0.6585   -0.3542    0.2736 H         1 <0>         0.0651
     28 H6          0.3027   -0.1144   -1.9995 H         1 <0>         0.0683
     29 H7          1.9432   -0.1510   -1.3097 H         1 <0>         0.0654
     30 H8          1.5101   -2.4167   -0.4000 H         1 <0>         0.0836
     31 H9         -0.1303   -2.3801   -1.0898 H         1 <0>         0.0905
     32 H10         3.1350   -2.4060   -3.7008 H         1 <0>         0.0922
     33 H11         3.3960   -2.0082   -1.9857 H         1 <0>         0.0901
     34 H12         2.9920   -4.3771   -1.3747 H         1 <0>         0.0652
     35 H13         2.7310   -4.7750   -3.0898 H         1 <0>         0.0654
     36 H14         5.0357   -4.0254   -3.6144 H         1 <0>         0.0679
     37 H15         5.2967   -3.6275   -1.8993 H         1 <0>         0.0628
     38 H16         4.8927   -5.9965   -1.2882 H         1 <0>         0.0527
     39 H17         4.6317   -6.3944   -3.0034 H         1 <0>         0.0532
     40 H18         6.2350   -5.8560   -2.4487 H         1 <0>         0.0557
     41 H19        -0.7217   -3.7694   -5.8820 H         1 <0>         0.1727
     42 H20        -1.2527   -4.5783   -7.7968 H         1 <0>         0.1316
     43 H21        -1.8864   -5.5106   -9.9836 H         1 <0>         0.1326
     44 H22        -0.1525   -6.3270  -11.5264 H         1 <0>         0.1296
     45 H23         2.2219   -6.2141  -10.8920 H         1 <0>         0.1313
     46 H24         2.8739   -5.2747   -8.7137 H         1 <0>         0.1316
@<TRIPOS>BOND
     1    1    2 1
     2    1   23 1
     3    1   24 1
     4    1   25 1
     5    2    3 1
     6    2   26 1
     7    2   27 1
     8    3    4 1
     9    3   28 1
    10    3   29 1
    11    4    5 1
    12    4   30 1
    13    4   31 1
    14    5    6 1
    15    5   10 am
    16    6    7 1
    17    6   32 1
    18    6   33 1
    19    7    8 1
    20    7   34 1
    21    7   35 1
    22    8    9 1
    23    8   36 1
    24    8   37 1
    25    9   38 1
    26    9   39 1
    27    9   40 1
    28   10   11 2
    29   10   12 1
    30   12   16 1
    31   12   13 2
    32   13   14 1
    33   13   41 1
    34   14   15 2
    35   14   17 1
    36   15   16 1
    37   17   22 ar
    38   17   18 ar
    39   18   19 ar
    40   18   42 1
    41   19   20 ar
    42   19   43 1
    43   20   21 ar
    44   20   44 1
    45   21   22 ar
    46   21   45 1
    47   22   46 1
@<TRIPOS>MOLECULE
ZINC03812888
   72    73     0     0     0
SMALL
USER_CHARGES

@<TRIPOS>ATOM
      1 C1          0.4643    1.3329   -0.2411 C.3       1 <0>        -0.1747
      2 C2          0.0733   -0.1223    0.0241 C.3       1 <0>        -0.0830
      3 C3          0.8761   -0.6579    1.2114 C.3       1 <0>        -0.1834
      4 C4         -1.4212   -0.1988    0.3430 C.3       1 <0>         0.1004
      5 C5         -2.2237    0.3455   -0.8405 C.3       1 <0>        -0.1048
      6 C6         -1.9247   -0.4899   -2.0868 C.3       1 <0>        -0.1606
      7 C7         -2.7272    0.0544   -3.2703 C.3       1 <0>        -0.0091
      8 N1         -2.4402   -0.7477   -4.4670 N.4       1 <0>        -0.3873
      9 C8         -1.0302   -0.5789   -4.8430 C.3       1 <0>        -0.0587
     10 C9         -3.2986   -0.3021   -5.5727 C.3       1 <0>        -0.0075
     11 C10        -3.0896   -1.2169   -6.7811 C.3       1 <0>        -0.0949
     12 C11        -3.9702   -0.7598   -7.9154 C.ar      1 <0>        -0.1088
     13 C12        -5.2517   -1.2635   -8.0399 C.ar      1 <0>        -0.1027
     14 C13        -6.0634   -0.8473   -9.0787 C.ar      1 <0>        -0.1717
     15 C14        -5.5933    0.0770   -9.9977 C.ar      1 <0>         0.1180
     16 C15        -4.3036    0.5843   -9.8722 C.ar      1 <0>         0.1059
     17 C16        -3.4969    0.1666   -8.8259 C.ar      1 <0>        -0.1655
     18 O1         -3.8377    1.4917  -10.7717 O.3       1 <0>        -0.3008
     19 C17        -2.5044    1.9690  -10.5804 C.3       1 <0>         0.0253
     20 O2         -6.3903    0.4871  -11.0204 O.3       1 <0>        -0.3014
     21 C18        -7.7019   -0.0764  -11.0869 C.3       1 <0>         0.0227
     22 C19        -1.7993   -1.6000    0.5892 C.1       1 <0>         0.2041
     23 N2         -2.0910   -2.6813    0.7792 N.1       1 <0>        -0.4101
     24 C20        -1.7157    0.6241    1.5707 C.ar      1 <0>        -0.0960
     25 C21        -0.6924    1.2978    2.2112 C.ar      1 <0>        -0.1135
     26 C22        -0.9573    2.0540    3.3377 C.ar      1 <0>        -0.1756
     27 C23        -2.2510    2.1383    3.8270 C.ar      1 <0>         0.1175
     28 C24        -3.2811    1.4605    3.1820 C.ar      1 <0>         0.1030
     29 C25        -3.0094    0.7082    2.0505 C.ar      1 <0>        -0.1606
     30 O3         -4.5524    1.5402    3.6584 O.3       1 <0>        -0.3010
     31 C26        -5.5587    0.8184    2.9454 C.3       1 <0>         0.0257
     32 O4         -2.5133    2.8814    4.9353 O.3       1 <0>        -0.3026
     33 C27        -1.4070    3.5493    5.5454 C.3       1 <0>         0.0232
     34 H1          1.5417    1.4471   -0.1220 H         1 <0>         0.0714
     35 H2          0.1801    1.6060   -1.2573 H         1 <0>         0.0573
     36 H3         -0.0504    1.9823    0.4671 H         1 <0>         0.0866
     37 H4          0.2874   -0.7230   -0.8599 H         1 <0>         0.0818
     38 H5          1.8959   -0.2762    1.1621 H         1 <0>         0.0724
     39 H6          0.4106   -0.3318    2.1415 H         1 <0>         0.0837
     40 H7          0.8938   -1.7472    1.1763 H         1 <0>         0.0565
     41 H8         -3.2884    0.2910   -0.6133 H         1 <0>         0.0854
     42 H9         -1.9437    1.3831   -1.0228 H         1 <0>         0.1040
     43 H10        -0.8600   -0.4354   -2.3140 H         1 <0>         0.0984
     44 H11        -2.2047   -1.5275   -1.9045 H         1 <0>         0.0867
     45 H12        -3.7919   -0.0001   -3.0431 H         1 <0>         0.1322
     46 H13        -2.4473    1.0920   -3.4526 H         1 <0>         0.1347
     47 H14        -0.8339    0.4722   -5.0545 H         1 <0>         0.1249
     48 H15        -0.3932   -0.9095   -4.0226 H         1 <0>         0.1255
     49 H16        -0.8172   -1.1741   -5.7310 H         1 <0>         0.1260
     50 H17        -4.3424   -0.3437   -5.2617 H         1 <0>         0.1327
     51 H18        -3.0405    0.7218   -5.8431 H         1 <0>         0.1319
     52 H19        -2.0457   -1.1754   -7.0921 H         1 <0>         0.0944
     53 H20        -3.3477   -2.2408   -6.5107 H         1 <0>         0.0957
     54 H21        -5.6193   -1.9840   -7.3242 H         1 <0>         0.1290
     55 H22        -7.0638   -1.2429   -9.1741 H         1 <0>         0.1420
     56 H23        -2.4969    0.5616   -8.7240 H         1 <0>         0.1364
     57 H24        -2.2588    2.6850  -11.3647 H         1 <0>         0.1070
     58 H25        -2.4286    2.4553   -9.6078 H         1 <0>         0.0539
     59 H26        -1.8088    1.1309  -10.6227 H         1 <0>         0.0563
     60 H27        -7.6275   -1.1590  -11.1896 H         1 <0>         0.0592
     61 H28        -8.2478    0.1654  -10.1750 H         1 <0>         0.0584
     62 H29        -8.2308    0.3347  -11.9468 H         1 <0>         0.1080
     63 H30         0.3164    1.2329    1.8308 H         1 <0>         0.1604
     64 H31        -0.1560    2.5788    3.8366 H         1 <0>         0.1426
     65 H32        -3.8077    0.1843    1.5459 H         1 <0>         0.1325
     66 H33        -6.5240    0.9669    3.4294 H         1 <0>         0.1055
     67 H34        -5.6074    1.1811    1.9187 H         1 <0>         0.0536
     68 H35        -5.3123   -0.2434    2.9444 H         1 <0>         0.0538
     69 H36        -0.6644    2.8139    5.8548 H         1 <0>         0.0583
     70 H37        -0.9593    4.2388    4.8297 H         1 <0>         0.0585
     71 H38        -1.7536    4.1046    6.4169 H         1 <0>         0.1058
     72 H39        -2.6218   -1.7207   -4.2712 H         1 <0>         0.4250
@<TRIPOS>BOND
     1    1    2 1
     2    1   34 1
     3    1   35 1
     4    1   36 1
     5    2    3 1
     6    2    4 1
     7    2   37 1
     8    3   38 1
     9    3   39 1
    10    3   40 1
    11    4    5 1
    12    4   22 1
    13    4   24 1
    14    5    6 1
    15    5   41 1
    16    5   42 1
    17    6    7 1
    18    6   43 1
    19    6   44 1
    20    7    8 1
    21    7   45 1
    22    7   46 1
    23    8    9 1
    24    8   10 1
    25    8   72 1
    26    9   47 1
    27    9   48 1
    28    9   49 1
    29   10   11 1
    30   10   50 1
    31   10   51 1
    32   11   12 1
    33   11   52 1
    34   11   53 1
    35   12   17 ar
    36   12   13 ar
    37   13   14 ar
    38   13   54 1
    39   14   15 ar
    40   14   55 1
    41   15   16 ar
    42   15   20 1
    43   16   17 ar
    44   16   18 1
    45   17   56 1
    46   18   19 1
    47   19   57 1
    48   19   58 1
    49   19   59 1
    50   20   21 1
    51   21   60 1
    52   21   61 1
    53   21   62 1
    54   22   23 3
    55   24   29 ar
    56   24   25 ar
    57   25   26 ar
    58   25   63 1
    59   26   27 ar
    60   26   64 1
    61   27   28 ar
    62   27   32 1
    63   28   29 ar
    64   28   30 1
    65   29   65 1
    66   30   31 1
    67   31   66 1
    68   31   67 1
    69   31   68 1
    70   32   33 1
    71   33   69 1
    72   33   70 1
    73   33   71 1
@<TRIPOS>MOLECULE
ZINC00347533
   33    35     0     0     0
SMALL
USER_CHARGES

@<TRIPOS>ATOM
      1 C1          0.5631    1.4223    0.1925 C.3       1 <0>         0.0581
      2 N1          0.3227   -0.0202    0.1047 N.am      1 <0>        -0.5556
      3 C2         -0.9933   -0.4534    0.1623 C.ar      1 <0>         0.1855
      4 C3         -1.9464    0.2981   -0.5284 C.ar      1 <0>        -0.1312
      5 C4         -3.2739   -0.0686   -0.5163 C.ar      1 <0>        -0.0641
      6 C5         -3.6780   -1.1934    0.1859 C.ar      1 <0>        -0.0507
      7 C6         -2.7522   -1.9462    0.8720 C.ar      1 <0>        -0.0534
      8 C7         -1.3959   -1.5855    0.8675 C.ar      1 <0>        -0.1216
      9 C8         -0.4610   -2.4380    1.6185 C.2       1 <0>         0.2667
     10 N2          0.7154   -2.7699    1.2188 N.2       1 <0>        -0.4850
     11 C9          1.2544   -2.3099   -0.0605 C.3       1 <0>         0.0240
     12 C10         1.3843   -0.8120   -0.0294 C.2       1 <0>         0.5093
     13 O1          2.4854   -0.3125   -0.1243 O.2       1 <0>        -0.5093
     14 C11        -0.9081   -2.9522    2.9336 C.ar      1 <0>        -0.0652
     15 C12        -0.3327   -4.1058    3.4666 C.ar      1 <0>        -0.0554
     16 C13        -0.7526   -4.5800    4.6919 C.ar      1 <0>        -0.1158
     17 C14        -1.7434   -3.9130    5.3929 C.ar      1 <0>        -0.0166
     18 C15        -2.3183   -2.7675    4.8682 C.ar      1 <0>        -0.1138
     19 C16        -1.9021   -2.2813    3.6464 C.ar      1 <0>        -0.0779
     20 Cl1        -2.2670   -4.5153    6.9345 Cl        1 <0>        -0.0618
     21 Cl2        -5.3522   -1.6524    0.2004 Cl        1 <0>        -0.0519
     22 H1          1.6337    1.6167    0.1296 H         1 <0>         0.1027
     23 H2          0.0534    1.9262   -0.6288 H         1 <0>         0.0743
     24 H3          0.1809    1.7972    1.1419 H         1 <0>         0.0733
     25 H4         -1.6394    1.1761   -1.0773 H         1 <0>         0.1457
     26 H5         -4.0011    0.5212   -1.0545 H         1 <0>         0.1472
     27 H6         -3.0719   -2.8214    1.4181 H         1 <0>         0.1484
     28 H7          2.2344   -2.7574   -0.2258 H         1 <0>         0.1354
     29 H8          0.5790   -2.5980   -0.8660 H         1 <0>         0.0958
     30 H9          0.4398   -4.6269    2.9206 H         1 <0>         0.1453
     31 H10        -0.3080   -5.4732    5.1053 H         1 <0>         0.1405
     32 H11        -3.0909   -2.2514    5.4189 H         1 <0>         0.1404
     33 H12        -2.3480   -1.3855    3.2402 H         1 <0>         0.1366
@<TRIPOS>BOND
     1    1    2 1
     2    1   22 1
     3    1   23 1
     4    1   24 1
     5    2   12 am
     6    2    3 1
     7    3    8 ar
     8    3    4 ar
     9    4    5 ar
    10    4   25 1
    11    5    6 ar
    12    5   26 1
    13    6    7 ar
    14    6   21 1
    15    7    8 ar
    16    7   27 1
    17    8    9 1
    18    9   10 2
    19    9   14 1
    20   10   11 1
    21   11   12 1
    22   11   28 1
    23   11   29 1
    24   12   13 2
    25   14   19 ar
    26   14   15 ar
    27   15   16 ar
    28   15   30 1
    29   16   17 ar
    30   16   31 1
    31   17   18 ar
    32   17   20 1
    33   18   19 ar
    34   18   32 1
    35   19   33 1
@<TRIPOS>MOLECULE
ZINC03627988
   45    48     0     0     0
SMALL
USER_CHARGES

@<TRIPOS>ATOM
      1 C1          0.2549    1.5824    0.0341 C.ar      1 <0>        -0.0996
      2 C2          1.4796    2.2260   -0.0059 C.ar      1 <0>        -0.1171
      3 C3          2.6469    1.4927   -0.0387 C.ar      1 <0>        -0.0945
      4 C4          2.5911    0.0958   -0.0315 C.ar      1 <0>        -0.0582
      5 C5          1.3504   -0.5470    0.0089 C.ar      1 <0>        -0.0828
      6 C6          0.1917    0.1998    0.0415 C.ar      1 <0>        -0.1126
      7 C7          3.8346   -0.6954   -0.0670 C.2       1 <0>         0.2030
      8 C8          4.0641   -1.8096   -0.8789 C.2       1 <0>        -0.2638
      9 C9          5.4330   -2.2639   -0.5725 C.ar      1 <0>        -0.0580
     10 C10         6.2277   -3.3070   -1.0428 C.ar      1 <0>        -0.0869
     11 C11         7.5017   -3.4730   -0.5440 C.ar      1 <0>        -0.1266
     12 C12         7.9924   -2.6069    0.4217 C.ar      1 <0>        -0.0986
     13 C13         7.2166   -1.5708    0.8955 C.ar      1 <0>        -0.1174
     14 C14         5.9278   -1.3862    0.4049 C.ar      1 <0>         0.0958
     15 N1          4.9452   -0.4548    0.6812 N.pl3     1 <0>        -0.5692
     16 H1          5.0342    0.2689    1.3210 H         1 <0>         0.4226
     17 C15         3.1649   -2.3850   -1.8070 C.2       1 <0>         0.4527
     18 O1          2.4702   -3.3274   -1.4767 O.2       1 <0>        -0.4103
     19 C16         3.0686   -1.8366   -3.1896 C.2       1 <0>         0.4945
     20 O2          2.3656   -0.8723   -3.4126 O.2       1 <0>        -0.5070
     21 N2          3.7619   -2.4114   -4.1924 N.am      1 <0>        -0.5963
     22 C17         4.5211   -3.6485   -3.9645 C.3       1 <0>         0.1006
     23 C18         4.0874   -4.6910   -4.9998 C.3       1 <0>        -0.1363
     24 C19         4.2466   -4.1056   -6.4048 C.3       1 <0>        -0.1210
     25 C20         3.3475   -2.8759   -6.5518 C.3       1 <0>        -0.1364
     26 C21         3.7679   -1.8161   -5.5356 C.3       1 <0>         0.1086
     27 H2         -0.6559    2.1621    0.0643 H         1 <0>         0.1286
     28 H3          1.5211    3.3051   -0.0117 H         1 <0>         0.1297
     29 H4          3.6019    1.9962   -0.0703 H         1 <0>         0.1239
     30 H5          1.2995   -1.6258    0.0144 H         1 <0>         0.1273
     31 H6         -0.7676   -0.2953    0.0732 H         1 <0>         0.1307
     32 H7          5.8471   -3.9826   -1.7945 H         1 <0>         0.1229
     33 H8          8.1202   -4.2809   -0.9062 H         1 <0>         0.1298
     34 H9          8.9920   -2.7457    0.8064 H         1 <0>         0.1313
     35 H10         7.6090   -0.9024    1.6476 H         1 <0>         0.1260
     36 H11         5.5871   -3.4481   -4.0722 H         1 <0>         0.0796
     37 H12         4.3171   -4.0229   -2.9613 H         1 <0>         0.0795
     38 H13         4.7102   -5.5803   -4.9035 H         1 <0>         0.0811
     39 H14         3.0437   -4.9573   -4.8327 H         1 <0>         0.0710
     40 H15         5.2857   -3.8167   -6.5623 H         1 <0>         0.0670
     41 H16         3.9619   -4.8540   -7.1444 H         1 <0>         0.0697
     42 H17         3.4437   -2.4733   -7.5602 H         1 <0>         0.0797
     43 H18         2.3108   -3.1593   -6.3701 H         1 <0>         0.0685
     44 H19         3.0671   -0.9819   -5.5687 H         1 <0>         0.0955
     45 H20         4.7711   -1.4630   -5.7743 H         1 <0>         0.0733
@<TRIPOS>BOND
     1    1    6 ar
     2    1    2 ar
     3    1   27 1
     4    2    3 ar
     5    2   28 1
     6    3    4 ar
     7    3   29 1
     8    4    5 ar
     9    4    7 1
    10    5    6 ar
    11    5   30 1
    12    6   31 1
    13    7   15 1
    14    7    8 2
    15    8    9 1
    16    8   17 1
    17    9   14 ar
    18    9   10 ar
    19   10   11 ar
    20   10   32 1
    21   11   12 ar
    22   11   33 1
    23   12   13 ar
    24   12   34 1
    25   13   14 ar
    26   13   35 1
    27   14   15 1
    28   15   16 1
    29   17   18 2
    30   17   19 1
    31   19   20 2
    32   19   21 am
    33   21   26 1
    34   21   22 1
    35   22   23 1
    36   22   36 1
    37   22   37 1
    38   23   24 1
    39   23   38 1
    40   23   39 1
    41   24   25 1
    42   24   40 1
    43   24   41 1
    44   25   26 1
    45   25   42 1
    46   25   43 1
    47   26   44 1
    48   26   45 1
@<TRIPOS>MOLECULE
ZINC03871085
   48    51     0     0     0
SMALL
USER_CHARGES

@<TRIPOS>ATOM
      1 C1         -2.4397   -1.9023    1.6561 C.3       1 <0>         0.1003
      2 N1         -1.2705   -1.6591    0.8076 N.am      1 <0>        -0.5975
      3 C2         -0.2555   -0.6866    1.2202 C.3       1 <0>         0.0798
      4 C3         -1.1285   -2.3302   -0.3526 C.2       1 <0>         0.6472
      5 O1         -2.0116   -3.0708   -0.7382 O.2       1 <0>        -0.5488
      6 O2         -0.0086   -2.1801   -1.0843 O.3       1 <0>        -0.2902
      7 C4          0.0531   -2.8023   -2.2926 C.2       1 <0>         0.2041
      8 C5          0.0991   -2.0381   -3.3995 C.2       1 <0>        -0.1184
      9 S1          0.2578   -2.7811   -4.9886 S.3       1 <0>         0.0258
     10 C6         -1.1843   -3.7829   -5.1376 C.ar      1 <0>        -0.1431
     11 C7         -2.0892   -3.5155   -6.1585 C.ar      1 <0>        -0.0545
     12 C8         -3.2207   -4.2957   -6.3041 C.ar      1 <0>        -0.1212
     13 C9         -3.4500   -5.3456   -5.4348 C.ar      1 <0>        -0.0770
     14 C10        -2.5557   -5.6120   -4.4160 C.ar      1 <0>        -0.1244
     15 C11        -1.4184   -4.8251   -4.2555 C.ar      1 <0>         0.1639
     16 N2         -0.5721   -5.1159   -3.1703 N.pl3     1 <0>        -0.3785
     17 C12         0.0718   -4.2645   -2.3163 C.2       1 <0>         0.0281
     18 C13         0.7867   -5.0218   -1.4165 C.2       1 <0>        -0.1442
     19 C14         0.5754   -6.3693   -1.7394 C.2       1 <0>        -0.1802
     20 C15        -0.2598   -6.4092   -2.8069 C.2       1 <0>         0.0045
     21 C16         0.0166   -0.5707   -3.2812 C.ar      1 <0>        -0.0787
     22 C17         0.8170    0.1043   -2.3549 C.ar      1 <0>        -0.0454
     23 C18         0.7366    1.4760   -2.2485 C.ar      1 <0>        -0.1546
     24 C19        -0.1377    2.1877   -3.0595 C.ar      1 <0>         0.1380
     25 C20        -0.9350    1.5217   -3.9813 C.ar      1 <0>        -0.2088
     26 C21        -0.8581    0.1507   -4.0990 C.ar      1 <0>        -0.0498
     27 O3         -0.2137    3.5401   -2.9505 O.3       1 <0>        -0.3154
     28 C22        -1.1337    4.2100   -3.8148 C.3       1 <0>         0.0255
     29 H1         -3.2106   -1.1649    1.4325 H         1 <0>         0.0607
     30 H2         -2.8270   -2.9027    1.4631 H         1 <0>         0.0820
     31 H3         -2.1515   -1.8202    2.7041 H         1 <0>         0.0793
     32 H4         -0.5399   -0.2484    2.1769 H         1 <0>         0.0838
     33 H5          0.7074   -1.1872    1.3217 H         1 <0>         0.0675
     34 H6         -0.1790    0.0995    0.4690 H         1 <0>         0.0668
     35 H7         -1.9079   -2.6965   -6.8388 H         1 <0>         0.1439
     36 H8         -3.9248   -4.0852   -7.0956 H         1 <0>         0.1391
     37 H9         -4.3310   -5.9592   -5.5521 H         1 <0>         0.1391
     38 H10        -2.7396   -6.4347   -3.7409 H         1 <0>         0.1373
     39 H11         1.3986   -4.6466   -0.6095 H         1 <0>         0.1452
     40 H12         0.9959   -7.2212   -1.2257 H         1 <0>         0.1499
     41 H13        -0.6141   -7.3039   -3.2973 H         1 <0>         0.1728
     42 H14         1.4970   -0.4483   -1.7235 H         1 <0>         0.1357
     43 H15         1.3543    1.9983   -1.5329 H         1 <0>         0.1356
     44 H16        -1.6136    2.0795   -4.6096 H         1 <0>         0.1321
     45 H17        -1.4755   -0.3658   -4.8190 H         1 <0>         0.1269
     46 H18        -1.0950    5.2827   -3.6254 H         1 <0>         0.1021
     47 H19        -0.8650    4.0145   -4.8530 H         1 <0>         0.0576
     48 H20        -2.1427    3.8437   -3.6255 H         1 <0>         0.0561
@<TRIPOS>BOND
     1    1    2 1
     2    1   29 1
     3    1   30 1
     4    1   31 1
     5    2    3 1
     6    2    4 am
     7    3   32 1
     8    3   33 1
     9    3   34 1
    10    4    5 2
    11    4    6 1
    12    6    7 1
    13    7   17 1
    14    7    8 2
    15    8    9 1
    16    8   21 1
    17    9   10 1
    18   10   15 ar
    19   10   11 ar
    20   11   12 ar
    21   11   35 1
    22   12   13 ar
    23   12   36 1
    24   13   14 ar
    25   13   37 1
    26   14   15 ar
    27   14   38 1
    28   15   16 1
    29   16   20 1
    30   16   17 1
    31   17   18 2
    32   18   19 1
    33   18   39 1
    34   19   20 2
    35   19   40 1
    36   20   41 1
    37   21   26 ar
    38   21   22 ar
    39   22   23 ar
    40   22   42 1
    41   23   24 ar
    42   23   43 1
    43   24   25 ar
    44   24   27 1
    45   25   26 ar
    46   25   44 1
    47   26   45 1
    48   27   28 1
    49   28   46 1
    50   28   47 1
    51   28   48 1
@<TRIPOS>MOLECULE
ZINC03871084
   43    46     0     0     0
SMALL
USER_CHARGES
[(4-methoxyphenyl)BLAHyl] acetate
@<TRIPOS>ATOM
      1 C1         -3.5658    3.7731    5.3163 C.3       1 <0>        -0.1435
      2 C2         -3.2115    3.5195    3.8736 C.2       1 <0>         0.4560
      3 O1         -2.1695    3.9435    3.4219 O.2       1 <0>        -0.4909
      4 O2         -4.0493    2.8246    3.0892 O.3       1 <0>        -0.2794
      5 C3         -3.7227    2.7248    1.7726 C.2       1 <0>         0.1789
      6 C4         -3.4146    1.5080    1.2842 C.2       1 <0>        -0.1148
      7 S1         -3.0561    1.3014   -0.4279 S.3       1 <0>         0.0226
      8 C5         -1.6416    2.3180   -0.6929 C.ar      1 <0>        -0.1422
      9 C6         -0.4603    1.7286   -1.1298 C.ar      1 <0>        -0.0547
     10 C7          0.6525    2.5088   -1.3805 C.ar      1 <0>        -0.1206
     11 C8          0.5923    3.8765   -1.1908 C.ar      1 <0>        -0.0769
     12 C9         -0.5754    4.4649   -0.7441 C.ar      1 <0>        -0.1247
     13 C10        -1.6987    3.6855   -0.4817 C.ar      1 <0>         0.1621
     14 N1         -2.8456    4.3372    0.0077 N.pl3     1 <0>        -0.3799
     15 C11        -3.7261    3.9446    0.9658 C.2       1 <0>         0.0287
     16 C12        -4.6857    4.9236    1.0886 C.2       1 <0>        -0.1522
     17 C13        -4.3781    5.9324    0.1653 C.2       1 <0>        -0.1765
     18 C14        -3.2613    5.5611   -0.4894 C.2       1 <0>         0.0025
     19 C15        -3.3778    0.3430    2.1872 C.ar      1 <0>        -0.0817
     20 C16        -2.2927   -0.5378    2.1516 C.ar      1 <0>        -0.0500
     21 C17        -2.2604   -1.6223    3.0013 C.ar      1 <0>        -0.2093
     22 C18        -3.3084   -1.8469    3.8845 C.ar      1 <0>         0.1382
     23 C19        -4.3913   -0.9779    3.9197 C.ar      1 <0>        -0.1538
     24 C20        -4.4304    0.1124    3.0777 C.ar      1 <0>        -0.0447
     25 O3         -3.2744   -2.9206    4.7168 O.3       1 <0>        -0.3151
     26 C21        -2.1315   -3.7738    4.6287 C.3       1 <0>         0.0253
     27 H1         -3.2540    2.9221    5.9219 H         1 <0>         0.1083
     28 H2         -3.0561    4.6720    5.6630 H         1 <0>         0.1072
     29 H3         -4.6435    3.9084    5.4073 H         1 <0>         0.1004
     30 H4         -0.4138    0.6598   -1.2777 H         1 <0>         0.1440
     31 H5          1.5679    2.0504   -1.7246 H         1 <0>         0.1394
     32 H6          1.4600    4.4870   -1.3926 H         1 <0>         0.1395
     33 H7         -0.6167    5.5341   -0.5974 H         1 <0>         0.1374
     34 H8         -5.5226    4.9158    1.7711 H         1 <0>         0.1477
     35 H9         -4.9360    6.8437    0.0078 H         1 <0>         0.1509
     36 H10        -2.7701    6.1268   -1.2673 H         1 <0>         0.1733
     37 H11        -1.4793   -0.3663    1.4622 H         1 <0>         0.1267
     38 H12        -1.4205   -2.3008    2.9776 H         1 <0>         0.1323
     39 H13        -5.2042   -1.1571    4.6077 H         1 <0>         0.1363
     40 H14        -5.2731    0.7873    3.1055 H         1 <0>         0.1373
     41 H15        -2.0597   -4.1822    3.6206 H         1 <0>         0.0575
     42 H16        -1.2320   -3.2005    4.8533 H         1 <0>         0.0563
     43 H17        -2.2308   -4.5894    5.3449 H         1 <0>         0.1023
@<TRIPOS>BOND
     1    1    2 1
     2    1   27 1
     3    1   28 1
     4    1   29 1
     5    2    3 2
     6    2    4 1
     7    4    5 1
     8    5   15 1
     9    5    6 2
    10    6    7 1
    11    6   19 1
    12    7    8 1
    13    8   13 ar
    14    8    9 ar
    15    9   10 ar
    16    9   30 1
    17   10   11 ar
    18   10   31 1
    19   11   12 ar
    20   11   32 1
    21   12   13 ar
    22   12   33 1
    23   13   14 1
    24   14   18 1
    25   14   15 1
    26   15   16 2
    27   16   17 1
    28   16   34 1
    29   17   18 2
    30   17   35 1
    31   18   36 1
    32   19   24 ar
    33   19   20 ar
    34   20   21 ar
    35   20   37 1
    36   21   22 ar
    37   21   38 1
    38   22   23 ar
    39   22   25 1
    40   23   24 ar
    41   23   39 1
    42   24   40 1
    43   25   26 1
    44   26   41 1
    45   26   42 1
    46   26   43 1
@<TRIPOS>MOLECULE
ZINC00591057
   51    53     0     0     0
SMALL
USER_CHARGES
N-[(2,5-dimethoxyphenyl)methyl]-N-(5-fluoro-2-phenoxy-phenyl)-acetamide
@<TRIPOS>ATOM
      1 C1         -0.2727    3.8455    1.9459 C.3       1 <0>        -0.1778
      2 C2         -1.1927    2.7170    2.3348 C.2       1 <0>         0.5223
      3 O1         -1.6016    2.6330    3.4736 O.2       1 <0>        -0.5238
      4 N1         -1.5611    1.8012    1.4172 N.am      1 <0>        -0.5683
      5 C3         -0.9779    1.8347    0.0737 C.3       1 <0>         0.1555
      6 C4          0.1996    0.8961    0.0137 C.ar      1 <0>        -0.1089
      7 C5          1.4825    1.3871    0.1602 C.ar      1 <0>        -0.1013
      8 C6          2.5664    0.5242    0.0993 C.ar      1 <0>         0.0947
      9 C7          2.3624   -0.8319   -0.1093 C.ar      1 <0>        -0.1599
     10 C8          1.0798   -1.3228   -0.2558 C.ar      1 <0>        -0.1671
     11 C9         -0.0044   -0.4597   -0.1944 C.ar      1 <0>         0.1117
     12 O2         -1.2672   -0.9430   -0.3387 O.3       1 <0>        -0.3080
     13 C10        -1.4033   -2.3497   -0.5501 C.3       1 <0>         0.0252
     14 O3          3.8292    1.0076    0.2436 O.3       1 <0>        -0.3160
     15 C11         4.8982    0.0621    0.1694 C.3       1 <0>         0.0271
     16 C12        -2.5019    0.8172    1.7481 C.ar      1 <0>         0.1781
     17 C13        -2.0834   -0.3943    2.2786 C.ar      1 <0>        -0.1134
     18 C14        -3.0146   -1.3646    2.6046 C.ar      1 <0>         0.1078
     19 C15        -4.3641   -1.1285    2.4022 C.ar      1 <0>        -0.1358
     20 C16        -4.7865    0.0768    1.8734 C.ar      1 <0>        -0.0935
     21 C17        -3.8601    1.0553    1.5505 C.ar      1 <0>         0.0818
     22 O4         -4.2757    2.2437    1.0363 O.3       1 <0>        -0.2494
     23 C18        -4.3343    2.3683   -0.3155 C.ar      1 <0>         0.1209
     24 C19        -4.0815    1.2708   -1.1262 C.ar      1 <0>        -0.1931
     25 C20        -4.1460    1.3992   -2.5001 C.ar      1 <0>        -0.0797
     26 C21        -4.4527    2.6221   -3.0678 C.ar      1 <0>        -0.1521
     27 C22        -4.6999    3.7185   -2.2623 C.ar      1 <0>        -0.0814
     28 C23        -4.6415    3.5945   -0.8878 C.ar      1 <0>        -0.1460
     29 F1         -2.6065   -2.5441    3.1217 F         1 <0>        -0.1331
     30 H1         -0.8574    4.6602    1.5188 H         1 <0>         0.0995
     31 H2          0.2575    4.2027    2.8287 H         1 <0>         0.0984
     32 H3          0.4472    3.4897    1.2088 H         1 <0>         0.0848
     33 H4         -0.6468    2.8480   -0.1535 H         1 <0>         0.1001
     34 H5         -1.7268    1.5252   -0.6553 H         1 <0>         0.1003
     35 H6          1.6414    2.4431    0.3219 H         1 <0>         0.1397
     36 H7          3.2066   -1.5039   -0.1574 H         1 <0>         0.1326
     37 H8          0.9210   -2.3786   -0.4185 H         1 <0>         0.1333
     38 H9         -2.4591   -2.6019   -0.6488 H         1 <0>         0.0994
     39 H10        -0.8754   -2.6330   -1.4607 H         1 <0>         0.0565
     40 H11        -0.9790   -2.8873    0.2979 H         1 <0>         0.0550
     41 H12         5.8493    0.5781    0.3001 H         1 <0>         0.1021
     42 H13         4.7786   -0.6840    0.9550 H         1 <0>         0.0550
     43 H14         4.8819   -0.4290   -0.8036 H         1 <0>         0.0553
     44 H15        -1.0314   -0.5800    2.4375 H         1 <0>         0.1373
     45 H16        -5.0881   -1.8880    2.6578 H         1 <0>         0.1468
     46 H17        -5.8397    0.2579    1.7167 H         1 <0>         0.1466
     47 H18        -3.8382    0.3163   -0.6834 H         1 <0>         0.1299
     48 H19        -3.9530    0.5445   -3.1315 H         1 <0>         0.1247
     49 H20        -4.4990    2.7212   -4.1423 H         1 <0>         0.1246
     50 H21        -4.9393    4.6726   -2.7083 H         1 <0>         0.1307
     51 H22        -4.8343    4.4512   -0.2592 H         1 <0>         0.1310
@<TRIPOS>BOND
     1    1    2 1
     2    1   30 1
     3    1   31 1
     4    1   32 1
     5    2    3 2
     6    2    4 am
     7    4    5 1
     8    4   16 1
     9    5    6 1
    10    5   33 1
    11    5   34 1
    12    6   11 ar
    13    6    7 ar
    14    7    8 ar
    15    7   35 1
    16    8    9 ar
    17    8   14 1
    18    9   10 ar
    19    9   36 1
    20   10   11 ar
    21   10   37 1
    22   11   12 1
    23   12   13 1
    24   13   38 1
    25   13   39 1
    26   13   40 1
    27   14   15 1
    28   15   41 1
    29   15   42 1
    30   15   43 1
    31   16   21 ar
    32   16   17 ar
    33   17   18 ar
    34   17   44 1
    35   18   19 ar
    36   18   29 1
    37   19   20 ar
    38   19   45 1
    39   20   21 ar
    40   20   46 1
    41   21   22 1
    42   22   23 1
    43   23   28 ar
    44   23   24 ar
    45   24   25 ar
    46   24   47 1
    47   25   26 ar
    48   25   48 1
    49   26   27 ar
    50   26   49 1
    51   27   28 ar
    52   27   50 1
    53   28   51 1
@<TRIPOS>MOLECULE
ZINC02526570
   50    52     0     0     0
SMALL
USER_CHARGES

@<TRIPOS>ATOM
      1 C1         -0.0723    1.6961   -0.2882 C.3       1 <0>        -0.1506
      2 C2         -0.0415    0.1677   -0.2271 C.3       1 <0>        -0.1379
      3 C3         -1.4734   -0.3705   -0.1959 C.3       1 <0>         0.1134
      4 N1         -1.4439   -1.8340   -0.1374 N.am      1 <0>        -0.6108
      5 C4         -1.4205   -2.5149    1.1595 C.3       1 <0>         0.1021
      6 C5         -2.8546   -2.7806    1.6219 C.3       1 <0>        -0.1455
      7 C6         -2.8302   -3.4918    2.9764 C.3       1 <0>        -0.1521
      8 C7         -1.4382   -2.5540   -1.2767 C.2       1 <0>         0.5098
      9 O1         -1.4575   -1.9902   -2.3504 O.2       1 <0>        -0.5199
     10 C8         -1.4078   -4.0595   -1.2166 C.3       1 <0>        -0.0689
     11 C9         -1.4073   -4.6182   -2.6161 C.2       1 <0>        -0.0122
     12 C10        -2.4959   -5.0328   -3.3228 C.2       1 <0>         0.1175
     13 N2         -2.0796   -5.4619   -4.5244 N.2       1 <0>        -0.4477
     14 C11        -0.7632   -5.3317   -4.5992 C.2       1 <0>         0.2308
     15 N3         -0.3156   -4.7991   -3.4180 N.pl3     1 <0>        -0.3401
     16 C12         1.0154   -4.5546   -3.2296 C.2       1 <0>         0.0787
     17 C13         1.9100   -4.8295   -4.2029 C.2       1 <0>        -0.0511
     18 C14         1.4818   -5.3727   -5.4264 C.2       1 <0>        -0.0861
     19 C15         0.1599   -5.6294   -5.6241 C.2       1 <0>         0.0160
     20 Cl1        -0.3875   -6.2978   -7.1298 Cl        1 <0>        -0.0059
     21 Cl2         3.5963   -4.5102   -3.9421 Cl        1 <0>        -0.0186
     22 C16        -3.9010   -5.0138   -2.8455 C.ar      1 <0>        -0.0095
     23 C17        -4.3866   -3.9112   -2.1455 C.ar      1 <0>        -0.0892
     24 C18        -5.6938   -3.8983   -1.7036 C.ar      1 <0>        -0.1086
     25 C19        -6.5224   -4.9785   -1.9547 C.ar      1 <0>        -0.0260
     26 C20        -6.0446   -6.0763   -2.6498 C.ar      1 <0>        -0.1090
     27 C21        -4.7406   -6.0962   -3.1007 C.ar      1 <0>        -0.0709
     28 Cl3        -8.1658   -4.9566   -1.3958 Cl        1 <0>        -0.0653
     29 H1          0.9478    2.0795   -0.3105 H         1 <0>         0.0582
     30 H2         -0.5994    2.0133   -1.1881 H         1 <0>         0.0573
     31 H3         -0.5873    2.0846    0.5904 H         1 <0>         0.0562
     32 H4          0.4735   -0.2208   -1.1058 H         1 <0>         0.0642
     33 H5          0.4856   -0.1494    0.6727 H         1 <0>         0.0624
     34 H6         -1.9884    0.0180    0.6828 H         1 <0>         0.0795
     35 H7         -2.0004   -0.0533   -1.0957 H         1 <0>         0.0854
     36 H8         -0.8885   -3.4614    1.0634 H         1 <0>         0.0796
     37 H9         -0.9135   -1.8858    1.8911 H         1 <0>         0.0855
     38 H10        -3.3866   -1.8341    1.7180 H         1 <0>         0.0696
     39 H11        -3.3616   -3.4098    0.8903 H         1 <0>         0.0662
     40 H12        -3.8518   -3.6811    3.3058 H         1 <0>         0.0610
     41 H13        -2.2982   -4.4383    2.8803 H         1 <0>         0.0571
     42 H14        -2.3232   -2.8627    3.7080 H         1 <0>         0.0574
     43 H15        -0.5073   -4.3842   -0.6954 H         1 <0>         0.1063
     44 H16        -2.2868   -4.4195   -0.6819 H         1 <0>         0.1260
     45 H17         1.3552   -4.1370   -2.2933 H         1 <0>         0.1738
     46 H18         2.1991   -5.5918   -6.2035 H         1 <0>         0.1654
     47 H19        -3.7408   -3.0681   -1.9488 H         1 <0>         0.1303
     48 H20        -6.0710   -3.0443   -1.1607 H         1 <0>         0.1371
     49 H21        -6.6948   -6.9168   -2.8429 H         1 <0>         0.1394
     50 H22        -4.3700   -6.9512   -3.6468 H         1 <0>         0.1394
@<TRIPOS>BOND
     1    1    2 1
     2    1   29 1
     3    1   30 1
     4    1   31 1
     5    2    3 1
     6    2   32 1
     7    2   33 1
     8    3    4 1
     9    3   34 1
    10    3   35 1
    11    4    5 1
    12    4    8 am
    13    5    6 1
    14    5   36 1
    15    5   37 1
    16    6    7 1
    17    6   38 1
    18    6   39 1
    19    7   40 1
    20    7   41 1
    21    7   42 1
    22    8    9 2
    23    8   10 1
    24   10   11 1
    25   10   43 1
    26   10   44 1
    27   11   15 1
    28   11   12 2
    29   12   13 1
    30   12   22 1
    31   13   14 2
    32   14   19 1
    33   14   15 1
    34   15   16 1
    35   16   17 2
    36   16   45 1
    37   17   18 1
    38   17   21 1
    39   18   19 2
    40   18   46 1
    41   19   20 1
    42   22   27 ar
    43   22   23 ar
    44   23   24 ar
    45   23   47 1
    46   24   25 ar
    47   24   48 1
    48   25   26 ar
    49   25   28 1
    50   26   27 ar
    51   26   49 1
    52   27   50 1
@<TRIPOS>MOLECULE
ZINC19632917
   35    37     0     0     0
SMALL
USER_CHARGES
7-chloro-N-methyl-4-oxido-5-phenyl-3H-1,4-benzodiazepin-4-ium-2-amine
@<TRIPOS>ATOM
      1 C1          0.3869    1.6257   -0.4688 C.3       1 <0>         0.0950
      2 N1         -0.4381    1.8111    0.7275 N.pl3     1 <0>        -0.7042
      3 C2         -0.6877    3.0703    1.1972 C.2       1 <0>         0.4378
      4 N2         -0.1880    4.0751    0.5725 N.2       1 <0>        -0.5908
      5 C3         -0.3144    5.3787    0.9381 C.ar      1 <0>         0.1969
      6 C4          0.8182    6.1971    0.8113 C.ar      1 <0>        -0.1083
      7 C5          0.7611    7.5284    1.1532 C.ar      1 <0>        -0.0648
      8 C6         -0.4211    8.0763    1.6280 C.ar      1 <0>        -0.0582
      9 C7         -1.5431    7.2893    1.7639 C.ar      1 <0>        -0.0451
     10 C8         -1.5051    5.9298    1.4246 C.ar      1 <0>        -0.1385
     11 C9         -2.7355    5.1437    1.6090 C.2       1 <0>         0.2524
     12 N3         -2.7652    3.9385    2.0629 N.pl3     1 <0>        -0.1798
     13 O1         -4.0124    3.2849    2.2127 O.3       1 <0>        -0.5210
     14 C10        -1.5427    3.2309    2.4234 C.3       1 <0>         0.0460
     15 C11        -4.0245    5.7803    1.2495 C.ar      1 <0>        -0.0872
     16 C12        -5.1583    5.5542    2.0290 C.ar      1 <0>        -0.0406
     17 C13        -6.3546    6.1540    1.6923 C.ar      1 <0>        -0.1353
     18 C14        -6.4331    6.9690    0.5772 C.ar      1 <0>        -0.0907
     19 C15        -5.3129    7.1929   -0.2030 C.ar      1 <0>        -0.1331
     20 C16        -4.1098    6.6032    0.1270 C.ar      1 <0>        -0.0779
     21 Cl1        -0.4868    9.7583    2.0526 Cl        1 <0>        -0.0571
     22 H1          0.4748    0.5519   -0.6907 H         1 <0>         0.0788
     23 H2          1.3877    2.0469   -0.2929 H         1 <0>         0.0662
     24 H3         -0.0824    2.1390   -1.3210 H         1 <0>         0.0623
     25 H4         -0.8567    0.9370    1.2478 H         1 <0>         0.4420
     26 H5          1.7426    5.7784    0.4417 H         1 <0>         0.1453
     27 H6          1.6395    8.1486    1.0520 H         1 <0>         0.1449
     28 H7         -2.4601    7.7233    2.1343 H         1 <0>         0.1431
     29 H8         -1.7945    2.2392    2.8273 H         1 <0>         0.1402
     30 H9         -0.9918    3.8066    3.1818 H         1 <0>         0.1292
     31 H10        -5.0994    4.9142    2.8970 H         1 <0>         0.1447
     32 H11        -7.2324    5.9831    2.2978 H         1 <0>         0.1283
     33 H12        -7.3726    7.4327    0.3150 H         1 <0>         0.1263
     34 H13        -5.3800    7.8307   -1.0720 H         1 <0>         0.1287
     35 H14        -3.2358    6.7790   -0.4827 H         1 <0>         0.1246
@<TRIPOS>BOND
     1    1    2 1
     2    1   22 1
     3    1   23 1
     4    1   24 1
     5    2    3 1
     6    2   25 1
     7    3   14 1
     8    3    4 2
     9    4    5 1
    10    5   10 ar
    11    5    6 ar
    12    6    7 ar
    13    6   26 1
    14    7    8 ar
    15    7   27 1
    16    8    9 ar
    17    8   21 1
    18    9   10 ar
    19    9   28 1
    20   10   11 1
    21   11   12 2
    22   11   15 1
    23   12   13 1
    24   12   14 1
    25   14   29 1
    26   14   30 1
    27   15   20 ar
    28   15   16 ar
    29   16   17 ar
    30   16   31 1
    31   17   18 ar
    32   17   32 1
    33   18   19 ar
    34   18   33 1
    35   19   20 ar
    36   19   34 1
    37   20   35 1
@<TRIPOS>MOLECULE
ZINC19632917
   36    38     0     0     0
SMALL
USER_CHARGES
7-chloro-N-methyl-4-oxido-5-phenyl-3H-1,4-benzodiazepin-4-ium-2-amine
@<TRIPOS>ATOM
      1 C1          0.3869    1.6257   -0.4688 C.3       1 <0>         0.0260
      2 N1         -0.4381    1.8111    0.7275 N.pl3     1 <0>        -0.6524
      3 C2         -0.6877    3.0703    1.1972 C.cat     1 <0>         0.4984
      4 N2         -0.1880    4.0751    0.5725 N.pl3     1 <0>        -0.5579
      5 C3         -0.3144    5.3787    0.9381 C.ar      1 <0>         0.1017
      6 C4          0.8182    6.1971    0.8113 C.ar      1 <0>        -0.0937
      7 C5          0.7611    7.5284    1.1532 C.ar      1 <0>        -0.0563
      8 C6         -0.4211    8.0763    1.6280 C.ar      1 <0>        -0.0154
      9 C7         -1.5431    7.2893    1.7639 C.ar      1 <0>        -0.0439
     10 C8         -1.5051    5.9298    1.4246 C.ar      1 <0>        -0.0688
     11 C9         -2.7355    5.1437    1.6090 C.2       1 <0>         0.2576
     12 N3         -2.7652    3.9385    2.0629 N.pl3     1 <0>        -0.1943
     13 O1         -4.0124    3.2849    2.2127 O.3       1 <0>        -0.4829
     14 C10        -1.5427    3.2309    2.4234 C.3       1 <0>         0.0643
     15 C11        -4.0245    5.7803    1.2495 C.ar      1 <0>        -0.1098
     16 C12        -5.1583    5.5542    2.0290 C.ar      1 <0>        -0.0323
     17 C13        -6.3546    6.1540    1.6923 C.ar      1 <0>        -0.1301
     18 C14        -6.4331    6.9690    0.5772 C.ar      1 <0>        -0.0738
     19 C15        -5.3129    7.1929   -0.2030 C.ar      1 <0>        -0.1292
     20 C16        -4.1098    6.6032    0.1270 C.ar      1 <0>        -0.0779
     21 Cl1        -0.4868    9.7583    2.0526 Cl        1 <0>        -0.0128
     22 H1          0.4748    0.5519   -0.6907 H         1 <0>         0.1302
     23 H2          1.3877    2.0469   -0.2929 H         1 <0>         0.0959
     24 H3         -0.0824    2.1390   -1.3210 H         1 <0>         0.0928
     25 H4         -0.8567    0.9370    1.2478 H         1 <0>         0.4846
     26 H5          1.7426    5.7784    0.4417 H         1 <0>         0.1609
     27 H6          1.6395    8.1486    1.0520 H         1 <0>         0.1658
     28 H7         -2.4601    7.7233    2.1343 H         1 <0>         0.1657
     29 H8         -1.7945    2.2392    2.8273 H         1 <0>         0.1778
     30 H9         -0.9918    3.8066    3.1818 H         1 <0>         0.1627
     31 H10        -5.0994    4.9142    2.8970 H         1 <0>         0.1478
     32 H11        -7.2324    5.9831    2.2978 H         1 <0>         0.1357
     33 H12        -7.3726    7.4327    0.3150 H         1 <0>         0.1340
     34 H13        -5.3800    7.8307   -1.0720 H         1 <0>         0.1349
     35 H14        -3.2358    6.7790   -0.4827 H         1 <0>         0.1240
     36 H15         0.4010    3.9161   -0.3428 H         1 <0>         0.4708
@<TRIPOS>BOND
     1    1    2 1
     2    1   22 1
     3    1   23 1
     4    1   24 1
     5    2    3 2
     6    2   25 1
     7    3   14 1
     8    3    4 1
     9    4    5 1
    10    4   36 1
    11    5   10 ar
    12    5    6 ar
    13    6    7 ar
    14    6   26 1
    15    7    8 ar
    16    7   27 1
    17    8    9 ar
    18    8   21 1
    19    9   10 ar
    20    9   28 1
    21   10   11 1
    22   11   12 2
    23   11   15 1
    24   12   13 1
    25   12   14 1
    26   14   29 1
    27   14   30 1
    28   15   20 ar
    29   15   16 ar
    30   16   17 ar
    31   16   31 1
    32   17   18 ar
    33   17   32 1
    34   18   19 ar
    35   18   33 1
    36   19   20 ar
    37   19   34 1
    38   20   35 1
@<TRIPOS>MOLECULE
ZINC00602486
   53    56     0     0     0
SMALL
USER_CHARGES

@<TRIPOS>ATOM
      1 C1         -0.7339    1.9542    1.2689 C.3       1 <0>        -0.1825
      2 C2         -0.0178    1.4608    0.0101 C.3       1 <0>         0.1000
      3 N1          0.0021   -0.0041    0.0020 N.am      1 <0>        -0.6035
      4 C3          1.1167   -0.7249    0.6219 C.3       1 <0>         0.1567
      5 C4          0.8003   -0.9884    2.0716 C.ar      1 <0>        -0.1099
      6 C5          1.1673   -0.0698    3.0371 C.ar      1 <0>        -0.1055
      7 C6          0.8728   -0.3092    4.3664 C.ar      1 <0>        -0.1247
      8 C7          0.2202   -1.4719    4.7311 C.ar      1 <0>        -0.1139
      9 C8         -0.1418   -2.3932    3.7662 C.ar      1 <0>        -0.1218
     10 C9          0.1481   -2.1513    2.4364 C.ar      1 <0>        -0.0939
     11 C10        -1.0050   -0.6885   -0.5757 C.2       1 <0>         0.5057
     12 O1         -0.9886   -1.9012   -0.5823 O.2       1 <0>        -0.5195
     13 C11        -2.1516    0.0530   -1.2133 C.3       1 <0>         0.1109
     14 N2         -3.1082   -0.9090   -1.7662 N.am      1 <0>        -0.5051
     15 C12        -3.0863   -1.4219   -3.0500 C.ar      1 <0>         0.3613
     16 C13        -4.1733   -2.3027   -3.1519 C.ar      1 <0>        -0.0131
     17 C14        -4.3839   -2.9649   -4.3505 C.ar      1 <0>         0.1767
     18 N3         -3.5490   -2.7475   -5.3553 N.ar      1 <0>        -0.4951
     19 C15        -2.5266   -1.9127   -5.2263 C.ar      1 <0>         0.3757
     20 N4         -2.2907   -1.2597   -4.0957 N.ar      1 <0>        -0.5000
     21 C16        -1.6198   -1.7024   -6.3808 C.ar      1 <0>        -0.0464
     22 C17        -0.5415   -0.8259   -6.2728 C.ar      1 <0>        -0.0706
     23 C18         0.3021   -0.6381   -7.3487 C.ar      1 <0>        -0.1305
     24 C19         0.0725   -1.3090   -8.5364 C.ar      1 <0>        -0.0973
     25 C20        -0.9992   -2.1761   -8.6510 C.ar      1 <0>        -0.1299
     26 C21        -1.8461   -2.3761   -7.5798 C.ar      1 <0>        -0.0685
     27 N5         -4.8225   -2.2838   -1.9227 N.am      1 <0>        -0.5264
     28 C22        -4.1593   -1.4373   -1.1108 C.2       1 <0>         0.6959
     29 O2         -4.4637   -1.1885    0.0406 O.2       1 <0>        -0.5301
     30 C23        -6.0199   -3.0510   -1.5712 C.3       1 <0>         0.0943
     31 H1         -0.7487    3.0441    1.2749 H         1 <0>         0.0711
     32 H2         -1.7565    1.5769    1.2766 H         1 <0>         0.0573
     33 H3         -0.2067    1.5931    2.1519 H         1 <0>         0.0699
     34 H4          1.0048    1.8381    0.0023 H         1 <0>         0.0876
     35 H5         -0.5450    1.8219   -0.8730 H         1 <0>         0.0800
     36 H6          1.2687   -1.6725    0.1052 H         1 <0>         0.0929
     37 H7          2.0227   -0.1231    0.5513 H         1 <0>         0.0897
     38 H8          1.6808    0.8367    2.7526 H         1 <0>         0.1211
     39 H9          1.1559    0.4104    5.1203 H         1 <0>         0.1222
     40 H10        -0.0066   -1.6607    5.7700 H         1 <0>         0.1215
     41 H11        -0.6513   -3.3018    4.0512 H         1 <0>         0.1212
     42 H12        -0.1347   -2.8711    1.6825 H         1 <0>         0.1246
     43 H13        -2.6479    0.6689   -0.4634 H         1 <0>         0.1281
     44 H14        -1.7728    0.6893   -2.0132 H         1 <0>         0.1282
     45 H15        -5.2140   -3.6465   -4.4634 H         1 <0>         0.1804
     46 H16        -0.3640   -0.2979   -5.3475 H         1 <0>         0.1338
     47 H17         1.1404    0.0377   -7.2649 H         1 <0>         0.1277
     48 H18         0.7326   -1.1556   -9.3773 H         1 <0>         0.1258
     49 H19        -1.1734   -2.6979   -9.5804 H         1 <0>         0.1292
     50 H20        -2.6823   -3.0535   -7.6703 H         1 <0>         0.1385
     51 H21        -6.3011   -2.8337   -0.5407 H         1 <0>         0.0993
     52 H22        -6.8373   -2.7742   -2.2370 H         1 <0>         0.0806
     53 H23        -5.8122   -4.1161   -1.6742 H         1 <0>         0.0801
@<TRIPOS>BOND
     1    1    2 1
     2    1   31 1
     3    1   32 1
     4    1   33 1
     5    2    3 1
     6    2   34 1
     7    2   35 1
     8    3    4 1
     9    3   11 am
    10    4    5 1
    11    4   36 1
    12    4   37 1
    13    5   10 ar
    14    5    6 ar
    15    6    7 ar
    16    6   38 1
    17    7    8 ar
    18    7   39 1
    19    8    9 ar
    20    8   40 1
    21    9   10 ar
    22    9   41 1
    23   10   42 1
    24   11   12 2
    25   11   13 1
    26   13   14 1
    27   13   43 1
    28   13   44 1
    29   14   28 am
    30   14   15 1
    31   15   20 ar
    32   15   16 ar
    33   16   17 ar
    34   16   27 1
    35   17   18 ar
    36   17   45 1
    37   18   19 ar
    38   19   20 ar
    39   19   21 1
    40   21   26 ar
    41   21   22 ar
    42   22   23 ar
    43   22   46 1
    44   23   24 ar
    45   23   47 1
    46   24   25 ar
    47   24   48 1
    48   25   26 ar
    49   25   49 1
    50   26   50 1
    51   27   28 am
    52   27   30 1
    53   28   29 2
    54   30   51 1
    55   30   52 1
    56   30   53 1
@<TRIPOS>MOLECULE
ZINC00603726
   47    50     0     0     0
SMALL
USER_CHARGES
2-(chloro-methyl-oxo-phenyl-BLAHyl)-N,N-dimethyl-acetamide
@<TRIPOS>ATOM
      1 C1          0.0886    1.9227   -0.1423 C.3       1 <0>         0.0674
      2 N1         -0.6372    2.0628    1.1225 N.pl3     1 <0>        -0.4360
      3 C2         -2.0056    2.1888    1.2364 C.ar      1 <0>         0.1346
      4 C3         -3.0315    2.2083    0.2947 C.ar      1 <0>        -0.1163
      5 C4         -4.3398    2.3428    0.7073 C.ar      1 <0>         0.0006
      6 C5         -4.6473    2.4545    2.0572 C.ar      1 <0>        -0.1288
      7 C6         -3.6557    2.4325    2.9970 C.ar      1 <0>        -0.0484
      8 C7         -2.3249    2.2972    2.6008 C.ar      1 <0>        -0.0849
      9 C8         -1.0505    2.2380    3.3299 C.2       1 <0>        -0.1146
     10 C9         -0.0500    2.0935    2.3688 C.2       1 <0>         0.0621
     11 C10         1.2943    2.0094    2.8006 C.2       1 <0>         0.5341
     12 O1          2.1959    1.8823    1.9879 O.2       1 <0>        -0.5219
     13 N2          1.5697    2.0707    4.1189 N.am      1 <0>        -0.3666
     14 N3          0.5465    2.2158    5.0604 N.2       1 <0>        -0.1699
     15 C11        -0.7031    2.2963    4.6959 C.2       1 <0>         0.1532
     16 C12        -1.7803    2.4529    5.7381 C.3       1 <0>        -0.0776
     17 C13        -1.1526    2.4887    7.1077 C.2       1 <0>         0.5043
     18 O2          0.0508    2.3962    7.2259 O.2       1 <0>        -0.4893
     19 N4         -1.9287    2.6235    8.2013 N.am      1 <0>        -0.6261
     20 C14        -1.3186    2.6583    9.5328 C.3       1 <0>         0.0865
     21 C15        -3.3825    2.7352    8.0586 C.3       1 <0>         0.0721
     22 C16         2.8977    1.9874    4.5507 C.ar      1 <0>         0.1485
     23 C17         3.3942    2.9149    5.4579 C.ar      1 <0>        -0.0922
     24 C18         4.7040    2.8264    5.8866 C.ar      1 <0>        -0.1111
     25 C19         5.5244    1.8227    5.4050 C.ar      1 <0>        -0.1136
     26 C20         5.0350    0.9012    4.4974 C.ar      1 <0>        -0.1099
     27 C21         3.7246    0.9805    4.0690 C.ar      1 <0>        -0.0970
     28 Cl1        -5.6145    2.3736   -0.4708 Cl        1 <0>        -0.0542
     29 H1          0.1844    0.8658   -0.3911 H         1 <0>         0.0812
     30 H2          1.0804    2.3639   -0.0429 H         1 <0>         0.1019
     31 H3         -0.4588    2.4341   -0.9340 H         1 <0>         0.0898
     32 H4         -2.8021    2.1219   -0.7572 H         1 <0>         0.1393
     33 H5         -5.6769    2.5589    2.3661 H         1 <0>         0.1434
     34 H6         -3.9018    2.5194    4.0450 H         1 <0>         0.1396
     35 H7         -2.3232    3.3817    5.5629 H         1 <0>         0.1231
     36 H8         -2.4704    1.6115    5.6766 H         1 <0>         0.1229
     37 H9         -1.0823    3.6889    9.7973 H         1 <0>         0.0547
     38 H10        -2.0156    2.2465   10.2627 H         1 <0>         0.0694
     39 H11        -0.4040    2.0653    9.5290 H         1 <0>         0.0777
     40 H12        -3.6485    2.6895    7.0026 H         1 <0>         0.0781
     41 H13        -3.8639    1.9145    8.5904 H         1 <0>         0.0649
     42 H14        -3.7167    3.6848    8.4767 H         1 <0>         0.0648
     43 H15         2.7553    3.7019    5.8308 H         1 <0>         0.1303
     44 H16         5.0894    3.5448    6.5950 H         1 <0>         0.1305
     45 H17         6.5496    1.7582    5.7386 H         1 <0>         0.1278
     46 H18         5.6783    0.1183    4.1235 H         1 <0>         0.1302
     47 H19         3.3429    0.2603    3.3604 H         1 <0>         0.1256
@<TRIPOS>BOND
     1    1    2 1
     2    1   29 1
     3    1   30 1
     4    1   31 1
     5    2   10 1
     6    2    3 1
     7    3    8 ar
     8    3    4 ar
     9    4    5 ar
    10    4   32 1
    11    5    6 ar
    12    5   28 1
    13    6    7 ar
    14    6   33 1
    15    7    8 ar
    16    7   34 1
    17    8    9 1
    18    9   15 1
    19    9   10 2
    20   10   11 1
    21   11   12 2
    22   11   13 am
    23   13   14 1
    24   13   22 1
    25   14   15 2
    26   15   16 1
    27   16   17 1
    28   16   35 1
    29   16   36 1
    30   17   18 2
    31   17   19 am
    32   19   20 1
    33   19   21 1
    34   20   37 1
    35   20   38 1
    36   20   39 1
    37   21   40 1
    38   21   41 1
    39   21   42 1
    40   22   27 ar
    41   22   23 ar
    42   23   24 ar
    43   23   43 1
    44   24   25 ar
    45   24   44 1
    46   25   26 ar
    47   25   45 1
    48   26   27 ar
    49   26   46 1
    50   27   47 1
@<TRIPOS>MOLECULE
ZINC08306504
   41    43     0     0     0
SMALL
USER_CHARGES
2-oxo-2-(2-phenyl-1H-indol-3-yl)-N-propyl-acetamide
@<TRIPOS>ATOM
      1 C1          0.9787    3.4884    7.5990 C.3       1 <0>        -0.1503
      2 C2          1.0367    4.0441    6.1746 C.3       1 <0>        -0.1372
      3 C3          2.1108    3.2989    5.3798 C.3       1 <0>         0.1139
      4 N1          2.1663    3.8310    4.0159 N.am      1 <0>        -0.7091
      5 C4          3.0454    3.3229    3.1296 C.2       1 <0>         0.4759
      6 O1          3.7912    2.4243    3.4614 O.2       1 <0>        -0.4949
      7 C5          3.1019    3.8642    1.7420 C.2       1 <0>         0.4450
      8 O2          2.4232    4.8263    1.4364 O.2       1 <0>        -0.4123
      9 C6          3.9447    3.2591    0.7805 C.2       1 <0>        -0.2418
     10 C7          5.3156    3.6668    0.4216 C.ar      1 <0>        -0.0567
     11 C8          6.1627    4.6822    0.8600 C.ar      1 <0>        -0.0791
     12 C9          7.4190    4.8093    0.3078 C.ar      1 <0>        -0.1295
     13 C10         7.8406    3.9310   -0.6792 C.ar      1 <0>        -0.0980
     14 C11         7.0126    2.9217   -1.1217 C.ar      1 <0>        -0.1202
     15 C12         5.7404    2.7768   -0.5774 C.ar      1 <0>         0.0970
     16 N2          4.7157    1.8815   -0.8175 N.pl3     1 <0>        -0.5693
     17 H1          4.7524    1.1606   -1.4655 H         1 <0>         0.4216
     18 C13         3.6477    2.1522   -0.0192 C.2       1 <0>         0.1935
     19 C14         2.3785    1.4022   -0.0048 C.ar      1 <0>        -0.0552
     20 C15         1.1589    2.0855    0.0135 C.ar      1 <0>        -0.0951
     21 C16        -0.0240    1.3771    0.0269 C.ar      1 <0>        -0.1143
     22 C17        -0.0061   -0.0068    0.0229 C.ar      1 <0>        -0.1033
     23 C18         1.1974   -0.6903    0.0058 C.ar      1 <0>        -0.1158
     24 C19         2.3885    0.0043   -0.0083 C.ar      1 <0>        -0.0951
     25 H2          1.9468    3.6234    8.0813 H         1 <0>         0.0589
     26 H3          0.2134    4.0193    8.1652 H         1 <0>         0.0621
     27 H4          0.7345    2.4266    7.5651 H         1 <0>         0.0586
     28 H5          1.2808    5.1058    6.2085 H         1 <0>         0.0712
     29 H6          0.0686    3.9091    5.6923 H         1 <0>         0.0707
     30 H7          1.8667    2.2371    5.3459 H         1 <0>         0.0727
     31 H8          3.0789    3.4339    5.8621 H         1 <0>         0.0732
     32 H9          1.5704    4.5489    3.7508 H         1 <0>         0.4093
     33 H10         5.8364    5.3667    1.6291 H         1 <0>         0.1218
     34 H11         8.0779    5.5956    0.6453 H         1 <0>         0.1288
     35 H12         8.8270    4.0390   -1.1055 H         1 <0>         0.1308
     36 H13         7.3515    2.2433   -1.8907 H         1 <0>         0.1254
     37 H14         1.1434    3.1654    0.0163 H         1 <0>         0.1297
     38 H15        -0.9670    1.9035    0.0361 H         1 <0>         0.1314
     39 H16        -0.9358   -0.5563    0.0335 H         1 <0>         0.1291
     40 H17         1.2035   -1.7702    0.0031 H         1 <0>         0.1306
     41 H18         3.3268   -0.5303   -0.0223 H         1 <0>         0.1261
@<TRIPOS>BOND
     1    1    2 1
     2    1   25 1
     3    1   26 1
     4    1   27 1
     5    2    3 1
     6    2   28 1
     7    2   29 1
     8    3    4 1
     9    3   30 1
    10    3   31 1
    11    4    5 am
    12    4   32 1
    13    5    6 2
    14    5    7 1
    15    7    8 2
    16    7    9 1
    17    9   18 2
    18    9   10 1
    19   10   15 ar
    20   10   11 ar
    21   11   12 ar
    22   11   33 1
    23   12   13 ar
    24   12   34 1
    25   13   14 ar
    26   13   35 1
    27   14   15 ar
    28   14   36 1
    29   15   16 1
    30   16   17 1
    31   16   18 1
    32   18   19 1
    33   19   24 ar
    34   19   20 ar
    35   20   21 ar
    36   20   37 1
    37   21   22 ar
    38   21   38 1
    39   22   23 ar
    40   22   39 1
    41   23   24 ar
    42   23   40 1
    43   24   41 1
@<TRIPOS>MOLECULE
ZINC00599598
   50    52     0     0     0
SMALL
USER_CHARGES

@<TRIPOS>ATOM
      1 C1         -0.2189    1.3160   -0.0796 C.3       1 <0>        -0.1520
      2 C2         -0.1386   -0.2117   -0.0522 C.3       1 <0>        -0.1454
      3 C3          0.5895   -0.7066   -1.3035 C.3       1 <0>         0.1026
      4 N1          0.6664   -2.1693   -1.2773 N.am      1 <0>        -0.6117
      5 C4         -0.4018   -2.9700   -1.8807 C.3       1 <0>         0.1136
      6 C5         -0.0724   -3.2344   -3.3512 C.3       1 <0>        -0.1379
      7 C6         -1.1880   -4.0706   -3.9814 C.3       1 <0>        -0.1504
      8 C7          1.7200   -2.7785   -0.6980 C.2       1 <0>         0.5101
      9 O1          1.7837   -3.9894   -0.6763 O.2       1 <0>        -0.5202
     10 C8          2.8188   -1.9549   -0.0773 C.3       1 <0>        -0.0675
     11 C9          3.8694   -2.8701    0.4968 C.2       1 <0>        -0.0225
     12 C10         3.9559   -3.2933    1.7889 C.2       1 <0>         0.1155
     13 N2          5.0275   -4.0940    1.8991 N.2       1 <0>        -0.4664
     14 C11         5.6205   -4.1901    0.7181 C.2       1 <0>         0.2309
     15 N3          4.9116   -3.4368   -0.1819 N.pl3     1 <0>        -0.3444
     16 C12         5.3073   -3.3651   -1.4872 C.2       1 <0>         0.0719
     17 C13         6.3989   -4.0367   -1.9127 C.2       1 <0>        -0.0554
     18 C14         7.1436   -4.8203   -1.0145 C.2       1 <0>        -0.0957
     19 C15         6.7656   -4.8927    0.2900 C.2       1 <0>        -0.0581
     20 Cl1         6.8840   -3.9321   -3.5763 Cl        1 <0>        -0.0316
     21 C16         3.0252   -2.9307    2.8864 C.ar      1 <0>        -0.0076
     22 C17         1.6507   -2.9079    2.6584 C.ar      1 <0>        -0.0903
     23 C18         0.7893   -2.5700    3.6822 C.ar      1 <0>        -0.1086
     24 C19         1.2886   -2.2537    4.9340 C.ar      1 <0>        -0.0273
     25 C20         2.6534   -2.2750    5.1655 C.ar      1 <0>        -0.1092
     26 C21         3.5225   -2.6176    4.1498 C.ar      1 <0>        -0.0726
     27 Cl2         0.1999   -1.8284    6.2176 Cl        1 <0>        -0.0662
     28 H1          0.7881    1.7324   -0.1026 H         1 <0>         0.0571
     29 H2         -0.7645    1.6353   -0.9675 H         1 <0>         0.0573
     30 H3         -0.7376    1.6686    0.8119 H         1 <0>         0.0609
     31 H4          0.4070   -0.5309    0.8358 H         1 <0>         0.0662
     32 H5         -1.1456   -0.6281   -0.0292 H         1 <0>         0.0694
     33 H6          0.0439   -0.3873   -2.1915 H         1 <0>         0.0850
     34 H7          1.5966   -0.2901   -1.3266 H         1 <0>         0.0793
     35 H8         -0.4879   -3.9189   -1.3513 H         1 <0>         0.0851
     36 H9         -1.3452   -2.4284   -1.8114 H         1 <0>         0.0792
     37 H10         0.0137   -2.2855   -3.8806 H         1 <0>         0.0623
     38 H11         0.8710   -3.7760   -3.4205 H         1 <0>         0.0641
     39 H12        -0.9533   -4.2590   -5.0290 H         1 <0>         0.0581
     40 H13        -1.2741   -5.0195   -3.4520 H         1 <0>         0.0572
     41 H14        -2.1314   -3.5290   -3.9121 H         1 <0>         0.0561
     42 H15         3.2690   -1.3172   -0.8382 H         1 <0>         0.1040
     43 H16         2.4036   -1.3348    0.7172 H         1 <0>         0.1236
     44 H17         4.7418   -2.7660   -2.1855 H         1 <0>         0.1668
     45 H18         8.0158   -5.3572   -1.3572 H         1 <0>         0.1559
     46 H19         7.3297   -5.4931    0.9884 H         1 <0>         0.1646
     47 H20         1.2603   -3.1538    1.6819 H         1 <0>         0.1300
     48 H21        -0.2762   -2.5520    3.5064 H         1 <0>         0.1366
     49 H22         3.0382   -2.0274    6.1438 H         1 <0>         0.1389
     50 H23         4.5867   -2.6386    4.3326 H         1 <0>         0.1387
@<TRIPOS>BOND
     1    1    2 1
     2    1   28 1
     3    1   29 1
     4    1   30 1
     5    2    3 1
     6    2   31 1
     7    2   32 1
     8    3    4 1
     9    3   33 1
    10    3   34 1
    11    4    5 1
    12    4    8 am
    13    5    6 1
    14    5   35 1
    15    5   36 1
    16    6    7 1
    17    6   37 1
    18    6   38 1
    19    7   39 1
    20    7   40 1
    21    7   41 1
    22    8    9 2
    23    8   10 1
    24   10   11 1
    25   10   42 1
    26   10   43 1
    27   11   15 1
    28   11   12 2
    29   12   13 1
    30   12   21 1
    31   13   14 2
    32   14   19 1
    33   14   15 1
    34   15   16 1
    35   16   17 2
    36   16   44 1
    37   17   18 1
    38   17   20 1
    39   18   19 2
    40   18   45 1
    41   19   46 1
    42   21   26 ar
    43   21   22 ar
    44   22   23 ar
    45   22   47 1
    46   23   24 ar
    47   23   48 1
    48   24   25 ar
    49   24   27 1
    50   25   26 ar
    51   25   49 1
    52   26   50 1
@<TRIPOS>MOLECULE
ZINC02879523
   44    46     0     0     0
SMALL
USER_CHARGES

@<TRIPOS>ATOM
      1 C1          2.0300    1.5411   -1.1994 C.3       1 <0>        -0.1693
      2 C2          1.0139    1.1121   -0.1391 C.3       1 <0>         0.1078
      3 N1          1.7221    0.6297    1.0491 N.am      1 <0>        -0.5987
      4 C3          2.0774    1.5642    2.1199 C.3       1 <0>         0.1003
      5 C4          0.8908    1.7230    3.0727 C.3       1 <0>        -0.1766
      6 C5          2.0470   -0.6739    1.1571 C.2       1 <0>         0.4998
      7 O1          1.8361   -1.4307    0.2315 O.2       1 <0>        -0.5121
      8 C6          2.6651   -1.1864    2.4129 C.2       1 <0>         0.4245
      9 O2          1.9594   -1.5224    3.3449 O.2       1 <0>        -0.4358
     10 C7          4.0723   -1.2820    2.5207 C.2       1 <0>        -0.2685
     11 C8          5.0620   -1.0280    1.4576 C.ar      1 <0>        -0.0601
     12 C9          4.9615   -0.6470    0.1213 C.ar      1 <0>        -0.0811
     13 C10         6.1052   -0.4876   -0.6310 C.ar      1 <0>        -0.1237
     14 C11         7.3514   -0.7052   -0.0628 C.ar      1 <0>        -0.0987
     15 C12         7.4650   -1.0824    1.2581 C.ar      1 <0>        -0.1168
     16 C13         6.3225   -1.2483    2.0348 C.ar      1 <0>         0.0852
     17 N2          6.1321   -1.6112    3.3543 N.pl3     1 <0>        -0.5634
     18 H1          6.8448   -1.8196    3.9784 H         1 <0>         0.4238
     19 C14         4.8059   -1.6304    3.6580 C.2       1 <0>         0.2450
     20 C15         4.2345   -1.9677    4.9746 C.ar      1 <0>        -0.0686
     21 C16         3.2096   -1.1865    5.5165 C.ar      1 <0>        -0.0440
     22 C17         2.6798   -1.5085    6.7482 C.ar      1 <0>        -0.1220
     23 C18         3.1606   -2.6016    7.4479 C.ar      1 <0>        -0.0954
     24 C19         4.1751   -3.3797    6.9178 C.ar      1 <0>        -0.1251
     25 C20         4.7109   -3.0737    5.6847 C.ar      1 <0>        -0.0940
     26 H2          2.6547    0.6897   -1.4695 H         1 <0>         0.0608
     27 H3          1.5030    1.9001   -2.0835 H         1 <0>         0.0693
     28 H4          2.6562    2.3392   -0.8007 H         1 <0>         0.0576
     29 H5          0.3892    1.9636    0.1310 H         1 <0>         0.0816
     30 H6          0.3876    0.3140   -0.5378 H         1 <0>         0.0855
     31 H7          2.9356    1.1777    2.6697 H         1 <0>         0.0774
     32 H8          2.3288    2.5330    1.6882 H         1 <0>         0.0868
     33 H9          1.1551    2.4183    3.8694 H         1 <0>         0.0702
     34 H10         0.0326    2.1096    2.5230 H         1 <0>         0.0621
     35 H11         0.6394    0.7543    3.5045 H         1 <0>         0.0653
     36 H12         3.9918   -0.4778   -0.3231 H         1 <0>         0.1279
     37 H13         6.0306   -0.1923   -1.6672 H         1 <0>         0.1290
     38 H14         8.2415   -0.5783   -0.6611 H         1 <0>         0.1317
     39 H15         8.4406   -1.2495    1.6901 H         1 <0>         0.1260
     40 H16         2.8339   -0.3328    4.9720 H         1 <0>         0.1266
     41 H17         1.8880   -0.9060    7.1682 H         1 <0>         0.1301
     42 H18         2.7422   -2.8485    8.4125 H         1 <0>         0.1277
     43 H19         4.5454   -4.2310    7.4698 H         1 <0>         0.1290
     44 H20         5.4994   -3.6844    5.2703 H         1 <0>         0.1229
@<TRIPOS>BOND
     1    1    2 1
     2    1   26 1
     3    1   27 1
     4    1   28 1
     5    2    3 1
     6    2   29 1
     7    2   30 1
     8    3    4 1
     9    3    6 am
    10    4    5 1
    11    4   31 1
    12    4   32 1
    13    5   33 1
    14    5   34 1
    15    5   35 1
    16    6    7 2
    17    6    8 1
    18    8    9 2
    19    8   10 1
    20   10   19 2
    21   10   11 1
    22   11   16 ar
    23   11   12 ar
    24   12   13 ar
    25   12   36 1
    26   13   14 ar
    27   13   37 1
    28   14   15 ar
    29   14   38 1
    30   15   16 ar
    31   15   39 1
    32   16   17 1
    33   17   18 1
    34   17   19 1
    35   19   20 1
    36   20   25 ar
    37   20   21 ar
    38   21   22 ar
    39   21   40 1
    40   22   23 ar
    41   22   41 1
    42   23   24 ar
    43   23   42 1
    44   24   25 ar
    45   24   43 1
    46   25   44 1
@<TRIPOS>MOLECULE
ZINC02873162
   42    45     0     0     0
SMALL
USER_CHARGES

@<TRIPOS>ATOM
      1 C1         -0.0382    1.3678   -0.0032 C.ar      1 <0>        -0.1033
      2 C2          1.1438    2.0880   -0.0076 C.ar      1 <0>        -0.1159
      3 C3          2.3558    1.4306   -0.0185 C.ar      1 <0>        -0.0951
      4 C4          2.3888    0.0330   -0.0250 C.ar      1 <0>        -0.0550
      5 C5          1.1908   -0.6876   -0.0205 C.ar      1 <0>        -0.0946
      6 C6         -0.0135   -0.0160   -0.0096 C.ar      1 <0>        -0.1145
      7 C7          3.6805   -0.6775   -0.0372 C.2       1 <0>         0.1928
      8 C8          3.9996   -1.7663   -0.8531 C.2       1 <0>        -0.2398
      9 C9          5.3870   -2.1362   -0.5174 C.ar      1 <0>        -0.0568
     10 C10         6.2574   -3.1219   -0.9774 C.ar      1 <0>        -0.0789
     11 C11         7.5271   -3.2121   -0.4492 C.ar      1 <0>        -0.1295
     12 C12         7.9387   -2.3267    0.5358 C.ar      1 <0>        -0.0981
     13 C13         7.0875   -1.3468    0.9998 C.ar      1 <0>        -0.1201
     14 C14         5.8016   -1.2391    0.4795 C.ar      1 <0>         0.0971
     15 N1          4.7555   -0.3747    0.7400 N.pl3     1 <0>        -0.5694
     16 H1          4.7830    0.3464    1.3882 H         1 <0>         0.4216
     17 C15         3.1611   -2.3879   -1.8079 C.2       1 <0>         0.4464
     18 O1          2.5157   -3.3723   -1.5013 O.2       1 <0>        -0.4089
     19 C16         3.0686   -1.8366   -3.1896 C.2       1 <0>         0.4904
     20 O2          3.7841   -0.9148   -3.5246 O.2       1 <0>        -0.4987
     21 N2          2.1906   -2.3615   -4.0672 N.am      1 <0>        -0.5979
     22 C17         1.2642   -3.4699   -3.7934 C.3       1 <0>         0.1012
     23 C18         0.4784   -3.7420   -5.0934 C.3       1 <0>        -0.1353
     24 C19         1.4031   -3.1488   -6.1891 C.3       1 <0>        -0.1340
     25 C20         1.9955   -1.9151   -5.4586 C.3       1 <0>         0.1004
     26 H2         -0.9844    1.8883    0.0098 H         1 <0>         0.1291
     27 H3          1.1167    3.1677   -0.0029 H         1 <0>         0.1307
     28 H4          3.2773    1.9939   -0.0223 H         1 <0>         0.1262
     29 H5          1.2085   -1.7674   -0.0259 H         1 <0>         0.1293
     30 H6         -0.9399   -0.5712   -0.0058 H         1 <0>         0.1311
     31 H7          5.9385   -3.8125   -1.7441 H         1 <0>         0.1213
     32 H8          8.2042   -3.9753   -0.8034 H         1 <0>         0.1287
     33 H9          8.9356   -2.4059    0.9435 H         1 <0>         0.1308
     34 H10         7.4186   -0.6628    1.7671 H         1 <0>         0.1255
     35 H11         1.8250   -4.3593   -3.5062 H         1 <0>         0.0797
     36 H12         0.5760   -3.1894   -2.9960 H         1 <0>         0.0744
     37 H13         0.3402   -4.8127   -5.2436 H         1 <0>         0.0863
     38 H14        -0.4819   -3.2264   -5.0786 H         1 <0>         0.0786
     39 H15         2.1850   -3.8562   -6.4653 H         1 <0>         0.0788
     40 H16         0.8275   -2.8440   -7.0631 H         1 <0>         0.0884
     41 H17         1.2974   -1.0788   -5.4944 H         1 <0>         0.0741
     42 H18         2.9496   -1.6332   -5.9039 H         1 <0>         0.0829
@<TRIPOS>BOND
     1    1    6 ar
     2    1    2 ar
     3    1   26 1
     4    2    3 ar
     5    2   27 1
     6    3    4 ar
     7    3   28 1
     8    4    5 ar
     9    4    7 1
    10    5    6 ar
    11    5   29 1
    12    6   30 1
    13    7   15 1
    14    7    8 2
    15    8    9 1
    16    8   17 1
    17    9   14 ar
    18    9   10 ar
    19   10   11 ar
    20   10   31 1
    21   11   12 ar
    22   11   32 1
    23   12   13 ar
    24   12   33 1
    25   13   14 ar
    26   13   34 1
    27   14   15 1
    28   15   16 1
    29   17   18 2
    30   17   19 1
    31   19   20 2
    32   19   21 am
    33   21   25 1
    34   21   22 1
    35   22   23 1
    36   22   35 1
    37   22   36 1
    38   23   24 1
    39   23   37 1
    40   23   38 1
    41   24   25 1
    42   24   39 1
    43   24   40 1
    44   25   41 1
    45   25   42 1
@<TRIPOS>MOLECULE
ZINC03780965
   69    71     0     0     0
SMALL
USER_CHARGES

@<TRIPOS>ATOM
      1 C1         -0.0187    1.5258    0.0104 C.3       1 <0>        -0.1548
      2 C2          0.0021   -0.0041    0.0020 C.3       1 <0>        -0.1256
      3 C3          0.7182   -0.4975   -1.2568 C.3       1 <0>        -0.1201
      4 C4          0.7390   -2.0273   -1.2652 C.3       1 <0>        -0.1185
      5 C5          1.4551   -2.5207   -2.5240 C.3       1 <0>        -0.1394
      6 C6          1.4758   -4.0506   -2.5324 C.3       1 <0>         0.1055
      7 N1          2.1616   -4.5230   -3.7377 N.am      1 <0>        -0.6153
      8 C7          3.6091   -4.7477   -3.7165 C.3       1 <0>         0.1144
      9 C8          3.8950   -6.1913   -3.2979 C.3       1 <0>        -0.1332
     10 C9          5.4068   -6.4259   -3.2757 C.3       1 <0>        -0.1175
     11 C10         5.6927   -7.8695   -2.8571 C.3       1 <0>        -0.1190
     12 C11         7.2044   -8.1042   -2.8349 C.3       1 <0>        -0.1257
     13 C12         7.4904   -9.5477   -2.4163 C.3       1 <0>        -0.1542
     14 C13         1.4607   -4.7510   -4.8662 C.2       1 <0>         0.5133
     15 O1          2.0284   -5.1421   -5.8640 O.2       1 <0>        -0.5215
     16 C14        -0.0283   -4.5199   -4.8880 C.3       1 <0>        -0.0684
     17 C15        -0.5672   -4.8461   -6.2570 C.2       1 <0>        -0.1295
     18 C16        -0.6950   -3.9241   -7.3843 C.ar      1 <0>        -0.0897
     19 C17        -0.3970   -2.5704   -7.5664 C.ar      1 <0>        -0.0685
     20 C18        -0.6392   -1.9790   -8.7737 C.ar      1 <0>        -0.1440
     21 C19        -1.1796   -2.7115   -9.8220 C.ar      1 <0>        -0.0963
     22 C20        -1.4810   -4.0468   -9.6650 C.ar      1 <0>        -0.1297
     23 C21        -1.2427   -4.6707   -8.4448 C.ar      1 <0>         0.1063
     24 N2         -1.4327   -5.9567   -7.9887 N.pl3     1 <0>        -0.5867
     25 H1         -1.7989   -6.6861   -8.5130 H         1 <0>         0.4160
     26 C22        -1.0206   -6.0523   -6.6797 C.2       1 <0>         0.1314
     27 C23        -1.0671   -7.2814   -5.8585 C.ar      1 <0>        -0.0459
     28 C24         0.0257   -7.6359   -5.0662 C.ar      1 <0>        -0.0662
     29 C25        -0.0229   -8.7833   -4.3023 C.ar      1 <0>        -0.1497
     30 C26        -1.1542   -9.5835   -4.3206 C.ar      1 <0>         0.1084
     31 C27        -2.2419   -9.2362   -5.1060 C.ar      1 <0>        -0.1507
     32 C28        -2.2061   -8.0877   -5.8689 C.ar      1 <0>        -0.0766
     33 F1         -1.1967  -10.7063   -3.5705 F         1 <0>        -0.1355
     34 H2          1.0039    1.9031    0.0027 H         1 <0>         0.0533
     35 H3         -0.5459    1.8868   -0.8726 H         1 <0>         0.0536
     36 H4         -0.5289    1.8773    0.9072 H         1 <0>         0.0536
     37 H5          0.5293   -0.3651    0.8851 H         1 <0>         0.0605
     38 H6         -1.0205   -0.3814    0.0098 H         1 <0>         0.0610
     39 H7          0.1910   -0.1364   -2.1398 H         1 <0>         0.0619
     40 H8          1.7408   -0.1202   -1.2645 H         1 <0>         0.0612
     41 H9          1.2661   -2.3884   -0.3821 H         1 <0>         0.0641
     42 H10        -0.2836   -2.4046   -1.2575 H         1 <0>         0.0647
     43 H11         0.9279   -2.1597   -3.4071 H         1 <0>         0.0658
     44 H12         2.4777   -2.1435   -2.5317 H         1 <0>         0.0674
     45 H13         2.0030   -4.4117   -1.6494 H         1 <0>         0.0815
     46 H14         0.4533   -4.4279   -2.5247 H         1 <0>         0.0802
     47 H15         4.0190   -4.5697   -4.7106 H         1 <0>         0.0836
     48 H16         4.0724   -4.0645   -3.0047 H         1 <0>         0.0755
     49 H17         3.4851   -6.3693   -2.3037 H         1 <0>         0.0624
     50 H18         3.4317   -6.8745   -4.0097 H         1 <0>         0.0649
     51 H19         5.8167   -6.2479   -4.2699 H         1 <0>         0.0640
     52 H20         5.8701   -5.7427   -2.5639 H         1 <0>         0.0625
     53 H21         5.2828   -8.0475   -1.8630 H         1 <0>         0.0605
     54 H22         5.2294   -8.5528   -3.5689 H         1 <0>         0.0608
     55 H23         7.6144   -7.9261   -3.8291 H         1 <0>         0.0609
     56 H24         7.6678   -7.4209   -2.1232 H         1 <0>         0.0606
     57 H25         8.5674   -9.7149   -2.4005 H         1 <0>         0.0536
     58 H26         7.0804   -9.7258   -1.4222 H         1 <0>         0.0531
     59 H27         7.0271  -10.2310   -3.1281 H         1 <0>         0.0533
     60 H28        -0.5064   -5.1607   -4.1471 H         1 <0>         0.0989
     61 H29        -0.2374   -3.4759   -4.6545 H         1 <0>         0.1021
     62 H30         0.0229   -1.9941   -6.7552 H         1 <0>         0.1179
     63 H31        -0.4087   -0.9332   -8.9137 H         1 <0>         0.1226
     64 H32        -1.3660   -2.2295  -10.7704 H         1 <0>         0.1258
     65 H33        -1.9007   -4.6075  -10.4871 H         1 <0>         0.1206
     66 H34         0.9079   -7.0132   -5.0514 H         1 <0>         0.1400
     67 H35         0.8223   -9.0587   -3.6890 H         1 <0>         0.1399
     68 H36        -3.1209   -9.8637   -5.1173 H         1 <0>         0.1409
     69 H37        -3.0563   -7.8153   -6.4766 H         1 <0>         0.1339
@<TRIPOS>BOND
     1    1    2 1
     2    1   34 1
     3    1   35 1
     4    1   36 1
     5    2    3 1
     6    2   37 1
     7    2   38 1
     8    3    4 1
     9    3   39 1
    10    3   40 1
    11    4    5 1
    12    4   41 1
    13    4   42 1
    14    5    6 1
    15    5   43 1
    16    5   44 1
    17    6    7 1
    18    6   45 1
    19    6   46 1
    20    7    8 1
    21    7   14 am
    22    8    9 1
    23    8   47 1
    24    8   48 1
    25    9   10 1
    26    9   49 1
    27    9   50 1
    28   10   11 1
    29   10   51 1
    30   10   52 1
    31   11   12 1
    32   11   53 1
    33   11   54 1
    34   12   13 1
    35   12   55 1
    36   12   56 1
    37   13   57 1
    38   13   58 1
    39   13   59 1
    40   14   15 2
    41   14   16 1
    42   16   17 1
    43   16   60 1
    44   16   61 1
    45   17   26 2
    46   17   18 1
    47   18   23 ar
    48   18   19 ar
    49   19   20 ar
    50   19   62 1
    51   20   21 ar
    52   20   63 1
    53   21   22 ar
    54   21   64 1
    55   22   23 ar
    56   22   65 1
    57   23   24 1
    58   24   25 1
    59   24   26 1
    60   26   27 1
    61   27   32 ar
    62   27   28 ar
    63   28   29 ar
    64   28   66 1
    65   29   30 ar
    66   29   67 1
    67   30   31 ar
    68   30   33 1
    69   31   32 ar
    70   31   68 1
    71   32   69 1
@<TRIPOS>MOLECULE
ZINC00001732
   37    40     0     0     0
SMALL
USER_CHARGES

@<TRIPOS>ATOM
      1 C1         -0.1761    1.6644    0.3309 C.3       1 <0>        -0.1264
      2 C2         -0.0918    0.1660    0.1951 C.cat     1 <0>         0.3271
      3 N1         -0.1463   -0.5049   -0.9253 N.pl3     1 <0>        -0.4700
      4 C3         -0.0160   -1.8168   -0.6659 C.2       1 <0>         0.0296
      5 C4          0.1228   -1.9635    0.6611 C.2       1 <0>         0.0282
      6 N2          0.0596   -0.7165    1.2144 N.pl3     1 <0>        -0.3534
      7 C5          0.0997   -0.4314    2.5817 C.ar      1 <0>         0.1082
      8 C6         -0.6847    0.6142    3.0581 C.ar      1 <0>        -0.1078
      9 C7         -0.7067    0.9153    4.4038 C.ar      1 <0>        -0.0643
     10 C8          0.0545    0.1718    5.2918 C.ar      1 <0>        -0.0118
     11 C9          0.8456   -0.8573    4.8334 C.ar      1 <0>        -0.0540
     12 C10         0.8926   -1.1657    3.4650 C.ar      1 <0>        -0.0625
     13 C11         1.8123   -2.2224    3.0297 C.2       1 <0>         0.2689
     14 N3          1.6104   -3.1337    2.1425 N.2       1 <0>        -0.4618
     15 C12         0.3277   -3.2463    1.4253 C.3       1 <0>         0.0943
     16 C13         3.1363   -2.2436    3.6918 C.ar      1 <0>        -0.1146
     17 C14         3.4959   -3.3184    4.5055 C.ar      1 <0>        -0.0525
     18 C15         4.7306   -3.3325    5.1197 C.ar      1 <0>        -0.1232
     19 C16         5.6138   -2.2833    4.9317 C.ar      1 <0>        -0.0657
     20 C17         5.2659   -1.2141    4.1277 C.ar      1 <0>        -0.1493
     21 C18         4.0336   -1.1900    3.5002 C.ar      1 <0>         0.1224
     22 F1          3.6960   -0.1478    2.7096 F         1 <0>        -0.1385
     23 Cl1         0.0105    0.5398    6.9878 Cl        1 <0>        -0.0171
     24 H1          0.8296    2.0823    0.3769 H         1 <0>         0.1290
     25 H2         -0.7024    2.0782   -0.5293 H         1 <0>         0.1252
     26 H3         -0.7165    1.9167    1.2432 H         1 <0>         0.1227
     27 H4         -0.0221   -2.6126   -1.3960 H         1 <0>         0.2338
     28 H5         -1.2804    1.1946    2.3692 H         1 <0>         0.1598
     29 H6         -1.3163    1.7302    4.7653 H         1 <0>         0.1657
     30 H7          1.4349   -1.4321    5.5325 H         1 <0>         0.1623
     31 H8         -0.4898   -3.3901    2.1318 H         1 <0>         0.1087
     32 H9          0.3701   -4.0865    0.7322 H         1 <0>         0.1480
     33 H10         2.8083   -4.1379    4.6543 H         1 <0>         0.1399
     34 H11         5.0091   -4.1644    5.7495 H         1 <0>         0.1425
     35 H12         6.5791   -2.3001    5.4157 H         1 <0>         0.1436
     36 H13         5.9593   -0.3985    3.9853 H         1 <0>         0.1450
     37 H14        -0.2630   -0.1164   -1.8064 H         1 <0>         0.4679
@<TRIPOS>BOND
     1    1    2 1
     2    1   24 1
     3    1   25 1
     4    1   26 1
     5    2    6 1
     6    2    3 2
     7    3    4 1
     8    3   37 1
     9    4    5 2
    10    4   27 1
    11    5   15 1
    12    5    6 1
    13    6    7 1
    14    7   12 ar
    15    7    8 ar
    16    8    9 ar
    17    8   28 1
    18    9   10 ar
    19    9   29 1
    20   10   11 ar
    21   10   23 1
    22   11   12 ar
    23   11   30 1
    24   12   13 1
    25   13   14 2
    26   13   16 1
    27   14   15 1
    28   15   31 1
    29   15   32 1
    30   16   21 ar
    31   16   17 ar
    32   17   18 ar
    33   17   33 1
    34   18   19 ar
    35   18   34 1
    36   19   20 ar
    37   19   35 1
    38   20   21 ar
    39   20   36 1
    40   21   22 1
@<TRIPOS>MOLECULE
ZINC00001732
   36    39     0     0     0
SMALL
USER_CHARGES

@<TRIPOS>ATOM
      1 C1         -0.1761    1.6644    0.3309 C.3       1 <0>        -0.0840
      2 C2         -0.0918    0.1660    0.1951 C.2       1 <0>         0.2267
      3 N1         -0.1463   -0.5049   -0.9253 N.2       1 <0>        -0.4747
      4 C3         -0.0160   -1.8168   -0.6659 C.2       1 <0>         0.0075
      5 C4          0.1228   -1.9635    0.6611 C.2       1 <0>        -0.0501
      6 N2          0.0596   -0.7165    1.2144 N.pl3     1 <0>        -0.4096
      7 C5          0.0997   -0.4314    2.5817 C.ar      1 <0>         0.1638
      8 C6         -0.6847    0.6142    3.0581 C.ar      1 <0>        -0.1268
      9 C7         -0.7067    0.9153    4.4038 C.ar      1 <0>        -0.0681
     10 C8          0.0545    0.1718    5.2918 C.ar      1 <0>        -0.0384
     11 C9          0.8456   -0.8573    4.8334 C.ar      1 <0>        -0.0569
     12 C10         0.8926   -1.1657    3.4650 C.ar      1 <0>        -0.0908
     13 C11         1.8123   -2.2224    3.0297 C.2       1 <0>         0.2577
     14 N3          1.6104   -3.1337    2.1425 N.2       1 <0>        -0.4674
     15 C12         0.3277   -3.2463    1.4253 C.3       1 <0>         0.1092
     16 C13         3.1363   -2.2436    3.6918 C.ar      1 <0>        -0.0958
     17 C14         3.4959   -3.3184    4.5055 C.ar      1 <0>        -0.0575
     18 C15         4.7306   -3.3325    5.1197 C.ar      1 <0>        -0.1289
     19 C16         5.6138   -2.2833    4.9317 C.ar      1 <0>        -0.0765
     20 C17         5.2659   -1.2141    4.1277 C.ar      1 <0>        -0.1531
     21 C18         4.0336   -1.1900    3.5002 C.ar      1 <0>         0.1234
     22 F1          3.6960   -0.1478    2.7096 F         1 <0>        -0.1331
     23 Cl1         0.0105    0.5398    6.9878 Cl        1 <0>        -0.0477
     24 H1          0.8296    2.0823    0.3770 H         1 <0>         0.0869
     25 H2         -0.7024    2.0782   -0.5293 H         1 <0>         0.0998
     26 H3         -0.7165    1.9167    1.2432 H         1 <0>         0.0840
     27 H4         -0.0221   -2.6126   -1.3960 H         1 <0>         0.1809
     28 H5         -1.2804    1.1946    2.3692 H         1 <0>         0.1560
     29 H6         -1.3163    1.7302    4.7653 H         1 <0>         0.1524
     30 H7          1.4349   -1.4321    5.5325 H         1 <0>         0.1487
     31 H8         -0.4898   -3.3901    2.1318 H         1 <0>         0.0838
     32 H9          0.3701   -4.0865    0.7322 H         1 <0>         0.1261
     33 H10         2.8083   -4.1379    4.6543 H         1 <0>         0.1365
     34 H11         5.0091   -4.1644    5.7495 H         1 <0>         0.1368
     35 H12         6.5791   -2.3001    5.4157 H         1 <0>         0.1379
     36 H13         5.9593   -0.3985    3.9853 H         1 <0>         0.1408
@<TRIPOS>BOND
     1    1    2 1
     2    1   24 1
     3    1   25 1
     4    1   26 1
     5    2    6 1
     6    2    3 2
     7    3    4 1
     8    4    5 2
     9    4   27 1
    10    5   15 1
    11    5    6 1
    12    6    7 1
    13    7   12 ar
    14    7    8 ar
    15    8    9 ar
    16    8   28 1
    17    9   10 ar
    18    9   29 1
    19   10   11 ar
    20   10   23 1
    21   11   12 ar
    22   11   30 1
    23   12   13 1
    24   13   14 2
    25   13   16 1
    26   14   15 1
    27   15   31 1
    28   15   32 1
    29   16   21 ar
    30   16   17 ar
    31   17   18 ar
    32   17   33 1
    33   18   19 ar
    34   18   34 1
    35   19   20 ar
    36   19   35 1
    37   20   21 ar
    38   20   36 1
    39   21   22 1
@<TRIPOS>MOLECULE
ZINC00001732
   37    40     0     0     0
SMALL
USER_CHARGES

@<TRIPOS>ATOM
      1 C1         -0.1766    1.6649    0.3320 C.3       1 <0>        -0.0966
      2 C2         -0.0921    0.1665    0.1958 C.2       1 <0>         0.2698
      3 N1         -0.1465   -0.5041   -0.9248 N.2       1 <0>        -0.4658
      4 C3         -0.0160   -1.8160   -0.6658 C.2       1 <0>         0.0643
      5 C4          0.1227   -1.9631    0.6612 C.2       1 <0>        -0.1118
      6 N2          0.0594   -0.7162    1.2148 N.pl3     1 <0>        -0.4221
      7 C5          0.0994   -0.4315    2.5822 C.ar      1 <0>         0.2053
      8 C6         -0.6851    0.6139    3.0589 C.ar      1 <0>        -0.1293
      9 C7         -0.7071    0.9145    4.4047 C.ar      1 <0>        -0.0167
     10 C8          0.0541    0.1709    5.2925 C.ar      1 <0>        -0.0446
     11 C9          0.8454   -0.8580    4.8338 C.ar      1 <0>        -0.0207
     12 C10         0.8924   -1.1660    3.4653 C.ar      1 <0>        -0.1457
     13 C11         1.8123   -2.2224    3.0297 C.2       1 <0>         0.4592
     14 N3          1.6105   -3.1335    2.1423 N.pl3     1 <0>        -0.5182
     15 C12         0.3278   -3.2461    1.4250 C.3       1 <0>         0.1418
     16 C13         3.1363   -2.2436    3.6918 C.ar      1 <0>        -0.2217
     17 C14         3.4959   -3.3184    4.5055 C.ar      1 <0>        -0.0487
     18 C15         4.7306   -3.3325    5.1197 C.ar      1 <0>        -0.1180
     19 C16         5.6138   -2.2833    4.9317 C.ar      1 <0>        -0.0314
     20 C17         5.2659   -1.2141    4.1277 C.ar      1 <0>        -0.1446
     21 C18         4.0336   -1.1900    3.5002 C.ar      1 <0>         0.1633
     22 F1          3.6960   -0.1478    2.7096 F         1 <0>        -0.1197
     23 Cl1         0.0101    0.5384    6.9886 Cl        1 <0>        -0.0139
     24 H1          0.8290    2.0829    0.3782 H         1 <0>         0.0982
     25 H2         -0.7030    2.0789   -0.5281 H         1 <0>         0.1127
     26 H3         -0.7171    1.9169    1.2444 H         1 <0>         0.0902
     27 H4         -0.0220   -2.6115   -1.3962 H         1 <0>         0.1935
     28 H5         -1.2809    1.1943    2.3701 H         1 <0>         0.1720
     29 H6         -1.3169    1.7292    4.7664 H         1 <0>         0.1701
     30 H7          1.4348   -1.4328    5.5327 H         1 <0>         0.1623
     31 H8         -0.4896   -3.3902    2.1315 H         1 <0>         0.1363
     32 H9          0.3704   -4.0861    0.7316 H         1 <0>         0.1622
     33 H10         2.8083   -4.1379    4.6543 H         1 <0>         0.1492
     34 H11         5.0091   -4.1644    5.7495 H         1 <0>         0.1554
     35 H12         6.5791   -2.3001    5.4157 H         1 <0>         0.1565
     36 H13         5.9593   -0.3985    3.9853 H         1 <0>         0.1599
     37 H14         2.3209   -3.7633    1.9432 H         1 <0>         0.4473
@<TRIPOS>BOND
     1    1    2 1
     2    1   24 1
     3    1   25 1
     4    1   26 1
     5    2    6 1
     6    2    3 2
     7    3    4 1
     8    4    5 2
     9    4   27 1
    10    5   15 1
    11    5    6 1
    12    6    7 1
    13    7   12 ar
    14    7    8 ar
    15    8    9 ar
    16    8   28 1
    17    9   10 ar
    18    9   29 1
    19   10   11 ar
    20   10   23 1
    21   11   12 ar
    22   11   30 1
    23   12   13 1
    24   13   14 2
    25   13   16 1
    26   14   15 1
    27   14   37 1
    28   15   31 1
    29   15   32 1
    30   16   21 ar
    31   16   17 ar
    32   17   18 ar
    33   17   33 1
    34   18   19 ar
    35   18   34 1
    36   19   20 ar
    37   19   35 1
    38   20   21 ar
    39   20   36 1
    40   21   22 1
@<TRIPOS>MOLECULE
ZINC00003876
   44    46     0     0     0
SMALL
USER_CHARGES

@<TRIPOS>ATOM
      1 C1         -0.9117    1.3819    0.8050 C.3       1 <0>        -0.1169
      2 C2         -0.6965   -0.0986    0.6235 C.ar      1 <0>        -0.0790
      3 C3          0.5861   -0.6161    0.6437 C.ar      1 <0>        -0.1207
      4 C4          0.7890   -1.9712    0.4780 C.ar      1 <0>        -0.0987
      5 C5         -0.3012   -2.8184    0.2904 C.ar      1 <0>        -0.0178
      6 C6         -1.5911   -2.2918    0.2714 C.ar      1 <0>        -0.0819
      7 C7         -1.7827   -0.9357    0.4429 C.ar      1 <0>        -0.1210
      8 C8         -0.0893   -4.2762    0.1112 C.2       1 <0>         0.1167
      9 C9          0.7803   -5.0491    0.8198 C.2       1 <0>        -0.0371
     10 N1          0.6641   -6.3246    0.3429 N.pl3     1 <0>        -0.3454
     11 C10         1.2856   -7.4928    0.6792 C.2       1 <0>         0.0517
     12 C11         0.9826   -8.6418    0.0396 C.2       1 <0>        -0.1050
     13 C12         0.0205   -8.6507   -0.9840 C.2       1 <0>        -0.0971
     14 C13        -0.6066   -7.4944   -1.3295 C.2       1 <0>        -0.0747
     15 C14        -0.2794   -6.3016   -0.6521 C.2       1 <0>         0.2302
     16 N2         -0.7258   -5.0604   -0.7732 N.2       1 <0>        -0.4775
     17 C15         1.6798   -9.9210    0.4248 C.3       1 <0>        -0.1052
     18 C16         1.6977   -4.5850    1.9216 C.3       1 <0>        -0.0616
     19 C17         3.0613   -4.2930    1.3502 C.2       1 <0>         0.5079
     20 O1          3.2678   -4.4466    0.1650 O.2       1 <0>        -0.5213
     21 N3          4.0514   -3.8612    2.1563 N.am      1 <0>        -0.6226
     22 C18         5.3769   -3.5773    1.6009 C.3       1 <0>         0.0837
     23 C19         3.8020   -3.6756    3.5880 C.3       1 <0>         0.0707
     24 H1         -1.0291    1.6046    1.8655 H         1 <0>         0.0717
     25 H2         -0.0517    1.9248    0.4128 H         1 <0>         0.0669
     26 H3         -1.8098    1.6870    0.2680 H         1 <0>         0.0678
     27 H4          1.4304    0.0415    0.7891 H         1 <0>         0.1238
     28 H5          1.7909   -2.3741    0.4932 H         1 <0>         0.1195
     29 H6         -2.4397   -2.9440    0.1264 H         1 <0>         0.1276
     30 H7         -2.7824   -0.5270    0.4324 H         1 <0>         0.1260
     31 H8          2.0271   -7.4974    1.4645 H         1 <0>         0.1559
     32 H9         -0.2198   -9.5716   -1.4945 H         1 <0>         0.1447
     33 H10        -1.3475   -7.4896   -2.1152 H         1 <0>         0.1539
     34 H11         1.1134  -10.4213    1.2103 H         1 <0>         0.0768
     35 H12         1.7486  -10.5737   -0.4455 H         1 <0>         0.0766
     36 H13         2.6819   -9.6934    0.7883 H         1 <0>         0.0691
     37 H14         1.2925   -3.6804    2.3750 H         1 <0>         0.1217
     38 H15         1.7804   -5.3652    2.6783 H         1 <0>         0.1017
     39 H16         5.4240   -2.5342    1.2880 H         1 <0>         0.0572
     40 H17         6.1365   -3.7635    2.3601 H         1 <0>         0.0719
     41 H18         5.5565   -4.2229    0.7412 H         1 <0>         0.0766
     42 H19         2.7674   -3.9347    3.8131 H         1 <0>         0.0792
     43 H20         4.4704   -4.3194    4.1596 H         1 <0>         0.0662
     44 H21         3.9825   -2.6347    3.8563 H         1 <0>         0.0678
@<TRIPOS>BOND
     1    1    2 1
     2    1   24 1
     3    1   25 1
     4    1   26 1
     5    2    7 ar
     6    2    3 ar
     7    3    4 ar
     8    3   27 1
     9    4    5 ar
    10    4   28 1
    11    5    6 ar
    12    5    8 1
    13    6    7 ar
    14    6   29 1
    15    7   30 1
    16    8   16 1
    17    8    9 2
    18    9   10 1
    19    9   18 1
    20   10   15 1
    21   10   11 1
    22   11   12 2
    23   11   31 1
    24   12   13 1
    25   12   17 1
    26   13   14 2
    27   13   32 1
    28   14   15 1
    29   14   33 1
    30   15   16 2
    31   17   34 1
    32   17   35 1
    33   17   36 1
    34   18   19 1
    35   18   37 1
    36   18   38 1
    37   19   20 2
    38   19   21 am
    39   21   22 1
    40   21   23 1
    41   22   39 1
    42   22   40 1
    43   22   41 1
    44   23   42 1
    45   23   43 1
    46   23   44 1
@<TRIPOS>MOLECULE
ZINC00003876
   45    47     0     0     0
SMALL
USER_CHARGES

@<TRIPOS>ATOM
      1 C1         -0.0184    1.5028    0.0103 C.3       1 <0>        -0.1298
      2 C2          0.0021   -0.0041    0.0020 C.ar      1 <0>        -0.0415
      3 C3          0.0057   -0.6865   -1.2011 C.ar      1 <0>        -0.1156
      4 C4          0.0244   -2.0665   -1.2146 C.ar      1 <0>        -0.0824
      5 C5          0.0401   -2.7722   -0.0132 C.ar      1 <0>        -0.0858
      6 C6          0.0368   -2.0796    1.1958 C.ar      1 <0>        -0.0737
      7 C7          0.0229   -0.6995    1.1975 C.ar      1 <0>        -0.1157
      8 C8          0.0597   -4.2561   -0.0214 C.2       1 <0>         0.1702
      9 C9         -0.7101   -5.0684    0.7552 C.2       1 <0>         0.0252
     10 N1         -0.3822   -6.3565    0.4370 N.pl3     1 <0>        -0.3091
     11 C10        -0.8325   -7.5609    0.8964 C.2       1 <0>         0.0725
     12 C11        -0.3332   -8.7143    0.4052 C.2       1 <0>        -0.0702
     13 C12         0.6596   -8.6908   -0.5884 C.2       1 <0>        -0.0204
     14 C13         1.1176   -7.4983   -1.0553 C.2       1 <0>        -0.1164
     15 C14         0.5863   -6.3013   -0.5324 C.cat     1 <0>         0.3049
     16 N2          0.8350   -5.0279   -0.7995 N.pl3     1 <0>        -0.5016
     17 C15        -0.8427  -10.0338    0.9253 C.3       1 <0>        -0.1221
     18 C16        -1.7306   -4.6296    1.7735 C.3       1 <0>        -0.0775
     19 C17        -1.0655   -4.4753    3.1170 C.2       1 <0>         0.5078
     20 O1          0.1204   -4.6997    3.2358 O.2       1 <0>        -0.5296
     21 N3         -1.7885   -4.0881    4.1864 N.am      1 <0>        -0.6101
     22 C18        -1.1420   -3.9381    5.4924 C.3       1 <0>         0.0789
     23 C19        -3.2211   -3.8170    4.0429 C.3       1 <0>         0.0651
     24 H1          1.0042    1.8801    0.0026 H         1 <0>         0.0833
     25 H2         -0.5455    1.8639   -0.8728 H         1 <0>         0.0766
     26 H3         -0.5286    1.8543    0.9071 H         1 <0>         0.0762
     27 H4         -0.0064   -0.1385   -2.1317 H         1 <0>         0.1390
     28 H5          0.0266   -2.5984   -2.1545 H         1 <0>         0.1289
     29 H6          0.0488   -2.6217    2.1299 H         1 <0>         0.1324
     30 H7          0.0244   -0.1616    2.1340 H         1 <0>         0.1378
     31 H8         -1.5953   -7.5907    1.6603 H         1 <0>         0.1924
     32 H9          1.0577   -9.6154   -0.9795 H         1 <0>         0.1759
     33 H10         1.8809   -7.4684   -1.8188 H         1 <0>         0.1817
     34 H11        -1.6926  -10.3574    0.3245 H         1 <0>         0.0964
     35 H12        -0.0496  -10.7791    0.8641 H         1 <0>         0.0930
     36 H13        -1.1542   -9.9192    1.9635 H         1 <0>         0.0856
     37 H14        -2.1604   -3.6752    1.4692 H         1 <0>         0.1397
     38 H15        -2.5200   -5.3780    1.8427 H         1 <0>         0.1237
     39 H16        -0.7740   -2.9178    5.6007 H         1 <0>         0.0640
     40 H17        -1.8635   -4.1498    6.2815 H         1 <0>         0.0798
     41 H18        -0.3073   -4.6352    5.5668 H         1 <0>         0.0805
     42 H19        -3.7840   -4.7329    4.2229 H         1 <0>         0.0675
     43 H20        -3.5214   -3.0581    4.7652 H         1 <0>         0.0860
     44 H21        -3.4237   -3.4585    3.0337 H         1 <0>         0.0751
     45 H22         1.4768   -4.7047   -1.4511 H         1 <0>         0.4614
@<TRIPOS>BOND
     1    1    2 1
     2    1   24 1
     3    1   25 1
     4    1   26 1
     5    2    7 ar
     6    2    3 ar
     7    3    4 ar
     8    3   27 1
     9    4    5 ar
    10    4   28 1
    11    5    6 ar
    12    5    8 1
    13    6    7 ar
    14    6   29 1
    15    7   30 1
    16    8   16 1
    17    8    9 2
    18    9   10 1
    19    9   18 1
    20   10   15 1
    21   10   11 1
    22   11   12 2
    23   11   31 1
    24   12   13 1
    25   12   17 1
    26   13   14 2
    27   13   32 1
    28   14   15 1
    29   14   33 1
    30   15   16 2
    31   16   45 1
    32   17   34 1
    33   17   35 1
    34   17   36 1
    35   18   19 1
    36   18   37 1
    37   18   38 1
    38   19   20 2
    39   19   21 am
    40   21   22 1
    41   21   23 1
    42   22   39 1
    43   22   40 1
    44   22   41 1
    45   23   42 1
    46   23   43 1
    47   23   44 1
@<TRIPOS>MOLECULE
ZINC13833112
   69    71     0     0     0
SMALL
USER_CHARGES
N,N-dihexyl-2-(2-phenyl-1H-indol-3-yl)acetamide
@<TRIPOS>ATOM
      1 C1          6.4257    3.8945   10.5158 C.3       1 <0>        -0.1541
      2 C2          5.3356    3.1439    9.7481 C.3       1 <0>        -0.1256
      3 C3          5.1199    3.8093    8.3873 C.3       1 <0>        -0.1190
      4 C4          4.0299    3.0588    7.6197 C.3       1 <0>        -0.1171
      5 C5          3.8142    3.7242    6.2589 C.3       1 <0>        -0.1329
      6 C6          2.7241    2.9737    5.4913 C.3       1 <0>         0.1164
      7 N1          2.5176    3.6108    4.1883 N.am      1 <0>        -0.6165
      8 C7          1.5336    4.6869    4.0469 C.3       1 <0>         0.1064
      9 C8          0.1729    4.0892    3.6835 C.3       1 <0>        -0.1394
     10 C9         -0.8548    5.2131    3.5358 C.3       1 <0>        -0.1184
     11 C10        -2.2155    4.6153    3.1725 C.3       1 <0>        -0.1193
     12 C11        -3.2432    5.7392    3.0248 C.3       1 <0>        -0.1257
     13 C12        -4.6039    5.1415    2.6614 C.3       1 <0>        -0.1545
     14 C13         3.2329    3.2070    3.1198 C.2       1 <0>         0.5166
     15 O1          4.0475    2.3161    3.2369 O.2       1 <0>        -0.5224
     16 C14         3.0204    3.8624    1.7795 C.3       1 <0>        -0.0701
     17 C15         3.9359    3.2325    0.7616 C.2       1 <0>        -0.1319
     18 C16         5.2947    3.6592    0.4313 C.ar      1 <0>        -0.0899
     19 C17         6.1263    4.6842    0.8918 C.ar      1 <0>        -0.0691
     20 C18         7.3776    4.8310    0.3641 C.ar      1 <0>        -0.1445
     21 C19         7.8312    3.9694   -0.6258 C.ar      1 <0>        -0.0974
     22 C20         7.0287    2.9523   -1.0946 C.ar      1 <0>        -0.1297
     23 C21         5.7503    2.7836   -0.5726 C.ar      1 <0>         0.1047
     24 N2          4.7374    1.8854   -0.8272 N.pl3     1 <0>        -0.5872
     25 H1          4.7793    1.1671   -1.4777 H         1 <0>         0.4155
     26 C22         3.6571    2.1607   -0.0209 C.2       1 <0>         0.1331
     27 C23         2.3846    1.4070   -0.0132 C.ar      1 <0>        -0.0303
     28 C24         1.1668    2.0883    0.0021 C.ar      1 <0>        -0.1018
     29 C25        -0.0167    1.3793    0.0096 C.ar      1 <0>        -0.1145
     30 C26         0.0021   -0.0041    0.0020 C.ar      1 <0>        -0.1128
     31 C27         1.2061   -0.6855   -0.0127 C.ar      1 <0>        -0.1146
     32 C28         2.3966    0.0116   -0.0204 C.ar      1 <0>        -0.1040
     33 H2          7.3550    3.8674    9.9467 H         1 <0>         0.0535
     34 H3          6.1194    4.9302   10.6623 H         1 <0>         0.0531
     35 H4          6.5793    3.4204   11.4852 H         1 <0>         0.0534
     36 H5          4.4063    3.1710   10.3171 H         1 <0>         0.0603
     37 H6          5.6419    2.1082    9.6016 H         1 <0>         0.0607
     38 H7          6.0492    3.7823    7.8183 H         1 <0>         0.0612
     39 H8          4.8136    4.8451    8.5339 H         1 <0>         0.0604
     40 H9          3.1006    3.0858    8.1887 H         1 <0>         0.0617
     41 H10         4.3362    2.0231    7.4732 H         1 <0>         0.0633
     42 H11         4.7435    3.6972    5.6899 H         1 <0>         0.0661
     43 H12         3.5079    4.7600    6.4054 H         1 <0>         0.0614
     44 H13         1.7948    3.0007    6.0603 H         1 <0>         0.0739
     45 H14         3.0304    1.9379    5.3447 H         1 <0>         0.0815
     46 H15         1.4520    5.2307    4.9880 H         1 <0>         0.0803
     47 H16         1.8525    5.3697    3.2593 H         1 <0>         0.0795
     48 H17         0.2545    3.5455    2.7424 H         1 <0>         0.0657
     49 H18        -0.1460    3.4065    4.4711 H         1 <0>         0.0666
     50 H19        -0.9364    5.7568    4.4770 H         1 <0>         0.0640
     51 H20        -0.5359    5.8958    2.7483 H         1 <0>         0.0646
     52 H21        -2.1339    4.0716    2.2313 H         1 <0>         0.0614
     53 H22        -2.5344    3.9326    3.9601 H         1 <0>         0.0609
     54 H23        -3.3248    6.2829    3.9659 H         1 <0>         0.0606
     55 H24        -2.9243    6.4219    2.2372 H         1 <0>         0.0610
     56 H25        -4.5223    4.5977    1.7203 H         1 <0>         0.0533
     57 H26        -4.9228    4.4587    3.4490 H         1 <0>         0.0531
     58 H27        -5.3360    5.9421    2.5562 H         1 <0>         0.0535
     59 H28         3.2407    4.9271    1.8567 H         1 <0>         0.0996
     60 H29         1.9843    3.7273    1.4691 H         1 <0>         0.1017
     61 H30         5.7804    5.3582    1.6615 H         1 <0>         0.1177
     62 H31         8.0195    5.6233    0.7199 H         1 <0>         0.1223
     63 H32         8.8232    4.0981   -1.0328 H         1 <0>         0.1255
     64 H33         7.3912    2.2877   -1.8648 H         1 <0>         0.1201
     65 H34         1.1509    3.1682    0.0078 H         1 <0>         0.1282
     66 H35        -0.9599    1.9054    0.0170 H         1 <0>         0.1275
     67 H36        -0.9272   -0.5544    0.0080 H         1 <0>         0.1251
     68 H37         1.2140   -1.7655   -0.0186 H         1 <0>         0.1261
     69 H38         3.3358   -0.5215   -0.0323 H         1 <0>         0.1212
@<TRIPOS>BOND
     1    1    2 1
     2    1   33 1
     3    1   34 1
     4    1   35 1
     5    2    3 1
     6    2   36 1
     7    2   37 1
     8    3    4 1
     9    3   38 1
    10    3   39 1
    11    4    5 1
    12    4   40 1
    13    4   41 1
    14    5    6 1
    15    5   42 1
    16    5   43 1
    17    6    7 1
    18    6   44 1
    19    6   45 1
    20    7    8 1
    21    7   14 am
    22    8    9 1
    23    8   46 1
    24    8   47 1
    25    9   10 1
    26    9   48 1
    27    9   49 1
    28   10   11 1
    29   10   50 1
    30   10   51 1
    31   11   12 1
    32   11   52 1
    33   11   53 1
    34   12   13 1
    35   12   54 1
    36   12   55 1
    37   13   56 1
    38   13   57 1
    39   13   58 1
    40   14   15 2
    41   14   16 1
    42   16   17 1
    43   16   59 1
    44   16   60 1
    45   17   26 2
    46   17   18 1
    47   18   23 ar
    48   18   19 ar
    49   19   20 ar
    50   19   61 1
    51   20   21 ar
    52   20   62 1
    53   21   22 ar
    54   21   63 1
    55   22   23 ar
    56   22   64 1
    57   23   24 1
    58   24   25 1
    59   24   26 1
    60   26   27 1
    61   27   32 ar
    62   27   28 ar
    63   28   29 ar
    64   28   65 1
    65   29   30 ar
    66   29   66 1
    67   30   31 ar
    68   30   67 1
    69   31   32 ar
    70   31   68 1
    71   32   69 1
@<TRIPOS>MOLECULE
ZINC03786562
   69    71     0     0     0
SMALL
USER_CHARGES

@<TRIPOS>ATOM
      1 C1         -0.0187    1.5258    0.0104 C.3       1 <0>        -0.1549
      2 C2          0.0021   -0.0041    0.0020 C.3       1 <0>        -0.1254
      3 C3         -1.4333   -0.5336    0.0129 C.3       1 <0>        -0.1204
      4 C4         -1.4126   -2.0635    0.0045 C.3       1 <0>        -0.1183
      5 C5         -2.8479   -2.5931    0.0153 C.3       1 <0>        -0.1398
      6 C6         -2.8272   -4.1229    0.0069 C.3       1 <0>         0.1052
      7 N1         -4.2016   -4.6300    0.0173 N.am      1 <0>        -0.6142
      8 C7         -4.9009   -4.8767   -1.2461 C.3       1 <0>         0.1142
      9 C8         -4.6452   -6.3159   -1.6980 C.3       1 <0>        -0.1329
     10 C9         -5.3755   -6.5736   -3.0175 C.3       1 <0>        -0.1176
     11 C10        -5.1197   -8.0128   -3.4694 C.3       1 <0>        -0.1188
     12 C11        -5.8501   -8.2705   -4.7889 C.3       1 <0>        -0.1258
     13 C12        -5.5943   -9.7097   -5.2408 C.3       1 <0>        -0.1542
     14 C13        -4.8227   -4.8695    1.1892 C.2       1 <0>         0.5135
     15 O1         -5.9605   -5.2893    1.1978 O.2       1 <0>        -0.5216
     16 C14        -4.1033   -4.6157    2.4889 C.3       1 <0>        -0.0706
     17 C15        -5.0111   -4.9608    3.6412 C.2       1 <0>        -0.1240
     18 C16        -5.9464   -4.0596    4.3122 C.ar      1 <0>        -0.0804
     19 C17        -6.2865   -2.7144    4.1402 C.ar      1 <0>        -0.0573
     20 C18        -7.2260   -2.1430    4.9521 C.ar      1 <0>        -0.0557
     21 C19        -7.8455   -2.8886    5.9474 C.ar      1 <0>        -0.0891
     22 C20        -7.5251   -4.2156    6.1339 C.ar      1 <0>        -0.1133
     23 C21        -6.5722   -4.8185    5.3193 C.ar      1 <0>         0.1100
     24 N2         -6.0500   -6.0923    5.2604 N.pl3     1 <0>        -0.5827
     25 H1         -6.3026   -6.8262    5.8421 H         1 <0>         0.4188
     26 C22        -5.1201   -6.1681    4.2493 C.2       1 <0>         0.1355
     27 C23        -4.3545   -7.3794    3.8838 C.ar      1 <0>        -0.0329
     28 C24        -4.2045   -7.7351    2.5427 C.ar      1 <0>        -0.0816
     29 C25        -3.4889   -8.8658    2.2078 C.ar      1 <0>        -0.1062
     30 C26        -2.9202   -9.6475    3.1993 C.ar      1 <0>        -0.0258
     31 C27        -3.0656   -9.2995    4.5316 C.ar      1 <0>        -0.1074
     32 C28        -3.7742   -8.1679    4.8783 C.ar      1 <0>        -0.0923
     33 Cl1        -2.0218  -11.0697    2.7702 Cl        1 <0>        -0.0625
     34 Cl2        -7.6480   -0.4727    4.7383 Cl        1 <0>        -0.0724
     35 H2          1.0039    1.9031    0.0027 H         1 <0>         0.0536
     36 H3         -0.5459    1.8868   -0.8726 H         1 <0>         0.0533
     37 H4         -0.5289    1.8773    0.9072 H         1 <0>         0.0537
     38 H5          0.5123   -0.3556   -0.8948 H         1 <0>         0.0605
     39 H6          0.5293   -0.3651    0.8851 H         1 <0>         0.0609
     40 H7         -1.9435   -0.1821    0.9097 H         1 <0>         0.0620
     41 H8         -1.9605   -0.1726   -0.8702 H         1 <0>         0.0613
     42 H9         -0.9024   -2.4150   -0.8923 H         1 <0>         0.0642
     43 H10        -0.8854   -2.4246    0.8875 H         1 <0>         0.0646
     44 H11        -3.3581   -2.2415    0.9121 H         1 <0>         0.0657
     45 H12        -3.3751   -2.2320   -0.8677 H         1 <0>         0.0678
     46 H13        -2.3170   -4.4744   -0.8899 H         1 <0>         0.0820
     47 H14        -2.3000   -4.4840    0.8900 H         1 <0>         0.0802
     48 H15        -5.9710   -4.7250   -1.1048 H         1 <0>         0.0838
     49 H16        -4.5333   -4.1867   -2.0056 H         1 <0>         0.0759
     50 H17        -3.5751   -6.4676   -1.8394 H         1 <0>         0.0625
     51 H18        -5.0127   -7.0060   -0.9385 H         1 <0>         0.0649
     52 H19        -6.4456   -6.4219   -2.8761 H         1 <0>         0.0640
     53 H20        -5.0079   -5.8836   -3.7770 H         1 <0>         0.0625
     54 H21        -4.0496   -8.1645   -3.6108 H         1 <0>         0.0605
     55 H22        -5.4873   -8.7028   -2.7099 H         1 <0>         0.0608
     56 H23        -6.9202   -8.1188   -4.6475 H         1 <0>         0.0609
     57 H24        -5.4825   -7.5804   -5.5484 H         1 <0>         0.0606
     58 H25        -6.1146   -9.8932   -6.1808 H         1 <0>         0.0536
     59 H26        -4.5242   -9.8614   -5.3821 H         1 <0>         0.0531
     60 H27        -5.9619  -10.3997   -4.4813 H         1 <0>         0.0533
     61 H28        -3.2068   -5.2341    2.5348 H         1 <0>         0.1011
     62 H29        -3.8228   -3.5642    2.5496 H         1 <0>         0.1035
     63 H30        -5.8083   -2.1289    3.3689 H         1 <0>         0.1298
     64 H31        -8.5854   -2.4232    6.5817 H         1 <0>         0.1377
     65 H32        -8.0123   -4.7862    6.9107 H         1 <0>         0.1317
     66 H33        -4.6482   -7.1266    1.7686 H         1 <0>         0.1400
     67 H34        -3.3721   -9.1421    1.1703 H         1 <0>         0.1383
     68 H35        -2.6202   -9.9131    5.3006 H         1 <0>         0.1392
     69 H36        -3.8832   -7.8950    5.9176 H         1 <0>         0.1336
@<TRIPOS>BOND
     1    1    2 1
     2    1   35 1
     3    1   36 1
     4    1   37 1
     5    2    3 1
     6    2   38 1
     7    2   39 1
     8    3    4 1
     9    3   40 1
    10    3   41 1
    11    4    5 1
    12    4   42 1
    13    4   43 1
    14    5    6 1
    15    5   44 1
    16    5   45 1
    17    6    7 1
    18    6   46 1
    19    6   47 1
    20    7    8 1
    21    7   14 am
    22    8    9 1
    23    8   48 1
    24    8   49 1
    25    9   10 1
    26    9   50 1
    27    9   51 1
    28   10   11 1
    29   10   52 1
    30   10   53 1
    31   11   12 1
    32   11   54 1
    33   11   55 1
    34   12   13 1
    35   12   56 1
    36   12   57 1
    37   13   58 1
    38   13   59 1
    39   13   60 1
    40   14   15 2
    41   14   16 1
    42   16   17 1
    43   16   61 1
    44   16   62 1
    45   17   26 2
    46   17   18 1
    47   18   23 ar
    48   18   19 ar
    49   19   20 ar
    50   19   63 1
    51   20   21 ar
    52   20   34 1
    53   21   22 ar
    54   21   64 1
    55   22   23 ar
    56   22   65 1
    57   23   24 1
    58   24   25 1
    59   24   26 1
    60   26   27 1
    61   27   32 ar
    62   27   28 ar
    63   28   29 ar
    64   28   66 1
    65   29   30 ar
    66   29   67 1
    67   30   31 ar
    68   30   33 1
    69   31   32 ar
    70   31   68 1
    71   32   69 1
