@<TRIPOS>MOLECULE
ZINC00347533
   33    35     0     0     0
SMALL
USER_CHARGES

@<TRIPOS>ATOM
      1 C1          0.5631    1.4223    0.1925 C.3       1 <0>         0.0581
      2 N1          0.3227   -0.0202    0.1047 N.am      1 <0>        -0.5556
      3 C2         -0.9933   -0.4534    0.1623 C.ar      1 <0>         0.1855
      4 C3         -1.9464    0.2981   -0.5284 C.ar      1 <0>        -0.1312
      5 C4         -3.2739   -0.0686   -0.5163 C.ar      1 <0>        -0.0641
      6 C5         -3.6780   -1.1934    0.1859 C.ar      1 <0>        -0.0507
      7 C6         -2.7522   -1.9462    0.8720 C.ar      1 <0>        -0.0534
      8 C7         -1.3959   -1.5855    0.8675 C.ar      1 <0>        -0.1216
      9 C8         -0.4610   -2.4380    1.6185 C.2       1 <0>         0.2667
     10 N2          0.7154   -2.7699    1.2188 N.2       1 <0>        -0.4850
     11 C9          1.2544   -2.3099   -0.0605 C.3       1 <0>         0.0240
     12 C10         1.3843   -0.8120   -0.0294 C.2       1 <0>         0.5093
     13 O1          2.4854   -0.3125   -0.1243 O.2       1 <0>        -0.5093
     14 C11        -0.9081   -2.9522    2.9336 C.ar      1 <0>        -0.0652
     15 C12        -0.3327   -4.1058    3.4666 C.ar      1 <0>        -0.0554
     16 C13        -0.7526   -4.5800    4.6919 C.ar      1 <0>        -0.1158
     17 C14        -1.7434   -3.9130    5.3929 C.ar      1 <0>        -0.0166
     18 C15        -2.3183   -2.7675    4.8682 C.ar      1 <0>        -0.1138
     19 C16        -1.9021   -2.2813    3.6464 C.ar      1 <0>        -0.0779
     20 Cl1        -2.2670   -4.5153    6.9345 Cl        1 <0>        -0.0618
     21 Cl2        -5.3522   -1.6524    0.2004 Cl        1 <0>        -0.0519
     22 H1          1.6337    1.6167    0.1296 H         1 <0>         0.1027
     23 H2          0.0534    1.9262   -0.6288 H         1 <0>         0.0743
     24 H3          0.1809    1.7972    1.1419 H         1 <0>         0.0733
     25 H4         -1.6394    1.1761   -1.0773 H         1 <0>         0.1457
     26 H5         -4.0011    0.5212   -1.0545 H         1 <0>         0.1472
     27 H6         -3.0719   -2.8214    1.4181 H         1 <0>         0.1484
     28 H7          2.2344   -2.7574   -0.2258 H         1 <0>         0.1354
     29 H8          0.5790   -2.5980   -0.8660 H         1 <0>         0.0958
     30 H9          0.4398   -4.6269    2.9206 H         1 <0>         0.1453
     31 H10        -0.3080   -5.4732    5.1053 H         1 <0>         0.1405
     32 H11        -3.0909   -2.2514    5.4189 H         1 <0>         0.1404
     33 H12        -2.3480   -1.3855    3.2402 H         1 <0>         0.1366
@<TRIPOS>BOND
     1    1    2 1
     2    1   22 1
     3    1   23 1
     4    1   24 1
     5    2   12 am
     6    2    3 1
     7    3    8 ar
     8    3    4 ar
     9    4    5 ar
    10    4   25 1
    11    5    6 ar
    12    5   26 1
    13    6    7 ar
    14    6   21 1
    15    7    8 ar
    16    7   27 1
    17    8    9 1
    18    9   10 2
    19    9   14 1
    20   10   11 1
    21   11   12 1
    22   11   28 1
    23   11   29 1
    24   12   13 2
    25   14   19 ar
    26   14   15 ar
    27   15   16 ar
    28   15   30 1
    29   16   17 ar
    30   16   31 1
    31   17   18 ar
    32   17   20 1
    33   18   19 ar
    34   18   32 1
    35   19   33 1
@<TRIPOS>MOLECULE
ZINC03780965
   69    71     0     0     0
SMALL
USER_CHARGES

@<TRIPOS>ATOM
      1 C1         -0.0187    1.5258    0.0104 C.3       1 <0>        -0.1548
      2 C2          0.0021   -0.0041    0.0020 C.3       1 <0>        -0.1256
      3 C3          0.7182   -0.4975   -1.2568 C.3       1 <0>        -0.1201
      4 C4          0.7390   -2.0273   -1.2652 C.3       1 <0>        -0.1185
      5 C5          1.4551   -2.5207   -2.5240 C.3       1 <0>        -0.1394
      6 C6          1.4758   -4.0506   -2.5324 C.3       1 <0>         0.1055
      7 N1          2.1616   -4.5230   -3.7377 N.am      1 <0>        -0.6153
      8 C7          3.6091   -4.7477   -3.7165 C.3       1 <0>         0.1144
      9 C8          3.8950   -6.1913   -3.2979 C.3       1 <0>        -0.1332
     10 C9          5.4068   -6.4259   -3.2757 C.3       1 <0>        -0.1175
     11 C10         5.6927   -7.8695   -2.8571 C.3       1 <0>        -0.1190
     12 C11         7.2044   -8.1042   -2.8349 C.3       1 <0>        -0.1257
     13 C12         7.4904   -9.5477   -2.4163 C.3       1 <0>        -0.1542
     14 C13         1.4607   -4.7510   -4.8662 C.2       1 <0>         0.5133
     15 O1          2.0284   -5.1421   -5.8640 O.2       1 <0>        -0.5215
     16 C14        -0.0283   -4.5199   -4.8880 C.3       1 <0>        -0.0684
     17 C15        -0.5672   -4.8461   -6.2570 C.2       1 <0>        -0.1295
     18 C16        -0.6950   -3.9241   -7.3843 C.ar      1 <0>        -0.0897
     19 C17        -0.3970   -2.5704   -7.5664 C.ar      1 <0>        -0.0685
     20 C18        -0.6392   -1.9790   -8.7737 C.ar      1 <0>        -0.1440
     21 C19        -1.1796   -2.7115   -9.8220 C.ar      1 <0>        -0.0963
     22 C20        -1.4810   -4.0468   -9.6650 C.ar      1 <0>        -0.1297
     23 C21        -1.2427   -4.6707   -8.4448 C.ar      1 <0>         0.1063
     24 N2         -1.4327   -5.9567   -7.9887 N.pl3     1 <0>        -0.5867
     25 H1         -1.7989   -6.6861   -8.5130 H         1 <0>         0.4160
     26 C22        -1.0206   -6.0523   -6.6797 C.2       1 <0>         0.1314
     27 C23        -1.0671   -7.2814   -5.8585 C.ar      1 <0>        -0.0459
     28 C24         0.0257   -7.6359   -5.0662 C.ar      1 <0>        -0.0662
     29 C25        -0.0229   -8.7833   -4.3023 C.ar      1 <0>        -0.1497
     30 C26        -1.1542   -9.5835   -4.3206 C.ar      1 <0>         0.1084
     31 C27        -2.2419   -9.2362   -5.1060 C.ar      1 <0>        -0.1507
     32 C28        -2.2061   -8.0877   -5.8689 C.ar      1 <0>        -0.0766
     33 F1         -1.1967  -10.7063   -3.5705 F         1 <0>        -0.1355
     34 H2          1.0039    1.9031    0.0027 H         1 <0>         0.0533
     35 H3         -0.5459    1.8868   -0.8726 H         1 <0>         0.0536
     36 H4         -0.5289    1.8773    0.9072 H         1 <0>         0.0536
     37 H5          0.5293   -0.3651    0.8851 H         1 <0>         0.0605
     38 H6         -1.0205   -0.3814    0.0098 H         1 <0>         0.0610
     39 H7          0.1910   -0.1364   -2.1398 H         1 <0>         0.0619
     40 H8          1.7408   -0.1202   -1.2645 H         1 <0>         0.0612
     41 H9          1.2661   -2.3884   -0.3821 H         1 <0>         0.0641
     42 H10        -0.2836   -2.4046   -1.2575 H         1 <0>         0.0647
     43 H11         0.9279   -2.1597   -3.4071 H         1 <0>         0.0658
     44 H12         2.4777   -2.1435   -2.5317 H         1 <0>         0.0674
     45 H13         2.0030   -4.4117   -1.6494 H         1 <0>         0.0815
     46 H14         0.4533   -4.4279   -2.5247 H         1 <0>         0.0802
     47 H15         4.0190   -4.5697   -4.7106 H         1 <0>         0.0836
     48 H16         4.0724   -4.0645   -3.0047 H         1 <0>         0.0755
     49 H17         3.4851   -6.3693   -2.3037 H         1 <0>         0.0624
     50 H18         3.4317   -6.8745   -4.0097 H         1 <0>         0.0649
     51 H19         5.8167   -6.2479   -4.2699 H         1 <0>         0.0640
     52 H20         5.8701   -5.7427   -2.5639 H         1 <0>         0.0625
     53 H21         5.2828   -8.0475   -1.8630 H         1 <0>         0.0605
     54 H22         5.2294   -8.5528   -3.5689 H         1 <0>         0.0608
     55 H23         7.6144   -7.9261   -3.8291 H         1 <0>         0.0609
     56 H24         7.6678   -7.4209   -2.1232 H         1 <0>         0.0606
     57 H25         8.5674   -9.7149   -2.4005 H         1 <0>         0.0536
     58 H26         7.0804   -9.7258   -1.4222 H         1 <0>         0.0531
     59 H27         7.0271  -10.2310   -3.1281 H         1 <0>         0.0533
     60 H28        -0.5064   -5.1607   -4.1471 H         1 <0>         0.0989
     61 H29        -0.2374   -3.4759   -4.6545 H         1 <0>         0.1021
     62 H30         0.0229   -1.9941   -6.7552 H         1 <0>         0.1179
     63 H31        -0.4087   -0.9332   -8.9137 H         1 <0>         0.1226
     64 H32        -1.3660   -2.2295  -10.7704 H         1 <0>         0.1258
     65 H33        -1.9007   -4.6075  -10.4871 H         1 <0>         0.1206
     66 H34         0.9079   -7.0132   -5.0514 H         1 <0>         0.1400
     67 H35         0.8223   -9.0587   -3.6890 H         1 <0>         0.1399
     68 H36        -3.1209   -9.8637   -5.1173 H         1 <0>         0.1409
     69 H37        -3.0563   -7.8153   -6.4766 H         1 <0>         0.1339
@<TRIPOS>BOND
     1    1    2 1
     2    1   34 1
     3    1   35 1
     4    1   36 1
     5    2    3 1
     6    2   37 1
     7    2   38 1
     8    3    4 1
     9    3   39 1
    10    3   40 1
    11    4    5 1
    12    4   41 1
    13    4   42 1
    14    5    6 1
    15    5   43 1
    16    5   44 1
    17    6    7 1
    18    6   45 1
    19    6   46 1
    20    7    8 1
    21    7   14 am
    22    8    9 1
    23    8   47 1
    24    8   48 1
    25    9   10 1
    26    9   49 1
    27    9   50 1
    28   10   11 1
    29   10   51 1
    30   10   52 1
    31   11   12 1
    32   11   53 1
    33   11   54 1
    34   12   13 1
    35   12   55 1
    36   12   56 1
    37   13   57 1
    38   13   58 1
    39   13   59 1
    40   14   15 2
    41   14   16 1
    42   16   17 1
    43   16   60 1
    44   16   61 1
    45   17   26 2
    46   17   18 1
    47   18   23 ar
    48   18   19 ar
    49   19   20 ar
    50   19   62 1
    51   20   21 ar
    52   20   63 1
    53   21   22 ar
    54   21   64 1
    55   22   23 ar
    56   22   65 1
    57   23   24 1
    58   24   25 1
    59   24   26 1
    60   26   27 1
    61   27   32 ar
    62   27   28 ar
    63   28   29 ar
    64   28   66 1
    65   29   30 ar
    66   29   67 1
    67   30   31 ar
    68   30   33 1
    69   31   32 ar
    70   31   68 1
    71   32   69 1
