@<TRIPOS>MOLECULE
ZINC00001575
   24    24     0     0     0
SMALL
USER_CHARGES

@<TRIPOS>ATOM
      1 C1         -0.0167    1.3782    0.0096 C.ar      1 <0>        -0.1076
      2 C2          1.1697    2.0867    0.0021 C.ar      1 <0>        -0.1315
      3 C3          2.3802    1.4100   -0.0131 C.ar      1 <0>         0.1448
      4 C4          2.3966    0.0221   -0.0208 C.ar      1 <0>        -0.1251
      5 C5          1.2075   -0.6816   -0.0132 C.ar      1 <0>        -0.0575
      6 C6          0.0021   -0.0041    0.0020 C.ar      1 <0>        -0.1153
      7 C7         -1.2934   -0.7739    0.0103 C.3       1 <0>        -0.0843
      8 C8         -1.7456   -1.0267   -1.4293 C.3       1 <0>        -0.0443
      9 H1         -0.9472   -1.5255   -1.9787 H         1 <0>         0.1337
     10 C9         -2.9735   -1.9005   -1.4241 C.2       1 <0>         0.4892
     11 O1         -4.0818   -1.3941   -1.3808 O.co2     1 <0>        -0.6660
     12 O2         -2.8586   -3.1136   -1.4631 O.co2     1 <0>        -0.6329
     13 N1         -2.0590    0.2544   -2.0763 N.4       1 <0>        -0.6155
     14 I1          4.2225   -1.0048   -0.0444 I         1 <0>        -0.0137
     15 O3          3.5483    2.1047   -0.0210 O.3       1 <0>        -0.4858
     16 H2         -0.9594    1.9048    0.0260 H         1 <0>         0.1345
     17 H3          1.1542    3.1666    0.0077 H         1 <0>         0.1431
     18 H4          1.2195   -1.7615   -0.0195 H         1 <0>         0.1415
     19 H5         -1.1462   -1.7274    0.5176 H         1 <0>         0.1184
     20 H6         -2.0554   -0.1972    0.5345 H         1 <0>         0.0988
     21 H7         -2.7981    0.7160   -1.5677 H         1 <0>         0.4326
     22 H8         -1.2369    0.8394   -2.0798 H         1 <0>         0.4116
     23 H9          3.8950    2.3012    0.8601 H         1 <0>         0.3993
     24 H10        -2.3572    0.0877   -3.0257 H         1 <0>         0.4321
@<TRIPOS>BOND
     1    1    6 ar
     2    1    2 ar
     3    1   16 1
     4    2    3 ar
     5    2   17 1
     6    3    4 ar
     7    3   15 1
     8    4    5 ar
     9    4   14 1
    10    5    6 ar
    11    5   18 1
    12    6    7 1
    13    7    8 1
    14    7   19 1
    15    7   20 1
    16    8    9 1
    17    8   10 1
    18    8   13 1
    19   10   11 2
    20   10   12 1
    21   13   21 1
    22   13   22 1
    23   13   24 1
    24   15   23 1
