@<TRIPOS>MOLECULE
ZINC13516897
   16    17     0     0     0
SMALL
USER_CHARGES

@<TRIPOS>ATOM
      1 C1         -0.0184    1.5063    0.0103 C.3       1 <0>        -0.1007
      2 C2          1.4557    1.8630   -0.0018 C.2       1 <0>         0.2109
      3 N1          2.1113    0.7516   -0.0141 N.2       1 <0>        -0.5010
      4 C3          1.3254   -0.3532   -0.0125 C.2       1 <0>         0.3555
      5 C4          0.0021   -0.0041    0.0020 C.2       1 <0>        -0.3233
      6 C5         -0.9904   -0.9920    0.0058 C.2       1 <0>         0.5795
      7 N2         -0.6264   -2.2923   -0.0051 N.am      1 <0>        -0.6553
      8 C6          0.6756   -2.6304   -0.0189 C.2       1 <0>         0.7139
      9 N3          1.6448   -1.6989   -0.0232 N.am      1 <0>        -0.6164
     10 O1          0.9832   -3.8067   -0.0277 O.2       1 <0>        -0.5307
     11 O2         -2.1688   -0.6819    0.0191 O.2       1 <0>        -0.5077
     12 H1         -0.4988    1.8809    0.9142 H         1 <0>         0.1404
     13 H2         -0.5159    1.8906   -0.8802 H         1 <0>         0.1404
     14 H3          1.8766    2.8576   -0.0010 H         1 <0>         0.2174
     15 H4         -1.3057   -2.9847   -0.0026 H         1 <0>         0.4387
     16 H5          2.5753   -1.9726   -0.0335 H         1 <0>         0.4384
@<TRIPOS>BOND
     1    1    5 1
     2    1    2 1
     3    1   12 1
     4    1   13 1
     5    2    3 2
     6    2   14 1
     7    3    4 1
     8    4    9 1
     9    4    5 2
    10    5    6 1
    11    6    7 am
    12    6   11 2
    13    7    8 am
    14    7   15 1
    15    8    9 am
    16    8   10 2
    17    9   16 1
@<TRIPOS>MOLECULE
ZINC13516897
   15    16     0     0     0
SMALL
USER_CHARGES

@<TRIPOS>ATOM
      1 C1         -0.0177    1.4574    0.0101 C.2       1 <0>        -0.1108
      2 C2          1.2638    1.8607   -0.0000 C.2       1 <0>        -0.0445
      3 N1          2.0913    0.7668   -0.0138 N.pl3     1 <0>        -0.5744
      4 C3          1.3524   -0.3796   -0.0129 C.2       1 <0>         0.3843
      5 N2          1.6675   -1.6839   -0.0225 N.2       1 <0>        -0.6386
      6 C4          0.7375   -2.6076   -0.0183 C.2       1 <0>         0.6295
      7 N3         -0.5892   -2.3018   -0.0040 N.am      1 <0>        -0.6714
      8 C5         -0.9896   -1.0101    0.0064 C.2       1 <0>         0.5776
      9 C6          0.0021   -0.0041    0.0020 C.2       1 <0>        -0.3861
     10 O1         -2.1739   -0.7218    0.0189 O.2       1 <0>        -0.5874
     11 O2          1.1077   -3.9060   -0.0288 O.3       1 <0>        -0.6808
     12 H1         -0.8927    2.0903    0.0258 H         1 <0>         0.1335
     13 H2          1.5925    2.8895    0.0020 H         1 <0>         0.1613
     14 H3          3.0606    0.8032   -0.0231 H         1 <0>         0.4080
     15 H4         -1.2492   -3.0126   -0.0015 H         1 <0>         0.3995
@<TRIPOS>BOND
     1    1    9 1
     2    1    2 2
     3    1   12 1
     4    2    3 1
     5    2   13 1
     6    3    4 1
     7    3   14 1
     8    4    9 2
     9    4    5 1
    10    5    6 2
    11    6    7 1
    12    6   11 1
    13    7    8 am
    14    7   15 1
    15    8    9 1
    16    8   10 2
@<TRIPOS>MOLECULE
ZINC13516897
   16    17     0     0     0
SMALL
USER_CHARGES

@<TRIPOS>ATOM
      1 C1         -0.0177    1.4571    0.0101 C.2       1 <0>        -0.1008
      2 C2          1.2660    1.8555   -0.0001 C.2       1 <0>        -0.0041
      3 N1          2.0842    0.7547   -0.0138 N.pl3     1 <0>        -0.5455
      4 H1          3.0537    0.7840   -0.0224 H         1 <0>         0.4229
      5 C3          1.3431   -0.3791   -0.0128 C.2       1 <0>         0.3059
      6 C4          0.0021   -0.0041    0.0020 C.2       1 <0>        -0.2762
      7 C5         -1.0207   -1.0473    0.0062 C.2       1 <0>         0.5857
      8 N2         -0.6213   -2.3385   -0.0046 N.am      1 <0>        -0.6589
      9 C6          0.6843   -2.6540   -0.0183 C.2       1 <0>         0.7229
     10 N3          1.6534   -1.7229   -0.0226 N.am      1 <0>        -0.6251
     11 O1          1.0018   -3.8278   -0.0268 O.2       1 <0>        -0.5400
     12 O2         -2.2037   -0.7607    0.0194 O.2       1 <0>        -0.5018
     13 H2         -0.8915    2.0917    0.0258 H         1 <0>         0.1606
     14 H3          1.6010    2.8822    0.0023 H         1 <0>         0.1875
     15 H4          2.5830   -1.9995   -0.0333 H         1 <0>         0.4304
     16 H5         -1.2853   -3.0456   -0.0020 H         1 <0>         0.4365
@<TRIPOS>BOND
     1    1    6 1
     2    1    2 2
     3    1   13 1
     4    2    3 1
     5    2   14 1
     6    3    4 1
     7    3    5 1
     8    5   10 1
     9    5    6 2
    10    6    7 1
    11    7    8 am
    12    7   12 2
    13    8    9 am
    14    8   16 1
    15    9   10 am
    16    9   11 2
    17   10   15 1
@<TRIPOS>MOLECULE
ZINC13516897
   15    16     0     0     0
SMALL
USER_CHARGES
7H-pyrrolo[3,2-e]pyrimidine-2,4-diol
@<TRIPOS>ATOM
      1 C1          3.7402    1.7099   -0.0254 C.2       1 <0>        -0.1162
      2 C2          4.4521    0.5719   -0.0392 C.2       1 <0>        -0.0405
      3 N1          3.6044   -0.5071   -0.0366 N.pl3     1 <0>        -0.5883
      4 H1          4.0137   -1.5281   -0.0466 H         1 <0>         0.4333
      5 C3          2.3047   -0.0815   -0.0208 C.2       1 <0>         0.3170
      6 C4          2.3287    1.3259   -0.0131 C.2       1 <0>        -0.2756
      7 C5          1.1124    2.0211    0.0023 C.2       1 <0>         0.5056
      8 N2         -0.0159    1.3216    0.0093 N.2       1 <0>        -0.6266
      9 C6          0.0021   -0.0041    0.0020 C.2       1 <0>         0.6198
     10 N3          1.1249   -0.6990   -0.0129 N.am      1 <0>        -0.6117
     11 O1         -1.1771   -0.6716    0.0097 O.2       1 <0>        -0.6782
     12 O2          1.0882    3.3752    0.0094 O.3       1 <0>        -0.6640
     13 H2          4.1339    2.7155   -0.0234 H         1 <0>         0.1428
     14 H3          5.5305    0.5143   -0.0506 H         1 <0>         0.1677
     15 H4          1.0793   -1.7980   -0.0188 H         1 <0>         0.4150
@<TRIPOS>BOND
     1    1    6 1
     2    1    2 2
     3    1   13 1
     4    2    3 1
     5    2   14 1
     6    3    4 1
     7    3    5 1
     8    5   10 1
     9    5    6 2
    10    6    7 1
    11    7    8 2
    12    7   12 1
    13    8    9 1
    14    9   10 am
    15    9   11 2
    16   10   15 1
@<TRIPOS>MOLECULE
ZINC13516897
   15    16     0     0     0
SMALL
USER_CHARGES

@<TRIPOS>ATOM
      1 C1         -0.0184    1.5053    0.0103 C.3       1 <0>        -0.0739
      2 C2          1.4541    1.8668   -0.0018 C.2       1 <0>         0.1600
      3 N1          2.1221    0.7660   -0.0141 N.2       1 <0>        -0.4759
      4 C3          1.3469   -0.3545   -0.0127 C.2       1 <0>         0.3813
      5 C4          0.0021   -0.0041    0.0020 C.2       1 <0>        -0.4553
      6 C5         -0.9770   -0.9945    0.0060 C.2       1 <0>         0.5698
      7 N2         -0.5837   -2.2886   -0.0047 N.am      1 <0>        -0.6618
      8 C6          0.7410   -2.5912   -0.0189 C.2       1 <0>         0.6213
      9 N3          1.6674   -1.6626   -0.0228 N.2       1 <0>        -0.5990
     10 O1          1.1150   -3.8873   -0.0295 O.3       1 <0>        -0.6667
     11 O2         -2.1618   -0.7017    0.0193 O.2       1 <0>        -0.5969
     12 H1         -0.4996    1.8792    0.9140 H         1 <0>         0.1005
     13 H2         -0.5168    1.8889   -0.8800 H         1 <0>         0.1005
     14 H3          1.8670    2.8647   -0.0004 H         1 <0>         0.1944
     15 H4         -1.2450   -2.9982   -0.0018 H         1 <0>         0.4018
@<TRIPOS>BOND
     1    1    5 1
     2    1    2 1
     3    1   12 1
     4    1   13 1
     5    2    3 2
     6    2   14 1
     7    3    4 1
     8    4    9 1
     9    4    5 2
    10    5    6 1
    11    6    7 am
    12    6   11 2
    13    7    8 1
    14    7   15 1
    15    8    9 2
    16    8   10 1
@<TRIPOS>MOLECULE
ZINC06239834
   14    14     0     0     0
SMALL
USER_CHARGES
6-amino-5-chloro-1H-pyrimidine-2,4-dione
@<TRIPOS>ATOM
      1 C1         -0.0215    1.7317    0.0116 C.2       1 <0>        -0.3312
      2 C2         -1.2091    2.4090    0.0208 C.2       1 <0>         0.4977
      3 N1         -1.2020    3.7833    0.0329 N.am      1 <0>        -0.6458
      4 H1         -2.0670    4.2848    0.0474 H         1 <0>         0.4452
      5 C3         -0.0376    4.4578    0.0254 C.2       1 <0>         0.7163
      6 O1         -0.0498    5.6736    0.0312 O.2       1 <0>        -0.5298
      7 N2          1.1400    3.8072    0.0112 N.am      1 <0>        -0.6609
      8 H2          1.9938    4.3277    0.0059 H         1 <0>         0.4441
      9 C4          1.1788    2.4602    0.0040 C.2       1 <0>         0.5720
     10 O2          2.2498    1.8775   -0.0085 O.2       1 <0>        -0.5058
     11 N3         -2.3976    1.7227    0.0231 N.pl3     1 <0>        -0.8268
     12 Cl1         0.0021   -0.0041    0.0020 Cl        1 <0>        -0.0175
     13 H3         -2.3975    0.7527    0.0181 H         1 <0>         0.4297
     14 H4         -3.2376    2.2076    0.0296 H         1 <0>         0.4127
@<TRIPOS>BOND
     1    1    9 1
     2    1    2 2
     3    1   12 1
     4    2    3 1
     5    2   11 1
     6    3    4 1
     7    3    5 am
     8    5    6 2
     9    5    7 am
    10    7    8 1
    11    7    9 am
    12    9   10 2
    13   11   13 1
    14   11   14 1
@<TRIPOS>MOLECULE
ZINC00967243
   14    14     0     0     0
SMALL
USER_CHARGES
6-amino-5-bromo-1H-pyrimidine-2,4-dione
@<TRIPOS>ATOM
      1 C1         -0.0236    1.8867    0.0124 C.2       1 <0>        -0.3868
      2 C2         -1.2113    2.5640    0.0217 C.2       1 <0>         0.5190
      3 N1         -1.2042    3.9381    0.0348 N.am      1 <0>        -0.6462
      4 H1         -2.0692    4.4396    0.0500 H         1 <0>         0.4446
      5 C3         -0.0398    4.6127    0.0273 C.2       1 <0>         0.7176
      6 O1         -0.0521    5.8285    0.0336 O.2       1 <0>        -0.5289
      7 N2          1.1378    3.9621    0.0125 N.am      1 <0>        -0.6611
      8 H2          1.9916    4.4826    0.0071 H         1 <0>         0.4434
      9 C4          1.1767    2.6151    0.0049 C.2       1 <0>         0.5768
     10 O2          2.2476    2.0325   -0.0081 O.2       1 <0>        -0.5043
     11 N3         -2.3994    1.8779    0.0230 N.pl3     1 <0>        -0.8243
     12 Br1         0.0021   -0.0041    0.0020 Br        1 <0>         0.0068
     13 H3         -2.3994    0.9079    0.0174 H         1 <0>         0.4304
     14 H4         -3.2395    2.3628    0.0296 H         1 <0>         0.4130
@<TRIPOS>BOND
     1    1    9 1
     2    1    2 2
     3    1   12 1
     4    2    3 1
     5    2   11 1
     6    3    4 1
     7    3    5 am
     8    5    6 2
     9    5    7 am
    10    7    8 1
    11    7    9 am
    12    9   10 2
    13   11   13 1
    14   11   14 1
@<TRIPOS>MOLECULE
ZINC28376640
   28    29     0     0     0
SMALL
USER_CHARGES
5-chloro-6-[(2-iminopyrrolidin-1-yl)methyl]pyrimidine-2,4-diol
@<TRIPOS>ATOM
      1 C1          1.4956   -0.4233    0.0535 C.3       1 <0>        -0.1381
      2 C2          2.2073    0.8803    0.4828 C.3       1 <0>        -0.1270
      3 C3          1.2615    1.9677    0.0111 C.cat     1 <0>         0.5254
      4 N1          1.5989    3.1663   -0.3383 N.pl3     1 <0>        -0.7455
      5 N2         -0.0110    1.4625    0.0183 N.pl3     1 <0>        -0.5696
      6 C4          0.0123   -0.0046    0.0146 C.3       1 <0>         0.0753
      7 C5         -1.2296    2.2759    0.0226 C.3       1 <0>         0.1358
      8 C6         -1.6446    2.5513    1.4449 C.2       1 <0>         0.1596
      9 C7         -2.5041    1.6898    2.1020 C.2       1 <0>        -0.1562
     10 C8         -2.8527    1.9775    3.4215 C.2       1 <0>         0.4949
     11 N3         -2.3590    3.0682    3.9953 N.am      1 <0>        -0.5837
     12 C9         -1.5437    3.8703    3.3306 C.2       1 <0>         0.6481
     13 N4         -1.1904    3.6213    2.0802 N.am      1 <0>        -0.5808
     14 O1         -1.0582    4.9753    3.9459 O.2       1 <0>        -0.5698
     15 O2         -3.6881    1.1587    4.1060 O.2       1 <0>        -0.5196
     16 Cl1        -3.1344    0.2832    1.3032 Cl        1 <0>         0.0266
     17 H1          1.6276   -1.2385    0.7802 H         1 <0>         0.1207
     18 H2          1.8057   -0.7677   -0.9442 H         1 <0>         0.1067
     19 H3          2.3392    0.8835    1.5749 H         1 <0>         0.1455
     20 H4          3.1912    0.9389   -0.0055 H         1 <0>         0.1358
     21 H5          0.8295    3.8806   -0.6665 H         1 <0>         0.4580
     22 H6         -0.4570   -0.4015   -0.8977 H         1 <0>         0.1145
     23 H7         -0.5055   -0.4067    0.8979 H         1 <0>         0.1076
     24 H8         -1.0369    3.2277   -0.4941 H         1 <0>         0.1249
     25 H9         -2.0342    1.7337   -0.4957 H         1 <0>         0.1574
     26 H10        -0.5105    4.3073    1.5538 H         1 <0>         0.4704
     27 H11        -2.6344    3.3020    5.0343 H         1 <0>         0.4915
     28 H12         2.6553    3.4714   -0.3073 H         1 <0>         0.4917
@<TRIPOS>BOND
     1    1    6 1
     2    1    2 1
     3    1   17 1
     4    1   18 1
     5    2    3 1
     6    2   19 1
     7    2   20 1
     8    3    4 2
     9    3    5 1
    10    4   21 1
    11    4   28 1
    12    5    6 1
    13    5    7 1
    14    6   22 1
    15    6   23 1
    16    7   24 1
    17    7   25 1
    18    7    8 1
    19    8    9 2
    20    8   13 1
    21    9   10 1
    22    9   16 1
    23   10   11 am
    24   10   15 2
    25   11   12 am
    26   11   27 1
    27   12   13 am
    28   12   14 2
    29   13   26 1
@<TRIPOS>MOLECULE
ZINC28376640
   27    28     0     0     0
SMALL
USER_CHARGES
5-chloro-6-[(2-iminopyrrolidin-1-yl)methyl]pyrimidine-2,4-diol
@<TRIPOS>ATOM
      1 C1          1.4956   -0.4233    0.0535 C.3       1 <0>        -0.1373
      2 C2          2.2073    0.8803    0.4828 C.3       1 <0>        -0.1215
      3 C3          1.2615    1.9677    0.0111 C.cat     1 <0>         0.5218
      4 N1          1.5989    3.1663   -0.3383 N.pl3     1 <0>        -0.7414
      5 N2         -0.0110    1.4625    0.0183 N.pl3     1 <0>        -0.5545
      6 C4          0.0123   -0.0046    0.0146 C.3       1 <0>         0.0783
      7 C5         -1.2296    2.2759    0.0226 C.3       1 <0>         0.1577
      8 C6         -1.6446    2.5513    1.4449 C.2       1 <0>         0.2106
      9 C7         -2.5041    1.6898    2.1020 C.2       1 <0>        -0.2861
     10 C8         -2.8527    1.9775    3.4215 C.2       1 <0>         0.4911
     11 N3         -2.3590    3.0682    3.9953 N.am      1 <0>        -0.6094
     12 C9         -1.5437    3.8703    3.3306 C.2       1 <0>         0.6061
     13 N4         -1.1904    3.6213    2.0802 N.2       1 <0>        -0.5940
     14 O1         -1.0582    4.9753    3.9459 O.3       1 <0>        -0.6424
     15 O2         -3.6881    1.1587    4.1060 O.2       1 <0>        -0.6266
     16 Cl1        -3.1344    0.2832    1.3032 Cl        1 <0>        -0.0617
     17 H1          1.6275   -1.2384    0.7803 H         1 <0>         0.1127
     18 H2          1.8057   -0.7678   -0.9441 H         1 <0>         0.0988
     19 H3          2.3393    0.8834    1.5749 H         1 <0>         0.1386
     20 H4          3.1912    0.9389   -0.0056 H         1 <0>         0.1253
     21 H5          0.8295    3.8807   -0.6665 H         1 <0>         0.4629
     22 H6         -0.4569   -0.4014   -0.8978 H         1 <0>         0.1041
     23 H7         -0.5055   -0.4067    0.8979 H         1 <0>         0.1068
     24 H8         -1.0369    3.2277   -0.4940 H         1 <0>         0.1088
     25 H9         -2.0342    1.7337   -0.4957 H         1 <0>         0.1287
     26 H10        -2.6270    3.3127    5.0338 H         1 <0>         0.4448
     27 H11         2.6553    3.4714   -0.3073 H         1 <0>         0.4777
@<TRIPOS>BOND
     1    1    6 1
     2    1    2 1
     3    1   17 1
     4    1   18 1
     5    2    3 1
     6    2   19 1
     7    2   20 1
     8    3    4 2
     9    3    5 1
    10    4   21 1
    11    4   27 1
    12    5    6 1
    13    5    7 1
    14    6   22 1
    15    6   23 1
    16    7   24 1
    17    7   25 1
    18    7    8 1
    19    8    9 2
    20    8   13 1
    21    9   10 1
    22    9   16 1
    23   10   11 am
    24   10   15 2
    25   11   12 1
    26   11   26 1
    27   12   13 2
    28   12   14 1
