@<TRIPOS>MOLECULE
ZINC00391976
   30    32     0     0     0
SMALL
USER_CHARGES
3-(3,4-dihydroxyphenyl)-7-hydroxy-chromen-4-one
@<TRIPOS>ATOM
      1 C1         -0.0126    1.0758    0.0080 C.ar      1 <0>        -0.0794
      2 C2          1.1737    1.7822    0.0004 C.ar      1 <0>        -0.1269
      3 C3          1.1582    3.1680    0.0071 C.ar      1 <0>         0.0856
      4 C4         -0.0543    3.8530    0.0214 C.ar      1 <0>         0.0825
      5 C5         -1.2453    3.1497    0.0295 C.ar      1 <0>        -0.1231
      6 C6         -1.2287    1.7558    0.0174 C.ar      1 <0>        -0.0175
      7 C7         -2.5036    0.9977    0.0198 C.2       1 <0>        -0.2492
      8 C8         -3.4779    1.2848    0.9211 C.2       1 <0>         0.1415
      9 O1         -4.6399    0.6273    0.9573 O.3       1 <0>        -0.2173
     10 C9         -4.9501   -0.3738    0.1101 C.ar      1 <0>         0.1639
     11 C10        -6.1768   -1.0191    0.1982 C.ar      1 <0>        -0.1718
     12 C11        -6.4798   -2.0448   -0.6808 C.ar      1 <0>         0.1767
     13 C12        -5.5643   -2.4380   -1.6550 C.ar      1 <0>        -0.1723
     14 C13        -4.3536   -1.8142   -1.7550 C.ar      1 <0>        -0.0119
     15 C14        -4.0337   -0.7782   -0.8762 C.ar      1 <0>        -0.2313
     16 C15        -2.7397   -0.0771   -0.9592 C.2       1 <0>         0.4312
     17 O2         -1.9038   -0.3752   -1.7949 O.2       1 <0>        -0.4516
     18 O3         -7.6796   -2.6735   -0.5927 O.3       1 <0>        -0.4907
     19 O4         -0.0674    5.2129    0.0279 O.3       1 <0>        -0.4867
     20 O5          2.3289    3.8602   -0.0008 O.3       1 <0>        -0.4878
     21 H1          0.0021   -0.0041    0.0020 H         1 <0>         0.1317
     22 H2          2.1156    1.2537   -0.0110 H         1 <0>         0.1377
     23 H3         -2.1864    3.6795    0.0406 H         1 <0>         0.1351
     24 H4         -3.3067    2.0759    1.6361 H         1 <0>         0.2052
     25 H5         -6.8926   -0.7211    0.9500 H         1 <0>         0.1522
     26 H6         -5.8135   -3.2396   -2.3344 H         1 <0>         0.1445
     27 H7         -3.6462   -2.1217   -2.5109 H         1 <0>         0.1484
     28 H8         -7.6793   -3.4407   -0.0040 H         1 <0>         0.4032
     29 H9         -0.0792    5.6103   -0.8535 H         1 <0>         0.3890
     30 H10         2.6591    4.0645   -0.8865 H         1 <0>         0.3894
@<TRIPOS>BOND
     1    1    6 ar
     2    1    2 ar
     3    1   21 1
     4    2    3 ar
     5    2   22 1
     6    3    4 ar
     7    3   20 1
     8    4    5 ar
     9    4   19 1
    10    5    6 ar
    11    5   23 1
    12    6    7 1
    13    7   16 1
    14    7    8 2
    15    8    9 1
    16    8   24 1
    17    9   10 1
    18   10   15 ar
    19   10   11 ar
    20   11   12 ar
    21   11   25 1
    22   12   13 ar
    23   12   18 1
    24   13   14 ar
    25   13   26 1
    26   14   15 ar
    27   14   27 1
    28   15   16 1
    29   16   17 2
    30   18   28 1
    31   19   29 1
    32   20   30 1
