@<TRIPOS>MOLECULE
ZINC03875720
   18    18     0     0     0
SMALL
USER_CHARGES

@<TRIPOS>ATOM
      1 C1         -0.0032    1.4030   -0.0098 C.ar      1 <0>        -0.1119
      2 C2          1.1745    2.0787    0.2523 C.ar      1 <0>        -0.1114
      3 C3          2.3778    1.4008    0.2444 C.ar      1 <0>        -0.0711
      4 C4          2.4042    0.0391   -0.0271 C.ar      1 <0>         0.1191
      5 C5          1.2196   -0.6366   -0.2900 C.ar      1 <0>        -0.1226
      6 C6          0.0197    0.0471   -0.2806 C.ar      1 <0>        -0.1154
      7 N1          3.6213   -0.6504   -0.0363 N.pl3     1 <0>        -0.6300
      8 C7          4.5454   -0.3990    0.9120 C.2       1 <0>         0.5652
      9 S1          4.1767    0.6575    2.2077 S.2       1 <0>        -0.6132
     10 N2          5.7597   -0.9794    0.8404 N.pl3     1 <0>        -0.7982
     11 H1         -0.9433    1.9345    0.0014 H         1 <0>         0.1256
     12 H2          1.1533    3.1377    0.4630 H         1 <0>         0.1289
     13 H3          3.2973    1.9292    0.4489 H         1 <0>         0.1421
     14 H4          1.2368   -1.6955   -0.5018 H         1 <0>         0.1234
     15 H5         -0.9018   -0.4777   -0.4850 H         1 <0>         0.1277
     16 H6          3.8002   -1.3094   -0.7253 H         1 <0>         0.4076
     17 H7          5.9685   -1.5780    0.1062 H         1 <0>         0.3984
     18 H8          6.4247   -0.7985    1.5229 H         1 <0>         0.4360
@<TRIPOS>BOND
     1    1    6 ar
     2    1    2 ar
     3    1   11 1
     4    2    3 ar
     5    2   12 1
     6    3    4 ar
     7    3   13 1
     8    4    5 ar
     9    4    7 1
    10    5    6 ar
    11    5   14 1
    12    6   15 1
    13    7    8 1
    14    7   16 1
    15    8    9 2
    16    8   10 1
    17   10   17 1
    18   10   18 1
@<TRIPOS>MOLECULE
ZINC13831818
   16    16     0     0     0
SMALL
USER_CHARGES

@<TRIPOS>ATOM
      1 C1         -0.0171    1.4131    0.0098 C.2       1 <0>        -0.2924
      2 C2          1.1530    2.0832    0.0022 C.2       1 <0>         0.1423
      3 O1          2.3210    1.4311   -0.0129 O.3       1 <0>        -0.1930
      4 C3          2.3885    0.0927   -0.0207 C.2       1 <0>        -0.0148
      5 C4          1.2651   -0.6579   -0.0136 C.2       1 <0>        -0.0350
      6 C5          0.0021   -0.0041    0.0020 C.2       1 <0>         0.4041
      7 O2         -1.0373   -0.6461    0.0085 O.2       1 <0>        -0.4653
      8 O3          1.3407   -2.0167   -0.0221 O.3       1 <0>        -0.4448
      9 C6          1.1448    3.5901    0.0104 C.3       1 <0>         0.1257
     10 O4          1.7232    4.0630    1.2285 O.3       1 <0>        -0.5613
     11 H1         -0.9550    1.9483    0.0261 H         1 <0>         0.1668
     12 H2          3.3534   -0.3923   -0.0333 H         1 <0>         0.2017
     13 H3          2.2446   -2.3602   -0.0332 H         1 <0>         0.3963
     14 H4          1.7242    3.9612   -0.8350 H         1 <0>         0.0811
     15 H5          0.1183    3.9483   -0.0674 H         1 <0>         0.0934
     16 H6          1.7509    5.0268    1.3027 H         1 <0>         0.3953
@<TRIPOS>BOND
     1    1    6 1
     2    1    2 2
     3    1   11 1
     4    2    3 1
     5    2    9 1
     6    3    4 1
     7    4    5 2
     8    4   12 1
     9    5    6 1
    10    5    8 1
    11    6    7 2
    12    8   13 1
    13    9   10 1
    14    9   14 1
    15    9   15 1
    16   10   16 1
@<TRIPOS>MOLECULE
ZINC13831818
   15    15     0     0     0
SMALL
USER_CHARGES

@<TRIPOS>ATOM
      1 C1         -0.0171    1.4131    0.0098 C.2       1 <0>        -0.3534
      2 C2          1.1530    2.0832    0.0022 C.2       1 <0>         0.1194
      3 O1          2.3210    1.4311   -0.0129 O.3       1 <0>        -0.1936
      4 C3          2.3885    0.0927   -0.0207 C.2       1 <0>        -0.2354
      5 C4          1.2651   -0.6579   -0.0136 C.2       1 <0>         0.1290
      6 C5          0.0021   -0.0041    0.0020 C.2       1 <0>         0.3612
      7 O2         -1.0373   -0.6461    0.0085 O.2       1 <0>        -0.5186
      8 O3          1.3407   -2.0167   -0.0221 O.3       1 <0>        -0.7019
      9 C6          1.1448    3.5901    0.0104 C.3       1 <0>         0.1348
     10 O4          1.7232    4.0630    1.2285 O.3       1 <0>        -0.5611
     11 H1         -0.9550    1.9483    0.0261 H         1 <0>         0.1293
     12 H2          3.3534   -0.3923   -0.0333 H         1 <0>         0.1675
     13 H3          1.7242    3.9612   -0.8350 H         1 <0>         0.0662
     14 H4          0.1183    3.9483   -0.0674 H         1 <0>         0.0772
     15 H5          1.7509    5.0268    1.3027 H         1 <0>         0.3795
@<TRIPOS>BOND
     1    1    6 1
     2    1    2 2
     3    1   11 1
     4    2    3 1
     5    2    9 1
     6    3    4 1
     7    4    5 2
     8    4   12 1
     9    5    6 1
    10    5    8 1
    11    6    7 2
    12    9   10 1
    13    9   13 1
    14    9   14 1
    15   10   15 1
@<TRIPOS>MOLECULE
ZINC13589376
   24    24     0     0     0
SMALL
USER_CHARGES
2-hydroxy-4-isopropyl-benzaldehyde
@<TRIPOS>ATOM
      1 C1          1.4227    1.6154   -0.0028 C.3       1 <0>        -0.1456
      2 C2         -0.0127    1.0858    0.0080 C.3       1 <0>        -0.0640
      3 C3         -0.7527    1.5927   -1.2315 C.3       1 <0>        -0.1460
      4 C4         -0.7181    1.5718    1.2479 C.ar      1 <0>        -0.0244
      5 C5         -0.8534    2.9328    1.4741 C.ar      1 <0>        -0.1413
      6 C6         -1.5000    3.3896    2.6005 C.ar      1 <0>        -0.0506
      7 C7         -2.0141    2.4759    3.5286 C.ar      1 <0>        -0.2294
      8 C8         -1.8696    1.0982    3.2973 C.ar      1 <0>         0.1716
      9 C9         -1.2200    0.6587    2.1535 C.ar      1 <0>        -0.1626
     10 O1         -2.3631    0.2023    4.1876 O.3       1 <0>        -0.4820
     11 C10        -2.6998    2.9547    4.7348 C.2       1 <0>         0.3772
     12 O2         -3.1440    2.1596    5.5359 O.2       1 <0>        -0.4461
     13 H1          1.4079    2.7053    0.0031 H         1 <0>         0.0593
     14 H2          1.9499    1.2543    0.8802 H         1 <0>         0.0571
     15 H3          1.9329    1.2639   -0.8996 H         1 <0>         0.0624
     16 H4          0.0021   -0.0041    0.0020 H         1 <0>         0.0817
     17 H5         -1.7753    1.2154   -1.2238 H         1 <0>         0.0577
     18 H6         -0.7675    2.6825   -1.2255 H         1 <0>         0.0593
     19 H7         -0.2425    1.2411   -2.1283 H         1 <0>         0.0625
     20 H8         -0.4530    3.6383    0.7611 H         1 <0>         0.1314
     21 H9         -1.6065    4.4509    2.7701 H         1 <0>         0.1371
     22 H10        -1.1063   -0.3997    1.9710 H         1 <0>         0.1338
     23 H11        -1.7368   -0.0500    4.8799 H         1 <0>         0.3966
     24 H12        -2.8089    4.0150    4.9090 H         1 <0>         0.1045
@<TRIPOS>BOND
     1    1    2 1
     2    1   13 1
     3    1   14 1
     4    1   15 1
     5    2    3 1
     6    2    4 1
     7    2   16 1
     8    3   17 1
     9    3   18 1
    10    3   19 1
    11    4    9 ar
    12    4    5 ar
    13    5    6 ar
    14    5   20 1
    15    6    7 ar
    16    6   21 1
    17    7    8 ar
    18    7   11 1
    19    8    9 ar
    20    8   10 1
    21    9   22 1
    22   10   23 1
    23   11   12 2
    24   11   24 1
