@<TRIPOS>MOLECULE
ZINC49112623
   46    49     0     0     0
SMALL
USER_CHARGES

@<TRIPOS>ATOM
      1 C1         -0.0164    1.3567    0.0095 C.ar      1 <0>        -0.1147
      2 C2          1.1685    2.0906    0.0021 C.ar      1 <0>        -0.0969
      3 C3          2.3785    1.4679   -0.0132 C.ar      1 <0>        -0.1259
      4 C4          2.4378    0.0637   -0.0214 C.ar      1 <0>        -0.0279
      5 C5          1.2328   -0.6827   -0.0134 C.ar      1 <0>        -0.0539
      6 C6          0.0021   -0.0041    0.0020 C.ar      1 <0>        -0.0971
      7 C7          1.2920   -2.0865   -0.0210 C.ar      1 <0>        -0.0806
      8 C8          2.5022   -2.7094   -0.0359 C.ar      1 <0>        -0.1250
      9 C9          3.6867   -1.9757   -0.0433 C.ar      1 <0>        -0.0832
     10 C10         3.6681   -0.6146   -0.0367 C.ar      1 <0>        -0.0971
     11 C11         4.9603    0.1606   -0.0459 C.3       1 <0>        -0.0024
     12 C12         5.3414    0.5186    1.3675 C.2       1 <0>         0.2920
     13 N1          4.6689    0.2052    2.4252 N.2       1 <0>        -0.2727
     14 N2          5.3518    0.7183    3.5378 N.pl3     1 <0>        -0.4427
     15 C13         6.4516    1.3429    3.0648 C.2       1 <0>         0.4066
     16 S1          7.6424    2.1466    3.9958 S.2       1 <0>        -0.3723
     17 O1          6.4404    1.2109    1.7272 O.3       1 <0>        -0.1970
     18 C14         4.9494    0.6001    4.9415 C.3       1 <0>         0.2666
     19 N3          5.2158   -0.7651    5.4139 N.4       1 <0>        -0.4027
     20 C15         4.3682   -1.7104    4.6773 C.3       1 <0>        -0.0154
     21 C16         4.6995   -3.1409    5.1078 C.3       1 <0>        -0.1422
     22 C17         4.4441   -3.2879    6.6106 C.3       1 <0>        -0.1393
     23 C18         5.2773   -2.2473    7.3643 C.3       1 <0>        -0.1436
     24 C19         4.9247   -0.8499    6.8501 C.3       1 <0>        -0.0055
     25 H1         -0.9634    1.8756    0.0259 H         1 <0>         0.1290
     26 H2          1.1258    3.1698    0.0084 H         1 <0>         0.1267
     27 H3          3.2883    2.0497   -0.0195 H         1 <0>         0.1196
     28 H4         -0.9241   -0.5595    0.0082 H         1 <0>         0.1325
     29 H5          0.3820   -2.6682   -0.0147 H         1 <0>         0.1330
     30 H6          2.5450   -3.7886   -0.0417 H         1 <0>         0.1298
     31 H7          4.6338   -2.4947   -0.0548 H         1 <0>         0.1256
     32 H8          5.7467   -0.4491   -0.4909 H         1 <0>         0.1359
     33 H9          4.8331    1.0722   -0.6299 H         1 <0>         0.1347
     34 H10         5.5168    1.3100    5.5432 H         1 <0>         0.1825
     35 H11         3.8848    0.8151    5.0336 H         1 <0>         0.1693
     36 H12         3.3202   -1.5006    4.8909 H         1 <0>         0.1336
     37 H13         4.5488   -1.6023    3.6078 H         1 <0>         0.1327
     38 H14         4.0679   -3.8410    4.5611 H         1 <0>         0.1139
     39 H15         5.7474   -3.3518    4.8944 H         1 <0>         0.0855
     40 H16         3.3861   -3.1272    6.8179 H         1 <0>         0.0839
     41 H17         4.7320   -4.2885    6.9331 H         1 <0>         0.0967
     42 H18         5.0588   -2.3087    8.4304 H         1 <0>         0.1186
     43 H19         6.3372   -2.4397    7.1976 H         1 <0>         0.0897
     44 H20         5.5161   -0.1065    7.3847 H         1 <0>         0.1391
     45 H21         3.8648   -0.6584    7.0174 H         1 <0>         0.1357
     46 H22         6.1860   -0.9917    5.2545 H         1 <0>         0.4249
@<TRIPOS>BOND
     1    1    6 ar
     2    1    2 ar
     3    1   25 1
     4    2    3 ar
     5    2   26 1
     6    3    4 ar
     7    3   27 1
     8    4   10 ar
     9    4    5 ar
    10    5    6 ar
    11    5    7 ar
    12    6   28 1
    13    7    8 ar
    14    7   29 1
    15    8    9 ar
    16    8   30 1
    17    9   10 ar
    18    9   31 1
    19   10   11 1
    20   11   12 1
    21   11   32 1
    22   11   33 1
    23   12   17 1
    24   12   13 2
    25   13   14 1
    26   14   15 1
    27   14   18 1
    28   15   16 2
    29   15   17 1
    30   18   19 1
    31   18   34 1
    32   18   35 1
    33   19   24 1
    34   19   20 1
    35   19   46 1
    36   20   21 1
    37   20   36 1
    38   20   37 1
    39   21   22 1
    40   21   38 1
    41   21   39 1
    42   22   23 1
    43   22   40 1
    44   22   41 1
    45   23   24 1
    46   23   42 1
    47   23   43 1
    48   24   44 1
    49   24   45 1
@<TRIPOS>MOLECULE
ZINC49051632
   43    46     0     0     0
SMALL
USER_CHARGES

@<TRIPOS>ATOM
      1 C1         -0.0164    1.3567    0.0095 C.ar      1 <0>        -0.1172
      2 C2          1.1685    2.0906    0.0021 C.ar      1 <0>        -0.1050
      3 C3          2.3785    1.4679   -0.0132 C.ar      1 <0>        -0.1172
      4 C4          2.4378    0.0637   -0.0214 C.ar      1 <0>        -0.0280
      5 C5          1.2328   -0.6827   -0.0134 C.ar      1 <0>        -0.0529
      6 C6          0.0021   -0.0041    0.0020 C.ar      1 <0>        -0.1002
      7 C7          1.2920   -2.0865   -0.0210 C.ar      1 <0>        -0.0897
      8 C8          2.5022   -2.7094   -0.0359 C.ar      1 <0>        -0.1190
      9 C9          3.6867   -1.9757   -0.0433 C.ar      1 <0>        -0.0847
     10 C10         3.6681   -0.6146   -0.0367 C.ar      1 <0>        -0.0856
     11 C11         4.9603    0.1606   -0.0459 C.3       1 <0>         0.0073
     12 C12         5.3414    0.5186    1.3675 C.2       1 <0>         0.2446
     13 N1          4.6689    0.2052    2.4252 N.2       1 <0>        -0.2535
     14 N2          5.3518    0.7183    3.5378 N.pl3     1 <0>        -0.3787
     15 C13         6.4516    1.3429    3.0648 C.2       1 <0>         0.4233
     16 S1          7.6424    2.1466    3.9958 S.2       1 <0>        -0.4600
     17 O1          6.4404    1.2109    1.7272 O.3       1 <0>        -0.2119
     18 C14         4.9494    0.6001    4.9415 C.3       1 <0>         0.3058
     19 N3          5.2158   -0.7651    5.4139 N.3       1 <0>        -0.5495
     20 C15         4.1404   -1.6821    5.0089 C.3       1 <0>         0.0147
     21 C16         4.4866   -3.1008    5.4687 C.3       1 <0>         0.0660
     22 O2          4.6937   -3.1007    6.8837 O.3       1 <0>        -0.3823
     23 C17         5.7346   -2.2189    7.3132 C.3       1 <0>         0.0643
     24 C18         5.4011   -0.7913    6.8721 C.3       1 <0>         0.0235
     25 H1         -0.9634    1.8756    0.0259 H         1 <0>         0.1251
     26 H2          1.1258    3.1698    0.0084 H         1 <0>         0.1241
     27 H3          3.2883    2.0497   -0.0195 H         1 <0>         0.1211
     28 H4         -0.9241   -0.5595    0.0082 H         1 <0>         0.1292
     29 H5          0.3820   -2.6682   -0.0147 H         1 <0>         0.1300
     30 H6          2.5450   -3.7886   -0.0417 H         1 <0>         0.1279
     31 H7          4.6338   -2.4947   -0.0548 H         1 <0>         0.1257
     32 H8          5.7467   -0.4491   -0.4909 H         1 <0>         0.1264
     33 H9          4.8331    1.0722   -0.6299 H         1 <0>         0.1242
     34 H10         5.5168    1.3100    5.5432 H         1 <0>         0.1370
     35 H11         3.8848    0.8151    5.0336 H         1 <0>         0.0875
     36 H12         3.2029   -1.3691    5.4684 H         1 <0>         0.0507
     37 H13         4.0378   -1.6660    3.9238 H         1 <0>         0.0942
     38 H14         3.6660   -3.7741    5.2210 H         1 <0>         0.1017
     39 H15         5.3956   -3.4341    4.9678 H         1 <0>         0.0592
     40 H16         5.8166   -2.2544    8.3995 H         1 <0>         0.1059
     41 H17         6.6798   -2.5266    6.8660 H         1 <0>         0.0628
     42 H18         6.2186   -0.1250    7.1471 H         1 <0>         0.0988
     43 H19         4.4837   -0.4641    7.3614 H         1 <0>         0.0542
@<TRIPOS>BOND
     1    1    6 ar
     2    1    2 ar
     3    1   25 1
     4    2    3 ar
     5    2   26 1
     6    3    4 ar
     7    3   27 1
     8    4   10 ar
     9    4    5 ar
    10    5    6 ar
    11    5    7 ar
    12    6   28 1
    13    7    8 ar
    14    7   29 1
    15    8    9 ar
    16    8   30 1
    17    9   10 ar
    18    9   31 1
    19   10   11 1
    20   11   12 1
    21   11   32 1
    22   11   33 1
    23   12   17 1
    24   12   13 2
    25   13   14 1
    26   14   15 1
    27   14   18 1
    28   15   16 2
    29   15   17 1
    30   18   19 1
    31   18   34 1
    32   18   35 1
    33   19   24 1
    34   19   20 1
    35   20   21 1
    36   20   36 1
    37   20   37 1
    38   21   22 1
    39   21   38 1
    40   21   39 1
    41   22   23 1
    42   23   24 1
    43   23   40 1
    44   23   41 1
    45   24   42 1
    46   24   43 1
@<TRIPOS>MOLECULE
ZINC49051632
   44    47     0     0     0
SMALL
USER_CHARGES

@<TRIPOS>ATOM
      1 C1         -0.0164    1.3567    0.0095 C.ar      1 <0>        -0.1146
      2 C2          1.1685    2.0906    0.0021 C.ar      1 <0>        -0.0965
      3 C3          2.3785    1.4679   -0.0132 C.ar      1 <0>        -0.1265
      4 C4          2.4378    0.0637   -0.0214 C.ar      1 <0>        -0.0280
      5 C5          1.2328   -0.6827   -0.0134 C.ar      1 <0>        -0.0540
      6 C6          0.0021   -0.0041    0.0020 C.ar      1 <0>        -0.0967
      7 C7          1.2920   -2.0865   -0.0210 C.ar      1 <0>        -0.0798
      8 C8          2.5022   -2.7094   -0.0359 C.ar      1 <0>        -0.1256
      9 C9          3.6867   -1.9757   -0.0433 C.ar      1 <0>        -0.0834
     10 C10         3.6681   -0.6146   -0.0367 C.ar      1 <0>        -0.0980
     11 C11         4.9603    0.1606   -0.0459 C.3       1 <0>        -0.0027
     12 C12         5.3414    0.5186    1.3675 C.2       1 <0>         0.2942
     13 N1          4.6689    0.2052    2.4252 N.2       1 <0>        -0.2746
     14 N2          5.3518    0.7183    3.5378 N.pl3     1 <0>        -0.4442
     15 C13         6.4516    1.3429    3.0648 C.2       1 <0>         0.4057
     16 S1          7.6424    2.1466    3.9958 S.2       1 <0>        -0.3688
     17 O1          6.4404    1.2109    1.7272 O.3       1 <0>        -0.1964
     18 C14         4.9494    0.6001    4.9415 C.3       1 <0>         0.2679
     19 N3          5.2158   -0.7651    5.4139 N.4       1 <0>        -0.4060
     20 C15         4.3609   -1.7117    4.6844 C.3       1 <0>        -0.0498
     21 C16         4.6405   -3.1333    5.1782 C.3       1 <0>         0.0409
     22 O2          4.4100   -3.1965    6.5884 O.3       1 <0>        -0.3531
     23 C17         5.2035   -2.2749    7.3414 C.3       1 <0>         0.0383
     24 C18         4.9248   -0.8517    6.8516 C.3       1 <0>        -0.0420
     25 H1         -0.9634    1.8756    0.0259 H         1 <0>         0.1292
     26 H2          1.1258    3.1698    0.0084 H         1 <0>         0.1267
     27 H3          3.2883    2.0497   -0.0195 H         1 <0>         0.1194
     28 H4         -0.9241   -0.5595    0.0082 H         1 <0>         0.1328
     29 H5          0.3820   -2.6682   -0.0147 H         1 <0>         0.1334
     30 H6          2.5450   -3.7886   -0.0417 H         1 <0>         0.1302
     31 H7          4.6338   -2.4947   -0.0548 H         1 <0>         0.1257
     32 H8          5.7467   -0.4491   -0.4909 H         1 <0>         0.1364
     33 H9          4.8331    1.0722   -0.6299 H         1 <0>         0.1352
     34 H10         5.5168    1.3100    5.5432 H         1 <0>         0.1843
     35 H11         3.8848    0.8151    5.0336 H         1 <0>         0.1712
     36 H12         3.3136   -1.4653    4.8596 H         1 <0>         0.1451
     37 H13         4.5760   -1.6484    3.6177 H         1 <0>         0.1427
     38 H14         3.9771   -3.8325    4.6693 H         1 <0>         0.1444
     39 H15         5.6774   -3.3947    4.9668 H         1 <0>         0.0800
     40 H16         4.9474   -2.3528    8.3980 H         1 <0>         0.1486
     41 H17         6.2596   -2.5069    7.2040 H         1 <0>         0.0839
     42 H18         5.5587   -0.1499    7.3937 H         1 <0>         0.1522
     43 H19         3.8774   -0.6056    7.0260 H         1 <0>         0.1468
     44 H20         6.1852   -0.9938    5.2525 H         1 <0>         0.4256
@<TRIPOS>BOND
     1    1    6 ar
     2    1    2 ar
     3    1   25 1
     4    2    3 ar
     5    2   26 1
     6    3    4 ar
     7    3   27 1
     8    4   10 ar
     9    4    5 ar
    10    5    6 ar
    11    5    7 ar
    12    6   28 1
    13    7    8 ar
    14    7   29 1
    15    8    9 ar
    16    8   30 1
    17    9   10 ar
    18    9   31 1
    19   10   11 1
    20   11   12 1
    21   11   32 1
    22   11   33 1
    23   12   17 1
    24   12   13 2
    25   13   14 1
    26   14   15 1
    27   14   18 1
    28   15   16 2
    29   15   17 1
    30   18   19 1
    31   18   34 1
    32   18   35 1
    33   19   24 1
    34   19   20 1
    35   19   44 1
    36   20   21 1
    37   20   36 1
    38   20   37 1
    39   21   22 1
    40   21   38 1
    41   21   39 1
    42   22   23 1
    43   23   24 1
    44   23   40 1
    45   23   41 1
    46   24   42 1
    47   24   43 1
@<TRIPOS>MOLECULE
ZINC13532602
   22    23     0     0     0
SMALL
USER_CHARGES

@<TRIPOS>ATOM
      1 C1         -0.0037    1.3098    0.6363 C.ar      1 <0>        -0.0463
      2 C2          1.1811    1.9774    0.8621 C.ar      1 <0>        -0.1486
      3 C3          2.3782    1.2751    0.9067 C.ar      1 <0>         0.1422
      4 C4          2.3869   -0.1015    0.7237 C.ar      1 <0>        -0.1472
      5 C5          1.2062   -0.7759    0.4974 C.ar      1 <0>        -0.0670
      6 C6          0.0011   -0.0736    0.4524 C.ar      1 <0>        -0.0631
      7 C7         -1.2682   -0.7938    0.2104 C.2       1 <0>         0.3463
      8 N1         -2.4609   -0.2684    0.2480 N.2       1 <0>        -0.2635
      9 N2         -3.3894   -1.2790   -0.0363 N.pl3     1 <0>        -0.4595
     10 H1         -4.3532   -1.1774   -0.0772 H         1 <0>         0.4741
     11 C8         -2.6983   -2.4188   -0.2426 C.2       1 <0>         0.4459
     12 S1         -3.3638   -3.9492   -0.6245 S.2       1 <0>        -0.5639
     13 N3         -1.3886   -2.1341   -0.0993 N.pl3     1 <0>        -0.3324
     14 N4         -0.3576   -3.0201   -0.2338 N.3       1 <0>        -0.5676
     15 O1          3.5439    1.9364    1.1295 O.3       1 <0>        -0.4967
     16 H2         -0.9348    1.8560    0.6062 H         1 <0>         0.1433
     17 H3          1.1782    3.0480    1.0042 H         1 <0>         0.1426
     18 H4          3.3200   -0.6443    0.7583 H         1 <0>         0.1425
     19 H5          1.2137   -1.8465    0.3552 H         1 <0>         0.1539
     20 H6         -0.7027   -3.9574   -0.3764 H         1 <0>         0.3971
     21 H7          0.2606   -2.7446   -0.9821 H         1 <0>         0.3680
     22 H8          3.7809    2.0118    2.0639 H         1 <0>         0.4000
@<TRIPOS>BOND
     1    1    6 ar
     2    1    2 ar
     3    1   16 1
     4    2    3 ar
     5    2   17 1
     6    3    4 ar
     7    3   15 1
     8    4    5 ar
     9    4   18 1
    10    5    6 ar
    11    5   19 1
    12    6    7 1
    13    7   13 1
    14    7    8 2
    15    8    9 1
    16    9   10 1
    17    9   11 1
    18   11   12 2
    19   11   13 1
    20   13   14 1
    21   14   20 1
    22   14   21 1
    23   15   22 1
@<TRIPOS>MOLECULE
ZINC13532602
   21    22     0     0     0
SMALL
USER_CHARGES

@<TRIPOS>ATOM
      1 C1         -0.1091    1.4241   -0.4942 C.2       1 <0>        -0.0090
      2 C2          1.0279    2.1354   -0.7339 C.2       1 <0>        -0.2667
      3 C3          2.2450    1.4669   -0.9307 C.2       1 <0>         0.3224
      4 O1          3.3588    2.1638   -1.1654 O.2       1 <0>        -0.6583
      5 C4          2.2919    0.0661   -0.8803 C.2       1 <0>        -0.2606
      6 C5          1.1548   -0.6454   -0.6411 C.2       1 <0>        -0.0117
      7 C6         -0.0624    0.0231   -0.4443 C.2       1 <0>        -0.2592
      8 C7         -1.2859   -0.7425   -0.1859 C.2       1 <0>         0.4613
      9 N1         -1.4025   -2.0787   -0.2056 N.pl3     1 <0>        -0.4694
     10 N2         -2.7362   -2.3887    0.0945 N.2       1 <0>        -0.3107
     11 C8         -3.3771   -1.2670    0.2833 C.2       1 <0>         0.4000
     12 S1         -5.0854   -1.1137    0.6871 S.3       1 <0>        -0.7125
     13 N3         -2.4973   -0.2294    0.1207 N.pl3     1 <0>        -0.3311
     14 N4         -2.7950    1.0980    0.2446 N.3       1 <0>        -0.5711
     15 H1         -1.0455    1.9391   -0.3382 H         1 <0>         0.1297
     16 H2          0.9920    3.2141   -0.7726 H         1 <0>         0.1139
     17 H3          3.2292   -0.4486   -1.0315 H         1 <0>         0.1137
     18 H4          1.1908   -1.7241   -0.6030 H         1 <0>         0.1013
     19 H5         -0.6938   -2.7139   -0.3932 H         1 <0>         0.4621
     20 H6         -3.7838    1.2345    0.3921 H         1 <0>         0.3932
     21 H7         -2.2570    1.5216    0.9857 H         1 <0>         0.3627
@<TRIPOS>BOND
     1    1    7 1
     2    1    2 2
     3    1   15 1
     4    2    3 1
     5    2   16 1
     6    3    4 2
     7    3    5 1
     8    5    6 2
     9    5   17 1
    10    6    7 1
    11    6   18 1
    12    7    8 2
    13    8   13 1
    14    8    9 1
    15    9   10 1
    16    9   19 1
    17   10   11 2
    18   11   12 1
    19   11   13 1
    20   13   14 1
    21   14   20 1
    22   14   21 1
@<TRIPOS>MOLECULE
ZINC00395525
   17    18     0     0     0
SMALL
USER_CHARGES

@<TRIPOS>ATOM
      1 C1         -0.0167    1.3794    0.0096 C.ar      1 <0>        -0.1194
      2 C2          1.1683    2.0937    0.0021 C.ar      1 <0>        -0.1201
      3 C3          2.3774    1.4298   -0.0130 C.ar      1 <0>        -0.0853
      4 C4          2.4036    0.0339   -0.0208 C.ar      1 <0>         0.0176
      5 C5          1.2042   -0.6806   -0.0131 C.ar      1 <0>        -0.0994
      6 C6          0.0021   -0.0041    0.0020 C.ar      1 <0>        -0.1194
      7 C7          3.6949   -0.6840   -0.0375 C.2       1 <0>         0.1166
      8 N1          4.8863   -0.1377   -0.0406 N.2       1 <0>        -0.2642
      9 N2          5.7807   -1.0623   -0.0557 N.2       1 <0>        -0.3429
     10 C8          5.1945   -2.2373   -0.0628 C.2       1 <0>         0.3393
     11 S1          5.9998   -3.8044   -0.0835 S.3       1 <0>        -0.7261
     12 O1          3.8648   -2.0247   -0.0464 O.3       1 <0>        -0.2367
     13 H1         -0.9605    1.9041    0.0260 H         1 <0>         0.1223
     14 H2          1.1466    3.1735    0.0078 H         1 <0>         0.1270
     15 H3          3.3016    1.9885   -0.0192 H         1 <0>         0.1359
     16 H4          1.2174   -1.7605   -0.0194 H         1 <0>         0.1291
     17 H5         -0.9265   -0.5555    0.0079 H         1 <0>         0.1255
@<TRIPOS>BOND
     1    1    6 ar
     2    1    2 ar
     3    1   13 1
     4    2    3 ar
     5    2   14 1
     6    3    4 ar
     7    3   15 1
     8    4    5 ar
     9    4    7 1
    10    5    6 ar
    11    5   16 1
    12    6   17 1
    13    7   12 1
    14    7    8 2
    15    8    9 1
    16    9   10 2
    17   10   11 1
    18   10   12 1
@<TRIPOS>MOLECULE
ZINC02379869
   20    21     0     0     0
SMALL
USER_CHARGES
5-benzyl-3H-1,3,4-oxadiazole-2-thione
@<TRIPOS>ATOM
      1 C1          2.3960    0.0285   -0.0217 C.ar      1 <0>        -0.1225
      2 C2          1.2084   -0.6789   -0.0136 C.ar      1 <0>        -0.1226
      3 C3          0.0021   -0.0041    0.0020 C.ar      1 <0>        -0.1054
      4 C4         -0.0167    1.3781    0.0096 C.ar      1 <0>        -0.0823
      5 C5          1.1709    2.0855    0.0021 C.ar      1 <0>        -0.1012
      6 C6          2.3773    1.4107   -0.0141 C.ar      1 <0>        -0.1234
      7 C7         -1.3319    2.1138    0.0199 C.3       1 <0>         0.0213
      8 C8         -1.7635    2.3513    1.4440 C.2       1 <0>         0.1434
      9 N1         -1.4585    3.3862    2.1549 N.2       1 <0>        -0.3187
     10 N2         -2.0508    3.2318    3.4170 N.2       1 <0>        -0.3826
     11 C9         -2.7055    2.0510    3.3973 C.2       1 <0>         0.3465
     12 S1         -3.6012    1.3649    4.6849 S.3       1 <0>        -0.7066
     13 O1         -2.5235    1.5149    2.1782 O.3       1 <0>        -0.2652
     14 H1          3.3385   -0.4987   -0.0343 H         1 <0>         0.1192
     15 H2          1.2231   -1.7587   -0.0199 H         1 <0>         0.1214
     16 H3         -0.9258   -0.5567    0.0079 H         1 <0>         0.1244
     17 H4          1.1563    3.1654    0.0077 H         1 <0>         0.1262
     18 H5          3.3051    1.9634   -0.0207 H         1 <0>         0.1212
     19 H6         -1.2159    3.0795   -0.4940 H         1 <0>         0.1092
     20 H7         -2.0929    1.5118   -0.4983 H         1 <0>         0.0977
@<TRIPOS>BOND
     1    1    6 ar
     2    1    2 ar
     3    1   14 1
     4    2    3 ar
     5    2   15 1
     6    3    4 ar
     7    3   16 1
     8    4    5 ar
     9    4    7 1
    10    5    6 ar
    11    5   17 1
    12    6   18 1
    13    7    8 1
    14    7   19 1
    15    7   20 1
    16    8   13 1
    17    8    9 2
    18    9   10 1
    19   10   11 2
    20   11   12 1
    21   11   13 1
@<TRIPOS>MOLECULE
ZINC02379869
   21    22     0     0     0
SMALL
USER_CHARGES
5-benzyl-3H-1,3,4-oxadiazole-2-thione
@<TRIPOS>ATOM
      1 C1          2.3960    0.0285   -0.0217 C.ar      1 <0>        -0.1073
      2 C2          1.2084   -0.6789   -0.0136 C.ar      1 <0>        -0.1188
      3 C3          0.0021   -0.0041    0.0020 C.ar      1 <0>        -0.1012
      4 C4         -0.0167    1.3781    0.0096 C.ar      1 <0>        -0.1080
      5 C5          1.1709    2.0855    0.0021 C.ar      1 <0>        -0.0992
      6 C6          2.3773    1.4107   -0.0141 C.ar      1 <0>        -0.1203
      7 C7         -1.3319    2.1138    0.0199 C.3       1 <0>         0.0055
      8 C8         -1.7635    2.3513    1.4440 C.2       1 <0>         0.2549
      9 N1         -1.4585    3.3862    2.1549 N.2       1 <0>        -0.2798
     10 N2         -2.0508    3.2318    3.4170 N.pl3     1 <0>        -0.4911
     11 C9         -2.7055    2.0510    3.3973 C.2       1 <0>         0.4343
     12 S1         -3.6012    1.3649    4.6849 S.2       1 <0>        -0.4607
     13 O1         -2.5235    1.5149    2.1782 O.3       1 <0>        -0.2099
     14 H1          3.3385   -0.4987   -0.0343 H         1 <0>         0.1264
     15 H2          1.2231   -1.7587   -0.0199 H         1 <0>         0.1281
     16 H3         -0.9258   -0.5567    0.0079 H         1 <0>         0.1285
     17 H4          1.1563    3.1654    0.0077 H         1 <0>         0.1278
     18 H5          3.3051    1.9634   -0.0207 H         1 <0>         0.1272
     19 H6         -1.2159    3.0795   -0.4940 H         1 <0>         0.1305
     20 H7         -2.0929    1.5118   -0.4983 H         1 <0>         0.1231
     21 H8         -1.9217    4.0096    4.1840 H         1 <0>         0.5102
@<TRIPOS>BOND
     1    1    6 ar
     2    1    2 ar
     3    1   14 1
     4    2    3 ar
     5    2   15 1
     6    3    4 ar
     7    3   16 1
     8    4    5 ar
     9    4    7 1
    10    5    6 ar
    11    5   17 1
    12    6   18 1
    13    7    8 1
    14    7   19 1
    15    7   20 1
    16    8   13 1
    17    8    9 2
    18    9   10 1
    19   10   11 1
    20   10   21 1
    21   11   12 2
    22   11   13 1
@<TRIPOS>MOLECULE
ZINC00392003
   14    14     0     0     0
SMALL
USER_CHARGES

@<TRIPOS>ATOM
      1 C1         -0.0167    1.3818    0.0096 C.2       1 <0>        -0.3023
      2 C2          1.0489    2.2680    0.0042 C.2       1 <0>         0.0229
      3 C3          2.4061    1.9935   -0.0102 C.2       1 <0>        -0.3082
      4 C4          3.0394    0.7526   -0.0230 C.2       1 <0>         0.2940
      5 C5          2.4474   -0.5323   -0.0247 C.2       1 <0>         0.2940
      6 O1          3.3000   -1.5712   -0.0383 O.2       1 <0>        -0.6027
      7 C6          1.0927   -0.8573   -0.0136 C.2       1 <0>        -0.3082
      8 C7          0.0021   -0.0041    0.0020 C.2       1 <0>         0.0228
      9 O2          4.3831    0.7796   -0.0357 O.3       1 <0>        -0.6027
     10 H1         -0.9975    1.8337    0.0264 H         1 <0>         0.0932
     11 H2          0.7848    3.3152    0.0120 H         1 <0>         0.0951
     12 H3          3.0591    2.8537   -0.0122 H         1 <0>         0.1036
     13 H4          0.8630   -1.9126   -0.0174 H         1 <0>         0.1036
     14 H5         -0.9655   -0.4838    0.0087 H         1 <0>         0.0951
@<TRIPOS>BOND
     1    1    8 1
     2    1    2 2
     3    1   10 1
     4    2    3 1
     5    2   11 1
     6    3    4 2
     7    3   12 1
     8    4    5 1
     9    4    9 1
    10    5    6 2
    11    5    7 1
    12    7    8 2
    13    7   13 1
    14    8   14 1
@<TRIPOS>MOLECULE
ZINC00392003
   15    15     0     0     0
SMALL
USER_CHARGES

@<TRIPOS>ATOM
      1 C1         -0.0168    1.3886    0.0097 C.2       1 <0>        -0.1504
      2 C2          1.0430    2.2714    0.0043 C.2       1 <0>        -0.0371
      3 C3          2.4081    1.9992   -0.0102 C.2       1 <0>        -0.1347
      4 C4          3.0416    0.7710   -0.0232 C.2       1 <0>         0.0964
      5 C5          2.4537   -0.5195   -0.0250 C.2       1 <0>         0.3535
      6 O1          3.2332   -1.4625   -0.0382 O.2       1 <0>        -0.5145
      7 C6          1.0874   -0.8515   -0.0131 C.2       1 <0>        -0.2110
      8 C7          0.0021   -0.0041    0.0020 C.2       1 <0>        -0.0176
      9 O2          4.3961    0.8040   -0.0363 O.3       1 <0>        -0.4619
     10 H1         -0.9978    1.8400    0.0264 H         1 <0>         0.1286
     11 H2          0.7770    3.3181    0.0120 H         1 <0>         0.1334
     12 H3          3.0580    2.8618   -0.0117 H         1 <0>         0.1364
     13 H4          0.8598   -1.9072   -0.0172 H         1 <0>         0.1387
     14 H5         -0.9653   -0.4843    0.0090 H         1 <0>         0.1288
     15 H6          4.8107   -0.0695   -0.0452 H         1 <0>         0.4113
@<TRIPOS>BOND
     1    1    8 1
     2    1    2 2
     3    1   10 1
     4    2    3 1
     5    2   11 1
     6    3    4 2
     7    3   12 1
     8    4    5 1
     9    4    9 1
    10    5    6 2
    11    5    7 1
    12    7    8 2
    13    7   13 1
    14    8   14 1
    15    9   15 1
@<TRIPOS>MOLECULE
ZINC00161805
   19    19     0     0     0
SMALL
USER_CHARGES
3-hydroxy-1-phenyl-urea
@<TRIPOS>ATOM
      1 C1         -0.0677    4.1617    0.0064 C.ar      1 <0>        -0.1333
      2 C2          1.1421    3.4919   -0.0006 C.ar      1 <0>        -0.1017
      3 C3          1.1686    2.1110   -0.0021 C.ar      1 <0>        -0.1446
      4 C4         -0.0214    1.3952    0.0034 C.ar      1 <0>         0.1597
      5 C5         -1.2346    2.0708    0.0046 C.ar      1 <0>        -0.1192
      6 C6         -1.2544    3.4518    0.0114 C.ar      1 <0>        -0.1011
      7 N1          0.0021   -0.0041    0.0020 N.am      1 <0>        -0.6773
      8 C7         -0.9384   -0.6945    0.6768 C.2       1 <0>         0.7206
      9 O1         -1.8550   -0.1054    1.2164 O.2       1 <0>        -0.5510
     10 N2         -0.8628   -2.0379    0.7535 N.am      1 <0>        -0.6087
     11 O2         -1.8509   -2.7633    1.4624 O.3       1 <0>        -0.2962
     12 H1         -0.0858    5.2415    0.0075 H         1 <0>         0.1243
     13 H2          2.0672    4.0492   -0.0045 H         1 <0>         0.1274
     14 H3          2.1137    1.5885   -0.0078 H         1 <0>         0.1257
     15 H4         -2.1618    1.5169    0.0043 H         1 <0>         0.1407
     16 H5         -2.1976    3.9778    0.0161 H         1 <0>         0.1269
     17 H6          0.6952   -0.4770   -0.4846 H         1 <0>         0.4084
     18 H7         -0.1316   -2.5079    0.3230 H         1 <0>         0.4069
     19 H8         -1.7123   -3.7203    1.4620 H         1 <0>         0.3922
@<TRIPOS>BOND
     1    1    6 ar
     2    1    2 ar
     3    1   12 1
     4    2    3 ar
     5    2   13 1
     6    3    4 ar
     7    3   14 1
     8    4    5 ar
     9    4    7 1
    10    5    6 ar
    11    5   15 1
    12    6   16 1
    13    7    8 am
    14    7   17 1
    15    8    9 2
    16    8   10 am
    17   10   11 1
    18   10   18 1
    19   11   19 1
@<TRIPOS>MOLECULE
ZINC02041733
   24    24     0     0     0
SMALL
USER_CHARGES

@<TRIPOS>ATOM
      1 C1         -0.0187    1.5258    0.0104 C.3       1 <0>        -0.1458
      2 C2          0.0021   -0.0041    0.0020 C.3       1 <0>        -0.0684
      3 C3          0.7421   -0.5109    1.2415 C.3       1 <0>        -0.1457
      4 C4         -1.4117   -0.5257    0.0127 C.2       1 <0>        -0.0871
      5 C5         -2.1868   -0.1479    1.1056 C.2       1 <0>        -0.0356
      6 C6         -3.4989   -0.4651    1.3888 C.2       1 <0>        -0.1478
      7 C7         -4.3899   -1.2458    0.6563 C.2       1 <0>        -0.0195
      8 C8         -4.1833   -1.8987   -0.5383 C.2       1 <0>        -0.2105
      9 C9         -3.0151   -1.9398   -1.3198 C.2       1 <0>         0.3559
     10 O1         -3.0837   -2.5959   -2.3503 O.2       1 <0>        -0.5159
     11 C10        -1.7692   -1.3116   -1.0665 C.2       1 <0>         0.0915
     12 O2         -0.8049   -1.5135   -1.9965 O.3       1 <0>        -0.4580
     13 H1          1.0039    1.9031    0.0027 H         1 <0>         0.0630
     14 H2         -0.5459    1.8868   -0.8726 H         1 <0>         0.0567
     15 H3         -0.5289    1.8773    0.9072 H         1 <0>         0.0569
     16 H4          0.5123   -0.3556   -0.8948 H         1 <0>         0.0975
     17 H5          0.2319   -0.1594    2.1383 H         1 <0>         0.0568
     18 H6          0.7568   -1.6008    1.2356 H         1 <0>         0.0567
     19 H7          1.7647   -0.1336    1.2338 H         1 <0>         0.0630
     20 H8         -1.6924    0.4800    1.8321 H         1 <0>         0.1333
     21 H9         -3.8897   -0.0508    2.3064 H         1 <0>         0.1284
     22 H10        -5.3761   -1.3539    1.0832 H         1 <0>         0.1284
     23 H11        -5.0273   -2.4508   -0.9247 H         1 <0>         0.1381
     24 H12        -1.0841   -2.0666   -2.7389 H         1 <0>         0.4080
@<TRIPOS>BOND
     1    1    2 1
     2    1   13 1
     3    1   14 1
     4    1   15 1
     5    2    3 1
     6    2    4 1
     7    2   16 1
     8    3   17 1
     9    3   18 1
    10    3   19 1
    11    4   11 2
    12    4    5 1
    13    5    6 2
    14    5   20 1
    15    6    7 1
    16    6   21 1
    17    7    8 2
    18    7   22 1
    19    8    9 1
    20    8   23 1
    21    9   10 2
    22    9   11 1
    23   11   12 1
    24   12   24 1
@<TRIPOS>MOLECULE
ZINC02041733
   23    23     0     0     0
SMALL
USER_CHARGES

@<TRIPOS>ATOM
      1 C1         -0.0187    1.5258    0.0104 C.3       1 <0>        -0.1487
      2 C2          0.0021   -0.0041    0.0020 C.3       1 <0>        -0.0229
      3 C3          0.7421   -0.5109    1.2415 C.3       1 <0>        -0.1488
      4 C4         -1.4117   -0.5257    0.0127 C.2       1 <0>        -0.2949
      5 C5         -1.7684   -1.3134   -1.0589 C.2       1 <0>         0.0224
      6 C6         -2.9900   -1.9293   -1.3201 C.2       1 <0>        -0.3113
      7 C7         -4.1502   -1.9078   -0.5744 C.2       1 <0>         0.0281
      8 C8         -4.4015   -1.2642    0.6342 C.2       1 <0>        -0.3365
      9 C9         -3.5463   -0.4837    1.3887 C.2       1 <0>         0.2584
     10 C10        -2.1948   -0.1498    1.1185 C.2       1 <0>         0.3680
     11 O1         -1.6424    0.5591    1.9489 O.2       1 <0>        -0.5086
     12 O2         -4.0632    0.0230    2.5340 O.3       1 <0>        -0.6298
     13 H1          1.0039    1.9031    0.0027 H         1 <0>         0.0374
     14 H2         -0.5459    1.8868   -0.8726 H         1 <0>         0.0400
     15 H3         -0.5289    1.8773    0.9072 H         1 <0>         0.0784
     16 H4          0.5123   -0.3556   -0.8948 H         1 <0>         0.0520
     17 H5          0.2319   -0.1594    2.1383 H         1 <0>         0.0784
     18 H6          0.7568   -1.6008    1.2356 H         1 <0>         0.0400
     19 H7          1.7647   -0.1336    1.2338 H         1 <0>         0.0374
     20 H8         -0.9966   -1.4753   -1.7969 H         1 <0>         0.0897
     21 H9         -3.0353   -2.5032   -2.2338 H         1 <0>         0.0882
     22 H10        -4.9779   -2.4671   -0.9849 H         1 <0>         0.0882
     23 H11        -5.3963   -1.3915    1.0349 H         1 <0>         0.0948
@<TRIPOS>BOND
     1    1    2 1
     2    1   13 1
     3    1   14 1
     4    1   15 1
     5    2    3 1
     6    2    4 1
     7    2   16 1
     8    3   17 1
     9    3   18 1
    10    3   19 1
    11    4   10 1
    12    4    5 2
    13    5    6 1
    14    5   20 1
    15    6    7 2
    16    6   21 1
    17    7    8 1
    18    7   22 1
    19    8    9 2
    20    8   23 1
    21    9   10 1
    22    9   12 1
    23   10   11 2
@<TRIPOS>MOLECULE
ZINC02041733
   23    23     0     0     0
SMALL
USER_CHARGES

@<TRIPOS>ATOM
      1 C1         -0.0187    1.5258    0.0104 C.3       1 <0>        -0.1359
      2 C2          0.0021   -0.0041    0.0020 C.3       1 <0>        -0.0460
      3 C3          0.7421   -0.5109    1.2415 C.3       1 <0>        -0.1357
      4 C4         -1.4117   -0.5257    0.0127 C.2       1 <0>        -0.2915
      5 C5         -2.1868   -0.1479    1.1056 C.2       1 <0>         0.0372
      6 C6         -3.4989   -0.4651    1.3888 C.2       1 <0>        -0.3136
      7 C7         -4.3899   -1.2458    0.6563 C.2       1 <0>         0.0212
      8 C8         -4.1833   -1.8987   -0.5383 C.2       1 <0>        -0.3373
      9 C9         -3.0151   -1.9398   -1.3198 C.2       1 <0>         0.3607
     10 O1         -3.0837   -2.5959   -2.3503 O.2       1 <0>        -0.5288
     11 C10        -1.7692   -1.3116   -1.0665 C.2       1 <0>         0.2641
     12 O2         -0.8049   -1.5135   -1.9965 O.3       1 <0>        -0.6186
     13 H1          1.0039    1.9031    0.0027 H         1 <0>         0.0405
     14 H2         -0.5459    1.8868   -0.8726 H         1 <0>         0.0480
     15 H3         -0.5289    1.8773    0.9072 H         1 <0>         0.0440
     16 H4          0.5123   -0.3556   -0.8948 H         1 <0>         0.0905
     17 H5          0.7568   -1.6008    1.2356 H         1 <0>         0.0480
     18 H6          1.7647   -0.1336    1.2338 H         1 <0>         0.0405
     19 H7          0.2319   -0.1594    2.1383 H         1 <0>         0.0440
     20 H8         -1.6924    0.4800    1.8321 H         1 <0>         0.0911
     21 H9         -3.8897   -0.0508    2.3064 H         1 <0>         0.0880
     22 H10        -5.3761   -1.3539    1.0832 H         1 <0>         0.0889
     23 H11        -5.0273   -2.4508   -0.9247 H         1 <0>         0.1005
@<TRIPOS>BOND
     1    1    2 1
     2    1   13 1
     3    1   14 1
     4    1   15 1
     5    2    3 1
     6    2    4 1
     7    2   16 1
     8    3   17 1
     9    3   18 1
    10    3   19 1
    11    4   11 2
    12    4    5 1
    13    5    6 2
    14    5   20 1
    15    6    7 1
    16    6   21 1
    17    7    8 2
    18    7   22 1
    19    8    9 1
    20    8   23 1
    21    9   10 2
    22    9   11 1
    23   11   12 1
@<TRIPOS>MOLECULE
ZINC00899531
   24    24     0     0     0
SMALL
USER_CHARGES
2-hydroxy-5-isopropyl-cyclohepta-2,4,6-trien-1-one
@<TRIPOS>ATOM
      1 C1         -0.0127    1.0858    0.0080 C.3       1 <0>        -0.1504
      2 C2         -0.7288    1.5792    1.2668 C.3       1 <0>        -0.0716
      3 C3          0.0111    1.0724    2.5063 C.3       1 <0>        -0.1503
      4 C4         -0.7493    3.0861    1.2751 C.2       1 <0>        -0.0629
      5 C5         -2.0022    3.6627    1.2902 C.2       1 <0>        -0.0839
      6 C6         -2.3440    5.0121    1.3007 C.2       1 <0>        -0.0876
      7 C7         -1.5080    6.1127    1.2990 C.2       1 <0>         0.0507
      8 C8         -0.0902    6.1374    1.2857 C.2       1 <0>         0.3635
      9 O1          0.4256    7.2470    1.2867 O.2       1 <0>        -0.4902
     10 C9          0.7974    5.0470    1.2711 C.2       1 <0>        -0.1784
     11 C10         0.4996    3.7025    1.2719 C.2       1 <0>        -0.0388
     12 O2         -2.1207    7.3210    1.3122 O.3       1 <0>        -0.4846
     13 H1          0.0021   -0.0041    0.0020 H         1 <0>         0.0650
     14 H2          1.0099    1.4631    0.0003 H         1 <0>         0.0594
     15 H3         -0.5399    1.4469   -0.8751 H         1 <0>         0.0597
     16 H4         -1.7514    1.2020    1.2746 H         1 <0>         0.0856
     17 H5         -0.4990    1.4239    3.4031 H         1 <0>         0.0593
     18 H6          0.0259   -0.0175    2.5003 H         1 <0>         0.0648
     19 H7          1.0337    1.4497    2.4986 H         1 <0>         0.0594
     20 H8         -2.8326    2.9721    1.2940 H         1 <0>         0.1312
     21 H9         -3.4022    5.2275    1.3119 H         1 <0>         0.1352
     22 H10         1.8483    5.2959    1.2629 H         1 <0>         0.1397
     23 H11         1.3494    3.0360    1.2643 H         1 <0>         0.1305
     24 H12        -2.2899    7.6666    2.1994 H         1 <0>         0.3950
@<TRIPOS>BOND
     1    1    2 1
     2    1   13 1
     3    1   14 1
     4    1   15 1
     5    2    3 1
     6    2    4 1
     7    2   16 1
     8    3   17 1
     9    3   18 1
    10    3   19 1
    11    4   11 1
    12    4    5 2
    13    5    6 1
    14    5   20 1
    15    6    7 2
    16    6   21 1
    17    7    8 1
    18    7   12 1
    19    8    9 2
    20    8   10 1
    21   10   11 2
    22   10   22 1
    23   11   23 1
    24   12   24 1
@<TRIPOS>MOLECULE
ZINC13125763
   26    28     0     0     0
SMALL
USER_CHARGES

@<TRIPOS>ATOM
      1 C1         -0.0164    1.3556    0.0095 C.ar      1 <0>        -0.1124
      2 C2          1.1547    2.1004    0.0023 C.ar      1 <0>        -0.0923
      3 C3          2.3732    1.4470   -0.0128 C.ar      1 <0>        -0.0683
      4 C4          2.4028    0.0741   -0.0205 C.ar      1 <0>        -0.1556
      5 C5          1.2270   -0.7128   -0.0135 C.ar      1 <0>         0.0762
      6 C6          0.0021   -0.0041    0.0020 C.ar      1 <0>        -0.0599
      7 N1          1.4167   -2.0471   -0.0229 N.2       1 <0>        -0.5001
      8 C7          2.6151   -2.5907   -0.0377 C.2       1 <0>         0.1976
      9 S1          3.6830   -1.1574   -0.0400 S.3       1 <0>         0.0345
     10 C8          2.9836   -4.0202   -0.0487 C.ar      1 <0>        -0.0622
     11 C9          1.9889   -5.0003   -0.0496 C.ar      1 <0>        -0.0342
     12 C10         2.3363   -6.3331   -0.0603 C.ar      1 <0>        -0.1551
     13 C11         3.6753   -6.7070   -0.0698 C.ar      1 <0>         0.1494
     14 C12         4.6705   -5.7409   -0.0685 C.ar      1 <0>        -0.1729
     15 C13         4.3328   -4.3985   -0.0641 C.ar      1 <0>         0.1569
     16 O1          5.3056   -3.4515   -0.0689 O.3       1 <0>        -0.4839
     17 O2          4.0101   -8.0232   -0.0799 O.3       1 <0>        -0.4947
     18 H1         -0.9664    1.8689    0.0259 H         1 <0>         0.1353
     19 H2          1.1147    3.1796    0.0081 H         1 <0>         0.1399
     20 H3          3.2938    2.0116   -0.0190 H         1 <0>         0.1347
     21 H4         -0.9298   -0.5500    0.0084 H         1 <0>         0.1330
     22 H5          0.9477   -4.7134   -0.0415 H         1 <0>         0.1469
     23 H6          1.5660   -7.0901   -0.0610 H         1 <0>         0.1429
     24 H7          5.7093   -6.0362   -0.0752 H         1 <0>         0.1463
     25 H8          5.5963   -3.1817    0.8130 H         1 <0>         0.3983
     26 H9          4.1024   -8.3987   -0.9662 H         1 <0>         0.3996
@<TRIPOS>BOND
     1    1    6 ar
     2    1    2 ar
     3    1   18 1
     4    2    3 ar
     5    2   19 1
     6    3    4 ar
     7    3   20 1
     8    4    9 1
     9    4    5 ar
    10    5    6 ar
    11    5    7 1
    12    6   21 1
    13    7    8 2
    14    8    9 1
    15    8   10 1
    16   10   15 ar
    17   10   11 ar
    18   11   12 ar
    19   11   22 1
    20   12   13 ar
    21   12   23 1
    22   13   14 ar
    23   13   17 1
    24   14   15 ar
    25   14   24 1
    26   15   16 1
    27   16   25 1
    28   17   26 1
@<TRIPOS>MOLECULE
ZINC05843955
   30    31     0     0     0
SMALL
USER_CHARGES
(E)-1,3-bis(4-hydroxyphenyl)prop-2-en-1-one
@<TRIPOS>ATOM
      1 C1         -3.6836   -2.1525    0.0315 C.ar      1 <0>        -0.0779
      2 C2         -4.8632   -2.8617    0.0341 C.ar      1 <0>        -0.1496
      3 C3         -4.8415   -4.2520    0.0260 C.ar      1 <0>         0.1243
      4 C4         -3.6294   -4.9332    0.0107 C.ar      1 <0>        -0.1497
      5 C5         -2.4441   -4.2338    0.0027 C.ar      1 <0>        -0.0717
      6 C6         -2.4602   -2.8336    0.0103 C.ar      1 <0>        -0.0979
      7 C7         -1.1982   -2.0818    0.0023 C.2       1 <0>         0.0055
      8 C8         -1.2165   -0.7299    0.0098 C.2       1 <0>        -0.2475
      9 C9          0.0021   -0.0041    0.0020 C.2       1 <0>         0.4265
     10 O1          1.0649   -0.5986   -0.0113 O.2       1 <0>        -0.4626
     11 C10        -0.0180    1.4728    0.0101 C.ar      1 <0>        -0.1725
     12 C11        -1.2366    2.1569    0.0196 C.ar      1 <0>        -0.0572
     13 C12        -1.2509    3.5338    0.0331 C.ar      1 <0>        -0.1590
     14 C13        -0.0555    4.2433    0.0259 C.ar      1 <0>         0.1376
     15 C14         1.1587    3.5666    0.0102 C.ar      1 <0>        -0.1581
     16 C15         1.1816    2.1898    0.0025 C.ar      1 <0>        -0.0449
     17 O2         -0.0739    5.6003    0.0339 O.3       1 <0>        -0.4982
     18 O3         -6.0075   -4.9465    0.0334 O.3       1 <0>        -0.4983
     19 H1         -3.7015   -1.0727    0.0416 H         1 <0>         0.1335
     20 H2         -5.8073   -2.3374    0.0466 H         1 <0>         0.1345
     21 H3         -3.6181   -6.0132    0.0048 H         1 <0>         0.1350
     22 H4         -1.5032   -4.7639   -0.0092 H         1 <0>         0.1351
     23 H5         -0.2557   -2.6090   -0.0095 H         1 <0>         0.1385
     24 H6         -2.1590   -0.2027    0.0216 H         1 <0>         0.1339
     25 H7         -2.1658    1.6064    0.0206 H         1 <0>         0.1359
     26 H8         -2.1922    4.0632    0.0449 H         1 <0>         0.1362
     27 H9          2.0853    4.1214    0.0043 H         1 <0>         0.1363
     28 H10         2.1254    1.6648   -0.0090 H         1 <0>         0.1393
     29 H11        -0.0879    5.9986   -0.8471 H         1 <0>         0.3972
     30 H12        -6.3370   -5.1525    0.9189 H         1 <0>         0.3957
@<TRIPOS>BOND
     1    1    6 ar
     2    1    2 ar
     3    1   19 1
     4    2    3 ar
     5    2   20 1
     6    3    4 ar
     7    3   18 1
     8    4    5 ar
     9    4   21 1
    10    5    6 ar
    11    5   22 1
    12    6    7 1
    13    7    8 2
    14    7   23 1
    15    8    9 1
    16    8   24 1
    17    9   10 2
    18    9   11 1
    19   11   16 ar
    20   11   12 ar
    21   12   13 ar
    22   12   25 1
    23   13   14 ar
    24   13   26 1
    25   14   15 ar
    26   14   17 1
    27   15   16 ar
    28   15   27 1
    29   16   28 1
    30   17   29 1
    31   18   30 1
@<TRIPOS>MOLECULE
ZINC02573195
   15    15     0     0     0
SMALL
USER_CHARGES
3-hydroxy-2-methyl-pyran-4-thione
@<TRIPOS>ATOM
      1 C1          1.1429    1.5191   -2.4708 C.3       1 <0>        -0.1065
      2 C2          1.8366    1.8272   -1.1689 C.2       1 <0>         0.1198
      3 C3          1.2244    1.5331   -0.0014 C.2       1 <0>         0.0129
      4 C4          1.8899    1.8350    1.2187 C.2       1 <0>         0.1215
      5 S1          1.1587    1.4908    2.7279 S.2       1 <0>        -0.5118
      6 C5          3.1774    2.4244    1.1508 C.2       1 <0>        -0.2110
      7 C6          3.7150    2.6838   -0.0574 C.2       1 <0>         0.1203
      8 O1          3.0544    2.3894   -1.1843 O.3       1 <0>        -0.1858
      9 O2         -0.0110    0.9628    0.0073 O.3       1 <0>        -0.4514
     10 H1          0.5447    2.3777   -2.7758 H         1 <0>         0.1048
     11 H2          1.8876    1.3044   -3.2373 H         1 <0>         0.0937
     12 H3          0.4948    0.6524   -2.3410 H         1 <0>         0.1059
     13 H4          3.7177    2.6657    2.0542 H         1 <0>         0.1734
     14 H5          4.6940    3.1359   -0.1177 H         1 <0>         0.2200
     15 H6          0.0021   -0.0041    0.0020 H         1 <0>         0.3944
@<TRIPOS>BOND
     1    1    2 1
     2    1   10 1
     3    1   11 1
     4    1   12 1
     5    2    8 1
     6    2    3 2
     7    3    4 1
     8    3    9 1
     9    4    5 2
    10    4    6 1
    11    6    7 2
    12    6   13 1
    13    7    8 1
    14    7   14 1
    15    9   15 1
@<TRIPOS>MOLECULE
ZINC01587152
   42    44     0     0     0
SMALL
USER_CHARGES
N-[2-(5-hydroxy-1H-indol-3-yl)ethyl]-3-(4-hydroxyphenyl)-prop-2-enamide
@<TRIPOS>ATOM
      1 C1         -0.0145    4.3057    0.0313 C.ar      1 <0>        -0.0833
      2 C2         -0.0387    5.6821    0.0326 C.ar      1 <0>        -0.1481
      3 C3         -1.2533    6.3584    0.0420 C.ar      1 <0>         0.1188
      4 C4         -2.4491    5.6494    0.0443 C.ar      1 <0>        -0.1481
      5 C5         -2.4359    4.2728    0.0368 C.ar      1 <0>        -0.0759
      6 C6         -1.2157    3.5871    0.0273 C.ar      1 <0>        -0.0885
      7 C7         -1.1957    2.1173    0.0192 C.2       1 <0>        -0.0136
      8 C8         -0.0178    1.4583    0.0101 C.2       1 <0>        -0.2167
      9 C9          0.0021   -0.0041    0.0020 C.2       1 <0>         0.5467
     10 O1         -1.0437   -0.6270    0.0087 O.2       1 <0>        -0.5442
     11 N1          1.1783   -0.6620   -0.0127 N.am      1 <0>        -0.7280
     12 C10         1.1981   -2.1268   -0.0208 C.3       1 <0>         0.1242
     13 C11         2.6473   -2.6171   -0.0373 C.3       1 <0>        -0.0533
     14 C12         2.6678   -4.1240   -0.0456 C.2       1 <0>        -0.1742
     15 C13         2.7825   -4.9267    1.0243 C.2       1 <0>         0.0675
     16 N2          2.7628   -6.2363    0.6294 N.pl3     1 <0>        -0.5937
     17 H1          2.8308   -6.9991    1.2247 H         1 <0>         0.4184
     18 C14         2.6314   -6.3101   -0.7414 C.ar      1 <0>         0.0883
     19 C15         2.5599   -4.9902   -1.2220 C.ar      1 <0>        -0.0842
     20 C16         2.4315   -4.7523   -2.5920 C.ar      1 <0>        -0.0978
     21 C17         2.3617   -5.8190   -3.4660 C.ar      1 <0>         0.0791
     22 C18         2.4260   -7.1245   -2.9864 C.ar      1 <0>        -0.1210
     23 C19         2.5598   -7.3707   -1.6380 C.ar      1 <0>        -0.1122
     24 O2          2.2300   -5.5935   -4.8006 O.3       1 <0>        -0.4982
     25 O3         -1.2717    7.7156    0.0494 O.3       1 <0>        -0.4988
     26 H2          0.9296    3.7813    0.0288 H         1 <0>         0.1327
     27 H3          0.8876    6.2376    0.0308 H         1 <0>         0.1332
     28 H4         -3.3900    6.1794    0.0517 H         1 <0>         0.1338
     29 H5         -3.3654    3.7229    0.0386 H         1 <0>         0.1343
     30 H6         -2.1236    1.5646    0.0206 H         1 <0>         0.1376
     31 H7          0.9101    2.0110    0.0042 H         1 <0>         0.1299
     32 H8          2.0116   -0.1656   -0.0180 H         1 <0>         0.4016
     33 H9          0.6978   -2.5019    0.8720 H         1 <0>         0.0685
     34 H10         0.6808   -2.4923   -0.9079 H         1 <0>         0.0692
     35 H11         3.1477   -2.2421   -0.9301 H         1 <0>         0.0776
     36 H12         3.1647   -2.2516    0.8498 H         1 <0>         0.0777
     37 H13         2.8758   -4.5886    2.0458 H         1 <0>         0.1725
     38 H14         2.3819   -3.7401   -2.9653 H         1 <0>         0.1278
     39 H15         2.3708   -7.9519   -3.6784 H         1 <0>         0.1326
     40 H16         2.6094   -8.3873   -1.2770 H         1 <0>         0.1256
     41 H17         1.3127   -5.5405   -5.1019 H         1 <0>         0.3878
     42 H18        -1.2725    8.1041    0.9349 H         1 <0>         0.3945
@<TRIPOS>BOND
     1    1    6 ar
     2    1    2 ar
     3    1   26 1
     4    2    3 ar
     5    2   27 1
     6    3    4 ar
     7    3   25 1
     8    4    5 ar
     9    4   28 1
    10    5    6 ar
    11    5   29 1
    12    6    7 1
    13    7    8 2
    14    7   30 1
    15    8    9 1
    16    8   31 1
    17    9   10 2
    18    9   11 am
    19   11   12 1
    20   11   32 1
    21   12   13 1
    22   12   33 1
    23   12   34 1
    24   13   14 1
    25   13   35 1
    26   13   36 1
    27   14   19 1
    28   14   15 2
    29   15   16 1
    30   15   37 1
    31   16   17 1
    32   16   18 1
    33   18   23 ar
    34   18   19 ar
    35   19   20 ar
    36   20   21 ar
    37   20   38 1
    38   21   22 ar
    39   21   24 1
    40   22   23 ar
    41   22   39 1
    42   23   40 1
    43   24   41 1
    44   25   42 1
@<TRIPOS>MOLECULE
ZINC05236908
   21    21     0     0     0
SMALL
USER_CHARGES

@<TRIPOS>ATOM
      1 C1         -0.0167    1.3789    0.0096 C.ar      1 <0>        -0.0918
      2 C2          1.1663    2.0887    0.0021 C.ar      1 <0>        -0.0923
      3 C3          2.3861    1.4085   -0.0131 C.ar      1 <0>        -0.0388
      4 C4          2.3999    0.0118   -0.0207 C.ar      1 <0>        -0.1144
      5 C5          1.2083   -0.6869   -0.0131 C.ar      1 <0>         0.0963
      6 C6          0.0021   -0.0041    0.0020 C.ar      1 <0>        -0.1310
      7 F1          1.2185   -2.0378   -0.0204 F         1 <0>        -0.1343
      8 C7          3.6541    2.1617   -0.0217 C.2       1 <0>         0.1529
      9 N1          4.7858    1.5270   -0.0358 N.2       1 <0>        -0.2830
     10 N2          5.9902    2.2425   -0.0440 N.pl3     1 <0>        -0.5377
     11 C8          7.1656    1.5832   -0.0587 C.2       1 <0>         0.6025
     12 S1          8.6375    2.4575   -0.0686 S.2       1 <0>        -0.6120
     13 N3          7.1823    0.2355   -0.0656 N.pl3     1 <0>        -0.7831
     14 H1         -0.9600    1.9046    0.0260 H         1 <0>         0.1428
     15 H2          1.1492    3.1686    0.0077 H         1 <0>         0.1402
     16 H3          3.3396   -0.5204   -0.0328 H         1 <0>         0.1438
     17 H4         -0.9272   -0.5544    0.0079 H         1 <0>         0.1417
     18 H5          3.6407    3.2416   -0.0161 H         1 <0>         0.1365
     19 H6          5.9782    3.2124   -0.0390 H         1 <0>         0.4202
     20 H7          6.3484   -0.2599   -0.0600 H         1 <0>         0.4081
     21 H8          8.0283   -0.2390   -0.0762 H         1 <0>         0.4334
@<TRIPOS>BOND
     1    1    6 ar
     2    1    2 ar
     3    1   14 1
     4    2    3 ar
     5    2   15 1
     6    3    4 ar
     7    3    8 1
     8    4    5 ar
     9    4   16 1
    10    5    6 ar
    11    5    7 1
    12    6   17 1
    13    8    9 2
    14    8   18 1
    15    9   10 1
    16   10   11 1
    17   10   19 1
    18   11   12 2
    19   11   13 1
    20   13   20 1
    21   13   21 1
@<TRIPOS>MOLECULE
ZINC06093482
   18    18     0     0     0
SMALL
USER_CHARGES

@<TRIPOS>ATOM
      1 C1         -0.0162    1.3443    0.0094 C.2       1 <0>        -0.2190
      2 C2          1.3231    1.7763   -0.0010 C.2       1 <0>        -0.1421
      3 C3          2.0977    0.6529   -0.0145 C.2       1 <0>        -0.0025
      4 O1          1.2795   -0.4185   -0.0124 O.3       1 <0>        -0.1598
      5 C4          0.0021   -0.0041    0.0020 C.2       1 <0>        -0.0053
      6 C5          3.5634    0.6174   -0.0294 C.2       1 <0>         0.1835
      7 N1          4.1862   -0.5245   -0.0414 N.2       1 <0>        -0.2772
      8 N2          5.5867   -0.5584   -0.0556 N.pl3     1 <0>        -0.5375
      9 C6          6.2320   -1.7416   -0.0681 C.2       1 <0>         0.6029
     10 S1          7.9434   -1.7831   -0.0855 S.2       1 <0>        -0.6121
     11 N3          5.5300   -2.8921   -0.0668 N.pl3     1 <0>        -0.7822
     12 H1         -0.8935    1.9741    0.0252 H         1 <0>         0.1586
     13 H2          1.6706    2.7989    0.0008 H         1 <0>         0.1609
     14 H3         -0.8672   -0.6450    0.0074 H         1 <0>         0.2111
     15 H4          4.1259    1.5393   -0.0304 H         1 <0>         0.1572
     16 H5          6.0919    0.2696   -0.0566 H         1 <0>         0.4204
     17 H6          4.5603   -2.8686   -0.0569 H         1 <0>         0.4099
     18 H7          5.9944   -3.7436   -0.0757 H         1 <0>         0.4332
@<TRIPOS>BOND
     1    1    5 2
     2    1    2 1
     3    1   12 1
     4    2    3 2
     5    2   13 1
     6    3    4 1
     7    3    6 1
     8    4    5 1
     9    5   14 1
    10    6    7 2
    11    6   15 1
    12    7    8 1
    13    8    9 1
    14    8   16 1
    15    9   10 2
    16    9   11 1
    17   11   17 1
    18   11   18 1
@<TRIPOS>MOLECULE
ZINC06091643
   19    19     0     0     0
SMALL
USER_CHARGES
(1H-pyrrol-2-ylmethyleneamino)thiourea
@<TRIPOS>ATOM
      1 C1         -0.0126    1.0758    0.0080 C.2       1 <0>        -0.2134
      2 C2         -1.1566    1.8868    0.0171 C.2       1 <0>        -0.1273
      3 C3         -0.7336    3.1870    0.0254 C.2       1 <0>         0.0082
      4 N1          0.6403    3.1811    0.0125 N.pl3     1 <0>        -0.5579
      5 H1          1.1944    4.1313    0.0121 H         1 <0>         0.4458
      6 C4          1.0685    1.8872    0.0020 C.2       1 <0>         0.0383
      7 C5         -1.5932    4.3760    0.0394 C.2       1 <0>         0.1734
      8 N2         -2.8867    4.2431    0.0508 N.2       1 <0>        -0.2814
      9 N3         -3.7075    5.3784    0.0642 N.pl3     1 <0>        -0.5519
     10 C6         -5.0481    5.2407    0.0760 C.2       1 <0>         0.6123
     11 S1         -6.0511    6.6280    0.0924 S.2       1 <0>        -0.6455
     12 N4         -5.5992    4.0107    0.0749 N.pl3     1 <0>        -0.8106
     13 H2          0.0021   -0.0041    0.0020 H         1 <0>         0.1430
     14 H3         -2.1819    1.5473    0.0198 H         1 <0>         0.1407
     15 H4          2.0991    1.5643   -0.0092 H         1 <0>         0.1716
     16 H5         -1.1434    5.3798    0.0403 H         1 <0>         0.1268
     17 H6         -3.2578    6.3823    0.0651 H         1 <0>         0.4400
     18 H7         -6.6934    3.8983    0.0845 H         1 <0>         0.4582
     19 H8         -4.9548    3.1193    0.0644 H         1 <0>         0.4297
@<TRIPOS>BOND
     1    1    6 2
     2    1    2 1
     3    1   13 1
     4    2    3 2
     5    2   14 1
     6    3    4 1
     7    3    7 1
     8    4    5 1
     9    4    6 1
    10    6   15 1
    11    7    8 2
    12    7   16 1
    13    8    9 1
    14    9   10 1
    15    9   17 1
    16   10   11 2
    17   10   12 1
    18   12   18 1
    19   12   19 1
@<TRIPOS>MOLECULE
ZINC04582701
   24    24     0     0     0
SMALL
USER_CHARGES
(phenethylideneamino)thiourea
@<TRIPOS>ATOM
      1 C1         -0.0559    4.2672    0.0247 C.ar      1 <0>        -0.1152
      2 C2          1.1505    3.5924    0.0100 C.ar      1 <0>        -0.1182
      3 C3          1.1693    2.2102    0.0028 C.ar      1 <0>        -0.1107
      4 C4         -0.0184    1.5028    0.0103 C.ar      1 <0>        -0.0919
      5 C5         -1.2248    2.1776    0.0197 C.ar      1 <0>        -0.1086
      6 C6         -1.2435    3.5598    0.0322 C.ar      1 <0>        -0.1184
      7 C7          0.0021   -0.0041    0.0020 C.3       1 <0>        -0.0325
      8 C8          0.0225   -0.5140    1.4200 C.2       1 <0>         0.1230
      9 N1         -0.8708   -1.3412    1.8156 N.2       1 <0>        -0.2901
     10 N2         -0.8518   -1.8153    3.1338 N.pl3     1 <0>        -0.5436
     11 C9         -1.7923   -2.6862    3.5503 C.2       1 <0>         0.6047
     12 S1         -1.7691   -3.2655    5.1612 S.2       1 <0>        -0.6211
     13 N3         -2.7509   -3.1011    2.6987 N.pl3     1 <0>        -0.7841
     14 H1         -0.0705    5.3471    0.0299 H         1 <0>         0.1239
     15 H2          2.0784    4.1450    0.0037 H         1 <0>         0.1252
     16 H3          2.1118    1.6830   -0.0091 H         1 <0>         0.1259
     17 H4         -2.1527    1.6249    0.0211 H         1 <0>         0.1226
     18 H5         -2.1860    4.0870    0.0434 H         1 <0>         0.1242
     19 H6         -0.8878   -0.3767   -0.5053 H         1 <0>         0.0969
     20 H7          0.8920   -0.3525   -0.5222 H         1 <0>         0.1078
     21 H8          0.7907   -0.1815    2.1024 H         1 <0>         0.1210
     22 H9         -0.1619   -1.5166    3.7467 H         1 <0>         0.4182
     23 H10        -2.7641   -2.7729    1.7860 H         1 <0>         0.4085
     24 H11        -3.4278   -3.7280    2.9985 H         1 <0>         0.4324
@<TRIPOS>BOND
     1    1    6 ar
     2    1    2 ar
     3    1   14 1
     4    2    3 ar
     5    2   15 1
     6    3    4 ar
     7    3   16 1
     8    4    5 ar
     9    4    7 1
    10    5    6 ar
    11    5   17 1
    12    6   18 1
    13    7    8 1
    14    7   19 1
    15    7   20 1
    16    8    9 2
    17    8   21 1
    18    9   10 1
    19   10   11 1
    20   10   22 1
    21   11   12 2
    22   11   13 1
    23   13   23 1
    24   13   24 1
@<TRIPOS>MOLECULE
ZINC05005072
   28    28     0     0     0
SMALL
USER_CHARGES
[1-(4-methoxyphenyl)ethylideneamino]thiourea
@<TRIPOS>ATOM
      1 C1         -6.6795   -0.9070    0.8279 C.3       1 <0>        -0.1675
      2 C2         -6.0151   -0.0346    1.8616 C.2       1 <0>         0.1905
      3 N1         -6.6780    0.3507    2.9087 N.2       1 <0>        -0.2984
      4 N2         -8.0114   -0.0444    3.0780 N.pl3     1 <0>        -0.5371
      5 C3         -8.6999    0.3557    4.1654 C.2       1 <0>         0.6043
      6 S1        -10.3294   -0.1271    4.3723 S.2       1 <0>        -0.6241
      7 N3         -8.1057    1.1359    5.0898 N.pl3     1 <0>        -0.7843
      8 C4         -4.6118    0.3812    1.6834 C.ar      1 <0>        -0.1021
      9 C5         -3.9937    1.1901    2.6405 C.ar      1 <0>        -0.0336
     10 C6         -2.6820    1.5767    2.4695 C.ar      1 <0>        -0.1576
     11 C7         -1.9745    1.1631    1.3482 C.ar      1 <0>         0.1537
     12 C8         -2.5864    0.3635    0.3916 C.ar      1 <0>        -0.2128
     13 C9         -3.8962   -0.0320    0.5566 C.ar      1 <0>        -0.0422
     14 O1         -0.6816    1.5467    1.1837 O.3       1 <0>        -0.3130
     15 C10        -0.0127    1.0858    0.0080 C.3       1 <0>         0.0235
     16 H1         -6.5271   -1.9552    1.0850 H         1 <0>         0.0969
     17 H2         -7.7475   -0.6907    0.8023 H         1 <0>         0.0758
     18 H3         -6.2445   -0.7060   -0.1511 H         1 <0>         0.0963
     19 H4         -8.4391   -0.6059    2.4127 H         1 <0>         0.4179
     20 H5         -7.1825    1.4095    4.9726 H         1 <0>         0.4081
     21 H6         -8.6012    1.4239    5.8724 H         1 <0>         0.4321
     22 H7         -4.5431    1.5122    3.5128 H         1 <0>         0.1391
     23 H8         -2.2034    2.2019    3.2088 H         1 <0>         0.1385
     24 H9         -2.0337    0.0476   -0.4808 H         1 <0>         0.1369
     25 H10        -4.3700   -0.6572   -0.1857 H         1 <0>         0.1360
     26 H11         0.0021   -0.0041    0.0020 H         1 <0>         0.0594
     27 H12         1.0099    1.4631    0.0003 H         1 <0>         0.1044
     28 H13        -0.5399    1.4469   -0.8751 H         1 <0>         0.0594
@<TRIPOS>BOND
     1    1    2 1
     2    1   16 1
     3    1   17 1
     4    1   18 1
     5    2    3 2
     6    2    8 1
     7    3    4 1
     8    4    5 1
     9    4   19 1
    10    5    6 2
    11    5    7 1
    12    7   20 1
    13    7   21 1
    14    8   13 ar
    15    8    9 ar
    16    9   10 ar
    17    9   22 1
    18   10   11 ar
    19   10   23 1
    20   11   12 ar
    21   11   14 1
    22   12   13 ar
    23   12   24 1
    24   13   25 1
    25   14   15 1
    26   15   26 1
    27   15   27 1
    28   15   28 1
@<TRIPOS>MOLECULE
ZINC00388556
   22    22     0     0     0
SMALL
USER_CHARGES
3-(2,4-dihydroxyphenyl)propanoic acid
@<TRIPOS>ATOM
      1 C1          1.8622    1.8222    1.1954 C.ar      1 <0>        -0.1506
      2 C2          3.1194    2.3961    1.1872 C.ar      1 <0>        -0.0905
      3 C3          3.7377    2.6932   -0.0120 C.ar      1 <0>        -0.0964
      4 C4          3.0998    2.4106   -1.2118 C.ar      1 <0>         0.1213
      5 C5          1.8413    1.8297   -1.2062 C.ar      1 <0>        -0.1713
      6 C6          1.2228    1.5324   -0.0014 C.ar      1 <0>         0.1005
      7 O1         -0.0110    0.9628    0.0073 O.3       1 <0>        -0.4996
      8 O2          3.7087    2.7027   -2.3911 O.3       1 <0>        -0.4931
      9 C7          5.1062    3.3243   -0.0174 C.3       1 <0>        -0.0631
     10 C8          4.9667    4.8436   -0.1324 C.3       1 <0>        -0.1477
     11 C9          6.3352    5.4747   -0.1378 C.2       1 <0>         0.4596
     12 O3          7.3209    4.7806   -0.0578 O.co2     1 <0>        -0.6391
     13 H1          1.3789    1.5952    2.1342 H         1 <0>         0.1276
     14 H2          3.6174    2.6168    2.1197 H         1 <0>         0.1320
     15 H3          1.3431    1.6093   -2.1388 H         1 <0>         0.1304
     16 H4          0.0021   -0.0041    0.0020 H         1 <0>         0.3864
     17 H5          3.5148    3.5893   -2.7249 H         1 <0>         0.3928
     18 H6          5.6244    3.0762    0.9089 H         1 <0>         0.0728
     19 H7          5.6772    2.9467   -0.8656 H         1 <0>         0.0801
     20 H8          4.4485    5.0918   -1.0587 H         1 <0>         0.0597
     21 H9          4.3958    5.2213    0.7158 H         1 <0>         0.0637
     22 O4          6.4590    6.8080   -0.2314 O.co2     1 <0>        -0.7756
@<TRIPOS>BOND
     1    1    6 ar
     2    1    2 ar
     3    1   13 1
     4    2    3 ar
     5    2   14 1
     6    3    4 ar
     7    3    9 1
     8    4    5 ar
     9    4    8 1
    10    5    6 ar
    11    5   15 1
    12    6    7 1
    13    7   16 1
    14    8   17 1
    15    9   10 1
    16    9   18 1
    17    9   19 1
    18   10   11 1
    19   10   20 1
    20   10   21 1
    21   11   12 2
    22   11   22 1
@<TRIPOS>MOLECULE
ZINC00315972
   34    36     0     0     0
SMALL
USER_CHARGES

@<TRIPOS>ATOM
      1 C1          0.0489   -2.7189   -2.5946 C.3       1 <0>        -0.1205
      2 C2          0.0342   -2.0356   -1.2515 C.ar      1 <0>        -0.0006
      3 C3          0.0042   -0.6502   -1.1600 C.ar      1 <0>        -0.2083
      4 C4         -0.0091   -0.0549    0.0855 C.ar      1 <0>         0.1533
      5 N1          0.0070   -0.7849    1.1846 N.ar      1 <0>        -0.5297
      6 C5          0.0357   -2.1078    1.1391 C.ar      1 <0>         0.3793
      7 C6          0.0447   -2.7742   -0.0822 C.ar      1 <0>        -0.2071
      8 N2          0.0517   -2.8383    2.3233 N.pl3     1 <0>        -0.5919
      9 C7          0.1531   -2.1825    3.5413 C.2       1 <0>         0.3360
     10 N3          0.2784   -2.6883    4.7549 N.2       1 <0>        -0.5313
     11 C8          0.3627   -1.9051    5.8205 C.2       1 <0>         0.1252
     12 C9          0.3192   -0.5489    5.6612 C.2       1 <0>        -0.2621
     13 S1          0.1567   -0.4284    3.8846 S.3       1 <0>         0.1197
     14 C10         0.5025   -2.4955    7.1740 C.ar      1 <0>        -0.0598
     15 C11         0.5844   -1.6681    8.2920 C.ar      1 <0>        -0.0731
     16 C12         0.7140   -2.2198    9.5498 C.ar      1 <0>        -0.1543
     17 C13         0.7630   -3.5987    9.7055 C.ar      1 <0>         0.1264
     18 C14         0.6825   -4.4291    8.5975 C.ar      1 <0>        -0.1789
     19 C15         0.5466   -3.8842    7.3321 C.ar      1 <0>         0.1553
     20 O1          0.4620   -4.6965    6.2461 O.3       1 <0>        -0.4716
     21 O2          0.8907   -4.1362   10.9472 O.3       1 <0>        -0.4980
     22 H1         -0.9751   -2.9015   -2.9205 H         1 <0>         0.0818
     23 H2          0.5532   -2.0817   -3.3210 H         1 <0>         0.0763
     24 H3          0.5791   -3.6678   -2.5137 H         1 <0>         0.0740
     25 H4         -0.0084   -0.0446   -2.0542 H         1 <0>         0.1399
     26 H5         -0.0325    1.0222    0.1612 H         1 <0>         0.1648
     27 H6          0.0639   -3.8535   -0.1166 H         1 <0>         0.1395
     28 H7         -0.0080   -3.8061    2.2970 H         1 <0>         0.4337
     29 H8          0.3729    0.2342    6.4030 H         1 <0>         0.1933
     30 H9          0.5469   -0.5953    8.1739 H         1 <0>         0.1348
     31 H10         0.7777   -1.5774   10.4156 H         1 <0>         0.1352
     32 H11         0.7214   -5.5012    8.7223 H         1 <0>         0.1363
     33 H12         1.3168   -4.9130    5.8493 H         1 <0>         0.3884
     34 H13         0.0482   -4.3139   11.3874 H         1 <0>         0.3940
@<TRIPOS>BOND
     1    1    2 1
     2    1   22 1
     3    1   23 1
     4    1   24 1
     5    2    7 ar
     6    2    3 ar
     7    3    4 ar
     8    3   25 1
     9    4    5 ar
    10    4   26 1
    11    5    6 ar
    12    6    7 ar
    13    6    8 1
    14    7   27 1
    15    8    9 1
    16    8   28 1
    17    9   13 1
    18    9   10 2
    19   10   11 1
    20   11   12 2
    21   11   14 1
    22   12   13 1
    23   12   29 1
    24   14   19 ar
    25   14   15 ar
    26   15   16 ar
    27   15   30 1
    28   16   17 ar
    29   16   31 1
    30   17   18 ar
    31   17   21 1
    32   18   19 ar
    33   18   32 1
    34   19   20 1
    35   20   33 1
    36   21   34 1
@<TRIPOS>MOLECULE
ZINC03881635
   51    54     0     0     0
SMALL
USER_CHARGES

@<TRIPOS>ATOM
      1 C1         -0.0187    1.5258    0.0104 C.3       1 <0>        -0.1499
      2 C2          0.0021   -0.0041    0.0020 C.3       1 <0>        -0.0288
      3 C3         -1.4333   -0.4923   -0.0814 C.3       1 <0>        -0.1055
      4 C4         -2.1286   -0.4296    1.2783 C.3       1 <0>        -0.1680
      5 C5         -1.3204   -1.2781    2.2404 C.2       1 <0>         0.3883
      6 O1         -1.8439   -2.1105    2.9512 O.2       1 <0>        -0.4584
      7 C6          0.1270   -1.0412    2.2674 C.2       1 <0>        -0.2441
      8 C7          0.7322   -0.4640    1.2261 C.2       1 <0>        -0.0166
      9 C8          2.2284   -0.2256    1.3157 C.3       1 <0>        -0.0966
     10 C9          2.8818   -0.7071    0.0184 C.3       1 <0>        -0.1138
     11 C10         2.2149   -0.0081   -1.1697 C.3       1 <0>        -0.0774
     12 H1          2.2646    1.0731   -1.0409 H         1 <0>         0.0893
     13 C11         0.7494   -0.4588   -1.2575 C.3       1 <0>        -0.0663
     14 H2          0.7266   -1.5473   -1.3103 H         1 <0>         0.0695
     15 C12         0.0421    0.1023   -2.4878 C.3       1 <0>        -0.1215
     16 C13         0.8131   -0.2099   -3.7800 C.3       1 <0>        -0.1005
     17 C14         2.2053    0.3706   -3.6218 C.3       1 <0>        -0.0444
     18 C15         2.9101   -0.4090   -2.4579 C.3       1 <0>        -0.0813
     19 H3          2.8126   -1.4819   -2.6231 H         1 <0>         0.0763
     20 C16         4.3702    0.0376   -2.5934 C.3       1 <0>        -0.1124
     21 C17         4.5945    0.0327   -4.1302 C.3       1 <0>        -0.1411
     22 C18         3.1603    0.1775   -4.7951 C.3       1 <0>         0.2465
     23 C19         2.8037   -1.0359   -5.5484 C.1       1 <0>        -0.2085
     24 C20         2.5194   -2.0035   -6.1493 C.1       1 <0>        -0.1800
     25 O2          3.1292    1.3205   -5.6521 O.3       1 <0>        -0.5398
     26 C21         2.1104    1.8565   -3.2696 C.3       1 <0>        -0.1353
     27 H4          1.0039    1.9031    0.0027 H         1 <0>         0.0643
     28 H5         -0.5459    1.8868   -0.8726 H         1 <0>         0.0701
     29 H6         -0.5289    1.8773    0.9072 H         1 <0>         0.0586
     30 H7         -1.9803    0.1300   -0.7898 H         1 <0>         0.0839
     31 H8         -1.4387   -1.5227   -0.4368 H         1 <0>         0.0685
     32 H9         -2.1609    0.6013    1.6307 H         1 <0>         0.1001
     33 H10        -3.1407   -0.8257    1.1954 H         1 <0>         0.0921
     34 H11         0.7075   -1.3470    3.1252 H         1 <0>         0.1331
     35 H12         2.4216    0.8388    1.4491 H         1 <0>         0.0852
     36 H13         2.6373   -0.7819    2.1592 H         1 <0>         0.0776
     37 H14         3.9444   -0.4648    0.0339 H         1 <0>         0.0726
     38 H15         2.7544   -1.7856   -0.0752 H         1 <0>         0.0655
     39 H16        -0.9546   -0.3338   -2.5544 H         1 <0>         0.0658
     40 H17        -0.0509    1.1832   -2.3819 H         1 <0>         0.0754
     41 H18         0.8747   -1.2886   -3.9241 H         1 <0>         0.0639
     42 H19         0.3129    0.2514   -4.6315 H         1 <0>         0.0668
     43 H20         4.5062    1.0398   -2.1870 H         1 <0>         0.0748
     44 H21         5.0374   -0.6720   -2.1040 H         1 <0>         0.0712
     45 H22         5.2401    0.8628   -4.4167 H         1 <0>         0.0807
     46 H23         5.0398   -0.9126   -4.4402 H         1 <0>         0.0697
     47 H24         2.2651   -2.8690   -6.6866 H         1 <0>         0.2182
     48 H25         3.7175    1.2549   -6.4168 H         1 <0>         0.3785
     49 H26         1.5735    1.9732   -2.3282 H         1 <0>         0.0647
     50 H27         3.1135    2.2710   -3.1695 H         1 <0>         0.0574
     51 H28         1.5766    2.3840   -4.0601 H         1 <0>         0.0613
@<TRIPOS>BOND
     1    1    2 1
     2    1   27 1
     3    1   28 1
     4    1   29 1
     5    2    8 1
     6    2   13 1
     7    2    3 1
     8    3    4 1
     9    3   30 1
    10    3   31 1
    11    4    5 1
    12    4   32 1
    13    4   33 1
    14    5    6 2
    15    5    7 1
    16    7    8 2
    17    7   34 1
    18    8    9 1
    19    9   10 1
    20    9   35 1
    21    9   36 1
    22   10   11 1
    23   10   37 1
    24   10   38 1
    25   11   12 1
    26   11   18 1
    27   11   13 1
    28   13   14 1
    29   13   15 1
    30   15   16 1
    31   15   39 1
    32   15   40 1
    33   16   17 1
    34   16   41 1
    35   16   42 1
    36   17   22 1
    37   17   18 1
    38   17   26 1
    39   18   19 1
    40   18   20 1
    41   20   21 1
    42   20   43 1
    43   20   44 1
    44   21   22 1
    45   21   45 1
    46   21   46 1
    47   22   23 1
    48   22   25 1
    49   23   24 3
    50   24   47 1
    51   25   48 1
    52   26   49 1
    53   26   50 1
    54   26   51 1
@<TRIPOS>MOLECULE
ZINC00902159
   24    24     0     0     0
SMALL
USER_CHARGES

@<TRIPOS>ATOM
      1 C1         -0.0171    1.4086    0.0098 C.2       1 <0>        -0.2723
      2 C2          1.1525    2.0867    0.0023 C.2       1 <0>         0.1000
      3 N1          2.3359    1.4277   -0.0126 N.pl3     1 <0>        -0.4761
      4 C3          2.3918    0.0702   -0.0204 C.2       1 <0>         0.0605
      5 C4          1.2556   -0.6667   -0.0135 C.2       1 <0>        -0.0134
      6 C5          0.0021   -0.0041    0.0020 C.2       1 <0>         0.3587
      7 O1         -1.0411   -0.6423    0.0090 O.2       1 <0>        -0.5129
      8 O2          1.3161   -2.0263   -0.0218 O.3       1 <0>        -0.4643
      9 C6          3.5833    2.1960   -0.0209 C.3       1 <0>         0.0924
     10 C7          4.0316    2.4562    1.4187 C.3       1 <0>        -0.0680
     11 H1          4.2792    1.5095    1.8989 H         1 <0>         0.1437
     12 C8          5.2455    3.3492    1.4132 C.2       1 <0>         0.4936
     13 O3          5.1585    4.4986    1.8103 O.co2     1 <0>        -0.6605
     14 O4          6.3145    2.9222    1.0115 O.co2     1 <0>        -0.6239
     15 N2          2.9451    3.1113    2.1591 N.4       1 <0>        -0.6151
     16 H2         -0.9564    1.9413    0.0261 H         1 <0>         0.1582
     17 H3          1.1431    3.1666    0.0078 H         1 <0>         0.1679
     18 H4          3.3512   -0.4257   -0.0326 H         1 <0>         0.1746
     19 H5          0.4512   -2.4586   -0.0159 H         1 <0>         0.4111
     20 H6          4.3543    1.6313   -0.5451 H         1 <0>         0.1423
     21 H7          3.4210    3.1469   -0.5283 H         1 <0>         0.1203
     22 H8          3.2407    3.2829    3.1084 H         1 <0>         0.4391
     23 H9          2.7159    3.9877    1.7146 H         1 <0>         0.4320
     24 H10         2.1323    2.5134    2.1628 H         1 <0>         0.4124
@<TRIPOS>BOND
     1    1    6 1
     2    1    2 2
     3    1   16 1
     4    2    3 1
     5    2   17 1
     6    3    4 1
     7    3    9 1
     8    4    5 2
     9    4   18 1
    10    5    6 1
    11    5    8 1
    12    6    7 2
    13    8   19 1
    14    9   10 1
    15    9   20 1
    16    9   21 1
    17   10   11 1
    18   10   12 1
    19   10   15 1
    20   12   13 2
    21   12   14 1
    22   15   22 1
    23   15   23 1
    24   15   24 1
@<TRIPOS>MOLECULE
ZINC05222968
   26    26     0     0     0
SMALL
USER_CHARGES

@<TRIPOS>ATOM
      1 C1         -0.0184    1.5028    0.0103 C.3       1 <0>        -0.1659
      2 C2          0.0021   -0.0041    0.0020 C.2       1 <0>         0.1750
      3 N1          0.0216   -0.6591    1.1227 N.2       1 <0>        -0.2679
      4 N2          0.0237    0.0348    2.3397 N.pl3     1 <0>        -0.5403
      5 C3          0.0440   -0.6453    3.5032 C.2       1 <0>         0.6047
      6 S1          0.0465    0.2026    4.9904 S.2       1 <0>        -0.6243
      7 N3          0.0623   -1.9929    3.4958 N.pl3     1 <0>        -0.7831
      8 C4         -0.0001   -0.7338   -1.2779 C.ar      1 <0>        -0.0964
      9 C5         -0.0153   -0.0315   -2.4856 C.ar      1 <0>        -0.0542
     10 C6         -0.0174   -0.7176   -3.6804 C.ar      1 <0>        -0.1563
     11 C7         -0.0048   -2.1074   -3.6889 C.ar      1 <0>         0.1486
     12 C8          0.0104   -2.8138   -2.4951 C.ar      1 <0>        -0.1800
     13 C9          0.0189   -2.1357   -1.2888 C.ar      1 <0>         0.1685
     14 O1          0.0393   -2.8259   -0.1194 O.3       1 <0>        -0.4785
     15 O2         -0.0078   -2.7767   -4.8711 O.3       1 <0>        -0.4961
     16 H1          1.0042    1.8801    0.0026 H         1 <0>         0.0964
     17 H2         -0.5455    1.8639   -0.8728 H         1 <0>         0.0966
     18 H3         -0.5286    1.8543    0.9071 H         1 <0>         0.0764
     19 H4          0.0105    1.0047    2.3451 H         1 <0>         0.4167
     20 H5          0.0608   -2.4734    2.6531 H         1 <0>         0.4105
     21 H6          0.0769   -2.4824    4.3331 H         1 <0>         0.4315
     22 H7         -0.0259    1.0485   -2.4827 H         1 <0>         0.1427
     23 H8         -0.0292   -0.1738   -4.6134 H         1 <0>         0.1409
     24 H9          0.0197   -3.8937   -2.5072 H         1 <0>         0.1422
     25 H10        -0.8380   -3.0379    0.2277 H         1 <0>         0.3930
     26 H11         0.8746   -2.9625   -5.2201 H         1 <0>         0.3996
@<TRIPOS>BOND
     1    1    2 1
     2    1   16 1
     3    1   17 1
     4    1   18 1
     5    2    3 2
     6    2    8 1
     7    3    4 1
     8    4    5 1
     9    4   19 1
    10    5    6 2
    11    5    7 1
    12    7   20 1
    13    7   21 1
    14    8   13 ar
    15    8    9 ar
    16    9   10 ar
    17    9   22 1
    18   10   11 ar
    19   10   23 1
    20   11   12 ar
    21   11   15 1
    22   12   13 ar
    23   12   24 1
    24   13   14 1
    25   14   25 1
    26   15   26 1
@<TRIPOS>MOLECULE
ZINC16893001
   27    27     0     0     0
SMALL
USER_CHARGES

@<TRIPOS>ATOM
      1 C1         -0.9309    1.0853    2.0236 C.3       1 <0>        -0.1231
      2 C2         -0.6941   -0.3217    1.5383 C.ar      1 <0>        -0.0597
      3 C3         -1.1915   -0.7191    0.3098 C.ar      1 <0>        -0.1183
      4 C4         -0.9782   -2.0051   -0.1410 C.ar      1 <0>        -0.0757
      5 C5         -0.2583   -2.9071    0.6460 C.ar      1 <0>        -0.1281
      6 C6          0.2408   -2.4989    1.8852 C.ar      1 <0>        -0.1103
      7 C7          0.0244   -1.2082    2.3209 C.ar      1 <0>        -0.1109
      8 C8         -0.0266   -4.2840    0.1711 C.2       1 <0>         0.1883
      9 N1          1.0902   -4.8855    0.4449 N.2       1 <0>        -0.2911
     10 N2          2.1366   -4.1780    1.0510 N.pl3     1 <0>        -0.5413
     11 C9          3.2501   -4.8275    1.4443 C.2       1 <0>         0.5999
     12 S1          4.5288   -3.9630    2.1850 S.2       1 <0>        -0.6252
     13 N3          3.3570   -6.1576    1.2545 N.pl3     1 <0>        -0.7849
     14 C10        -1.0868   -4.9924   -0.6322 C.3       1 <0>        -0.1013
     15 H1         -0.1179    1.7279    1.6855 H         1 <0>         0.0781
     16 H2         -1.8755    1.4535    1.6235 H         1 <0>         0.0718
     17 H3         -0.9703    1.0921    3.1129 H         1 <0>         0.0717
     18 H4         -1.7482   -0.0208   -0.2975 H         1 <0>         0.1324
     19 H5         -1.3673   -2.3141   -1.0999 H         1 <0>         0.1342
     20 H6          0.7983   -3.1911    2.4988 H         1 <0>         0.1273
     21 H7          0.4132   -0.8900    3.2769 H         1 <0>         0.1335
     22 H8          2.0596   -3.2208    1.1876 H         1 <0>         0.4216
     23 H9          2.6325   -6.6474    0.8349 H         1 <0>         0.4084
     24 H10         4.1584   -6.6250    1.5376 H         1 <0>         0.4317
     25 H11        -0.9315   -4.7950   -1.6928 H         1 <0>         0.0941
     26 H12        -1.0249   -6.0652   -0.4494 H         1 <0>         0.0878
     27 H13        -2.0707   -4.6294   -0.3352 H         1 <0>         0.0894
@<TRIPOS>BOND
     1    1    2 1
     2    1   15 1
     3    1   16 1
     4    1   17 1
     5    2    7 ar
     6    2    3 ar
     7    3    4 ar
     8    3   18 1
     9    4    5 ar
    10    4   19 1
    11    5    6 ar
    12    5    8 1
    13    6    7 ar
    14    6   20 1
    15    7   21 1
    16    8    9 2
    17    8   14 1
    18    9   10 1
    19   10   11 1
    20   10   22 1
    21   11   12 2
    22   11   13 1
    23   13   23 1
    24   13   24 1
    25   14   25 1
    26   14   26 1
    27   14   27 1
@<TRIPOS>MOLECULE
ZINC05548948
   24    24     0     0     0
SMALL
USER_CHARGES

@<TRIPOS>ATOM
      1 C1          0.8152    1.2373   -0.1406 C.3       1 <0>        -0.1011
      2 C2         -0.0096   -0.0150    0.0092 C.2       1 <0>         0.1869
      3 N1         -0.3883   -0.4053    1.1873 N.2       1 <0>        -0.2891
      4 N2         -1.0284   -1.6418    1.3434 N.pl3     1 <0>        -0.5409
      5 C3         -1.5209   -1.9985    2.5462 C.2       1 <0>         0.6003
      6 S1         -2.3030   -3.5095    2.7370 S.2       1 <0>        -0.6243
      7 N3         -1.3976   -1.1659    3.5988 N.pl3     1 <0>        -0.7848
      8 C4         -0.3863   -0.7969   -1.1832 C.ar      1 <0>        -0.1217
      9 C5         -1.6541   -1.3767   -1.2704 C.ar      1 <0>        -0.1135
     10 C6         -1.9996   -2.1068   -2.3885 C.ar      1 <0>        -0.1089
     11 C7         -1.0936   -2.2654   -3.4223 C.ar      1 <0>        -0.0962
     12 C8          0.1640   -1.6939   -3.3428 C.ar      1 <0>        -0.1160
     13 C9          0.5211   -0.9564   -2.2332 C.ar      1 <0>        -0.0814
     14 H1          1.8739    0.9841   -0.0843 H         1 <0>         0.0941
     15 H2          0.6029    1.6990   -1.1049 H         1 <0>         0.0895
     16 H3          0.5654    1.9347    0.6590 H         1 <0>         0.0880
     17 H4         -1.1171   -2.2411    0.5859 H         1 <0>         0.4212
     18 H5         -0.9545   -0.3098    3.4907 H         1 <0>         0.4084
     19 H6         -1.7521   -1.4226    4.4644 H         1 <0>         0.4318
     20 H7         -2.3621   -1.2540   -0.4640 H         1 <0>         0.1259
     21 H8         -2.9794   -2.5559   -2.4571 H         1 <0>         0.1339
     22 H9         -1.3694   -2.8384   -4.2953 H         1 <0>         0.1315
     23 H10         0.8661   -1.8218   -4.1534 H         1 <0>         0.1328
     24 H11         1.5013   -0.5069   -2.1745 H         1 <0>         0.1336
@<TRIPOS>BOND
     1    1    2 1
     2    1   14 1
     3    1   15 1
     4    1   16 1
     5    2    3 2
     6    2    8 1
     7    3    4 1
     8    4    5 1
     9    4   17 1
    10    5    6 2
    11    5    7 1
    12    7   18 1
    13    7   19 1
    14    8   13 ar
    15    8    9 ar
    16    9   10 ar
    17    9   20 1
    18   10   11 ar
    19   10   21 1
    20   11   12 ar
    21   11   22 1
    22   12   13 ar
    23   12   23 1
    24   13   24 1
@<TRIPOS>MOLECULE
ZINC17173470
   24    24     0     0     0
SMALL
USER_CHARGES

@<TRIPOS>ATOM
      1 C1          0.8150    1.2375   -0.1408 C.3       1 <0>        -0.1017
      2 C2         -0.0096   -0.0149    0.0092 C.2       1 <0>         0.1831
      3 N1         -0.3881   -0.4053    1.1874 N.2       1 <0>        -0.2818
      4 N2         -1.0279   -1.6419    1.3436 N.pl3     1 <0>        -0.5428
      5 C3         -1.5202   -1.9987    2.5464 C.2       1 <0>         0.5992
      6 S1         -2.3021   -3.5097    2.7373 S.2       1 <0>        -0.6183
      7 N3         -1.3970   -1.1660    3.5990 N.pl3     1 <0>        -0.7839
      8 C4         -0.3863   -0.7969   -1.1831 C.ar      1 <0>        -0.1045
      9 C5         -1.6543   -1.3766   -1.2700 C.ar      1 <0>        -0.1080
     10 C6         -2.0004   -2.1062   -2.3879 C.ar      1 <0>        -0.0795
     11 C7         -1.0941   -2.2652   -3.4226 C.ar      1 <0>        -0.0727
     12 C8          0.1646   -1.6936   -3.3426 C.ar      1 <0>        -0.0868
     13 C9          0.5212   -0.9563   -2.2331 C.ar      1 <0>        -0.0751
     14 Br1        -1.5772   -3.2678   -4.9514 Br        1 <0>        -0.0328
     15 H1          1.8737    0.9843   -0.0846 H         1 <0>         0.0955
     16 H2          0.6025    1.6991   -1.1051 H         1 <0>         0.0905
     17 H3          0.5653    1.9349    0.6588 H         1 <0>         0.0896
     18 H4         -1.1166   -2.2412    0.5861 H         1 <0>         0.4209
     19 H5         -0.9540   -0.3098    3.4908 H         1 <0>         0.4086
     20 H6         -1.7513   -1.4228    4.4647 H         1 <0>         0.4324
     21 H7         -2.3619   -1.2539   -0.4633 H         1 <0>         0.1357
     22 H8         -2.9804   -2.5549   -2.4564 H         1 <0>         0.1445
     23 H9          0.8669   -1.8217   -4.1530 H         1 <0>         0.1437
     24 H10         1.5016   -0.5070   -2.1740 H         1 <0>         0.1442
@<TRIPOS>BOND
     1    1    2 1
     2    1   15 1
     3    1   16 1
     4    1   17 1
     5    2    3 2
     6    2    8 1
     7    3    4 1
     8    4    5 1
     9    4   18 1
    10    5    6 2
    11    5    7 1
    12    7   19 1
    13    7   20 1
    14    8   13 ar
    15    8    9 ar
    16    9   10 ar
    17    9   21 1
    18   10   11 ar
    19   10   22 1
    20   11   12 ar
    21   11   14 1
    22   12   13 ar
    23   12   23 1
    24   13   24 1
@<TRIPOS>MOLECULE
ZINC00396739
   19    19     0     0     0
SMALL
USER_CHARGES
1-(4-bromophenyl)-3-hydroxy-urea
@<TRIPOS>ATOM
      1 C1         -1.2043    3.0658   -0.0284 C.ar      1 <0>        -0.1389
      2 C2         -2.3937    3.7670    0.0067 C.ar      1 <0>        -0.0704
      3 C3         -3.5940    3.0899    0.1300 C.ar      1 <0>        -0.1059
      4 C4         -3.6068    1.7089    0.2126 C.ar      1 <0>        -0.0698
      5 C5         -2.4207    1.0024    0.1723 C.ar      1 <0>        -0.1141
      6 C6         -1.2147    1.6794    0.0486 C.ar      1 <0>         0.1791
      7 N1         -0.0111    0.9658    0.0074 N.am      1 <0>        -0.6772
      8 C7          0.0388   -0.2370   -0.5985 C.2       1 <0>         0.7214
      9 O1         -0.9774   -0.7381   -1.0397 O.2       1 <0>        -0.5490
     10 N2          1.2151   -0.8844   -0.7155 N.am      1 <0>        -0.6071
     11 O2          1.2675   -2.1482   -1.3520 O.3       1 <0>        -0.2950
     12 Br1        -5.2199    4.0538    0.1850 Br        1 <0>        -0.0489
     13 H1         -0.2673    3.5951   -0.1198 H         1 <0>         0.1365
     14 H2         -2.3865    4.8451   -0.0576 H         1 <0>         0.1386
     15 H3         -4.5451    1.1828    0.3085 H         1 <0>         0.1379
     16 H4         -2.4313   -0.0756    0.2364 H         1 <0>         0.1507
     17 H5          0.7861    1.3353    0.4183 H         1 <0>         0.4110
     18 H6          2.0258   -0.4847   -0.3635 H         1 <0>         0.4078
     19 H7          2.1534   -2.5340   -1.3881 H         1 <0>         0.3932
@<TRIPOS>BOND
     1    1    6 ar
     2    1    2 ar
     3    1   13 1
     4    2    3 ar
     5    2   14 1
     6    3    4 ar
     7    3   12 1
     8    4    5 ar
     9    4   15 1
    10    5    6 ar
    11    5   16 1
    12    6    7 1
    13    7    8 am
    14    7   17 1
    15    8    9 2
    16    8   10 am
    17   10   11 1
    18   10   18 1
    19   11   19 1
@<TRIPOS>MOLECULE
ZINC03875720
   18    18     0     0     0
SMALL
USER_CHARGES

@<TRIPOS>ATOM
      1 C1         -0.0032    1.4030   -0.0098 C.ar      1 <0>        -0.1119
      2 C2          1.1745    2.0787    0.2523 C.ar      1 <0>        -0.1114
      3 C3          2.3778    1.4008    0.2444 C.ar      1 <0>        -0.0711
      4 C4          2.4042    0.0391   -0.0271 C.ar      1 <0>         0.1191
      5 C5          1.2196   -0.6366   -0.2900 C.ar      1 <0>        -0.1226
      6 C6          0.0197    0.0471   -0.2806 C.ar      1 <0>        -0.1154
      7 N1          3.6213   -0.6504   -0.0363 N.pl3     1 <0>        -0.6300
      8 C7          4.5454   -0.3990    0.9120 C.2       1 <0>         0.5652
      9 S1          4.1767    0.6575    2.2077 S.2       1 <0>        -0.6132
     10 N2          5.7597   -0.9794    0.8404 N.pl3     1 <0>        -0.7982
     11 H1         -0.9433    1.9345    0.0014 H         1 <0>         0.1256
     12 H2          1.1533    3.1377    0.4630 H         1 <0>         0.1289
     13 H3          3.2973    1.9292    0.4489 H         1 <0>         0.1421
     14 H4          1.2368   -1.6955   -0.5018 H         1 <0>         0.1234
     15 H5         -0.9018   -0.4777   -0.4850 H         1 <0>         0.1277
     16 H6          3.8002   -1.3094   -0.7253 H         1 <0>         0.4076
     17 H7          5.9685   -1.5780    0.1062 H         1 <0>         0.3984
     18 H8          6.4247   -0.7985    1.5229 H         1 <0>         0.4360
@<TRIPOS>BOND
     1    1    6 ar
     2    1    2 ar
     3    1   11 1
     4    2    3 ar
     5    2   12 1
     6    3    4 ar
     7    3   13 1
     8    4    5 ar
     9    4    7 1
    10    5    6 ar
    11    5   14 1
    12    6   15 1
    13    7    8 1
    14    7   16 1
    15    8    9 2
    16    8   10 1
    17   10   17 1
    18   10   18 1
@<TRIPOS>MOLECULE
ZINC15923491
   23    23     0     0     0
SMALL
USER_CHARGES

@<TRIPOS>ATOM
      1 C1          0.8174    1.2353   -0.1388 C.3       1 <0>        -0.0954
      2 C2         -0.0097   -0.0156    0.0096 C.2       1 <0>         0.1525
      3 N1         -0.3912   -0.4053    1.1871 N.2       1 <0>        -0.1885
      4 N2         -1.0336   -1.6406    1.3421 N.pl3     1 <0>        -0.5629
      5 C3         -1.5360   -2.0020    2.5620 C.cat     1 <0>         0.5562
      6 N3         -2.1630   -3.2077    2.7133 N.pl3     1 <0>        -0.8121
      7 S1         -1.3844   -0.9767    3.8587 S.3       1 <0>        -0.5212
      8 C4         -0.3856   -0.7970   -1.1834 C.ar      1 <0>        -0.1594
      9 C5          0.5204   -0.9669   -2.2386 C.ar      1 <0>        -0.0403
     10 C6          0.1184   -1.7091   -3.3345 C.ar      1 <0>        -0.1641
     11 C7         -1.1529   -2.2548   -3.3538 C.ar      1 <0>         0.1133
     12 N4         -1.9857   -2.0783   -2.3461 N.ar      1 <0>        -0.4750
     13 C8         -1.6487   -1.3852   -1.2783 C.ar      1 <0>         0.0993
     14 H1          1.8755    0.9803   -0.0806 H         1 <0>         0.0922
     15 H2          0.6075    1.6973   -1.1035 H         1 <0>         0.0854
     16 H3          0.5673    1.9332    0.6603 H         1 <0>         0.0939
     17 H4         -2.2516   -3.8068    1.9556 H         1 <0>         0.3937
     18 H5         -2.5193   -3.4639    3.5784 H         1 <0>         0.4360
     19 H6          1.5070   -0.5294   -2.1975 H         1 <0>         0.1478
     20 H7          0.7899   -1.8608   -4.1666 H         1 <0>         0.1468
     21 H8         -1.4689   -2.8346   -4.2084 H         1 <0>         0.1650
     22 H9         -2.3566   -1.2666   -0.4713 H         1 <0>         0.1545
     23 H10        -1.1222   -2.2397    0.5844 H         1 <0>         0.3823
@<TRIPOS>BOND
     1    1    2 1
     2    1   14 1
     3    1   15 1
     4    1   16 1
     5    2    3 2
     6    2    8 1
     7    3    4 1
     8    4    5 2
     9    4   23 1
    10    5    6 1
    11    5    7 1
    12    6   17 1
    13    6   18 1
    14    8   13 ar
    15    8    9 ar
    16    9   10 ar
    17    9   19 1
    18   10   11 ar
    19   10   20 1
    20   11   12 ar
    21   11   21 1
    22   12   13 ar
    23   13   22 1
@<TRIPOS>MOLECULE
ZINC00225784
   31    31     0     0     0
SMALL
USER_CHARGES
[3-(4-hydroxyphenyl)-1-methyl-propylidene]aminothiourea
@<TRIPOS>ATOM
      1 C1          1.3208    1.6320   -2.8002 C.3       1 <0>        -0.1029
      2 C2         -0.1190    1.2354   -2.5984 C.2       1 <0>         0.1441
      3 N1         -0.5948    0.2180   -3.2125 N.2       1 <0>        -0.2931
      4 N2         -1.8931   -0.2266   -2.9303 N.pl3     1 <0>        -0.5425
      5 C3         -2.4317   -1.2326   -3.6475 C.2       1 <0>         0.6031
      6 S1         -4.0182   -1.7758   -3.3026 S.2       1 <0>        -0.6241
      7 N3         -1.7214   -1.8109   -4.6361 N.pl3     1 <0>        -0.7841
      8 C4         -0.9987    2.0367   -1.6736 C.3       1 <0>        -0.1301
      9 C5         -0.9898    1.3999   -0.2824 C.3       1 <0>        -0.0740
     10 C6         -1.8695    2.2011    0.6424 C.ar      1 <0>        -0.0996
     11 C7         -1.3323    3.2435    1.3750 C.ar      1 <0>        -0.0962
     12 C8         -2.1378    3.9831    2.2191 C.ar      1 <0>        -0.1435
     13 C9         -3.4844    3.6719    2.3401 C.ar      1 <0>         0.1061
     14 C10        -4.0197    2.6220    1.6082 C.ar      1 <0>        -0.1403
     15 C11        -3.2112    1.8891    0.7611 C.ar      1 <0>        -0.0979
     16 O1         -4.2777    4.3948    3.1737 O.3       1 <0>        -0.4998
     17 H1          1.9440    1.1246   -2.0639 H         1 <0>         0.0924
     18 H2          1.6388    1.3475   -3.8032 H         1 <0>         0.0840
     19 H3          1.4209    2.7106   -2.6796 H         1 <0>         0.0886
     20 H4         -2.4043    0.1897   -2.2187 H         1 <0>         0.4177
     21 H5         -0.8225   -1.5031   -4.8315 H         1 <0>         0.4087
     22 H6         -2.1091   -2.5349   -5.1523 H         1 <0>         0.4320
     23 H7         -2.0174    2.0489   -2.0611 H         1 <0>         0.0807
     24 H8         -0.6226    3.0576   -1.6083 H         1 <0>         0.1020
     25 H9         -1.3660    0.3789   -0.3477 H         1 <0>         0.0716
     26 H10         0.0289    1.3877    0.1051 H         1 <0>         0.0863
     27 H11        -0.2830    3.4824    1.2838 H         1 <0>         0.1282
     28 H12        -1.7186    4.7999    2.7878 H         1 <0>         0.1302
     29 H13        -5.0676    2.3776    1.7009 H         1 <0>         0.1315
     30 H14        -3.6276    1.0718    0.1909 H         1 <0>         0.1280
     31 H15        -4.3199    4.0480    4.0754 H         1 <0>         0.3928
@<TRIPOS>BOND
     1    1    2 1
     2    1   17 1
     3    1   18 1
     4    1   19 1
     5    2    3 2
     6    2    8 1
     7    3    4 1
     8    4    5 1
     9    4   20 1
    10    5    6 2
    11    5    7 1
    12    7   21 1
    13    7   22 1
    14    8    9 1
    15    8   23 1
    16    8   24 1
    17    9   10 1
    18    9   25 1
    19    9   26 1
    20   10   15 ar
    21   10   11 ar
    22   11   12 ar
    23   11   27 1
    24   12   13 ar
    25   12   28 1
    26   13   14 ar
    27   13   16 1
    28   14   15 ar
    29   14   29 1
    30   15   30 1
    31   16   31 1
@<TRIPOS>MOLECULE
ZINC13831818
   16    16     0     0     0
SMALL
USER_CHARGES

@<TRIPOS>ATOM
      1 C1         -0.0171    1.4131    0.0098 C.2       1 <0>        -0.2924
      2 C2          1.1530    2.0832    0.0022 C.2       1 <0>         0.1423
      3 O1          2.3210    1.4311   -0.0129 O.3       1 <0>        -0.1930
      4 C3          2.3885    0.0927   -0.0207 C.2       1 <0>        -0.0148
      5 C4          1.2651   -0.6579   -0.0136 C.2       1 <0>        -0.0350
      6 C5          0.0021   -0.0041    0.0020 C.2       1 <0>         0.4041
      7 O2         -1.0373   -0.6461    0.0085 O.2       1 <0>        -0.4653
      8 O3          1.3407   -2.0167   -0.0221 O.3       1 <0>        -0.4448
      9 C6          1.1448    3.5901    0.0104 C.3       1 <0>         0.1257
     10 O4          1.7232    4.0630    1.2285 O.3       1 <0>        -0.5613
     11 H1         -0.9550    1.9483    0.0261 H         1 <0>         0.1668
     12 H2          3.3534   -0.3923   -0.0333 H         1 <0>         0.2017
     13 H3          2.2446   -2.3602   -0.0332 H         1 <0>         0.3963
     14 H4          1.7242    3.9612   -0.8350 H         1 <0>         0.0811
     15 H5          0.1183    3.9483   -0.0674 H         1 <0>         0.0934
     16 H6          1.7509    5.0268    1.3027 H         1 <0>         0.3953
@<TRIPOS>BOND
     1    1    6 1
     2    1    2 2
     3    1   11 1
     4    2    3 1
     5    2    9 1
     6    3    4 1
     7    4    5 2
     8    4   12 1
     9    5    6 1
    10    5    8 1
    11    6    7 2
    12    8   13 1
    13    9   10 1
    14    9   14 1
    15    9   15 1
    16   10   16 1
@<TRIPOS>MOLECULE
ZINC13831818
   15    15     0     0     0
SMALL
USER_CHARGES

@<TRIPOS>ATOM
      1 C1         -0.0171    1.4131    0.0098 C.2       1 <0>        -0.3534
      2 C2          1.1530    2.0832    0.0022 C.2       1 <0>         0.1194
      3 O1          2.3210    1.4311   -0.0129 O.3       1 <0>        -0.1936
      4 C3          2.3885    0.0927   -0.0207 C.2       1 <0>        -0.2354
      5 C4          1.2651   -0.6579   -0.0136 C.2       1 <0>         0.1290
      6 C5          0.0021   -0.0041    0.0020 C.2       1 <0>         0.3612
      7 O2         -1.0373   -0.6461    0.0085 O.2       1 <0>        -0.5186
      8 O3          1.3407   -2.0167   -0.0221 O.3       1 <0>        -0.7019
      9 C6          1.1448    3.5901    0.0104 C.3       1 <0>         0.1348
     10 O4          1.7232    4.0630    1.2285 O.3       1 <0>        -0.5611
     11 H1         -0.9550    1.9483    0.0261 H         1 <0>         0.1293
     12 H2          3.3534   -0.3923   -0.0333 H         1 <0>         0.1675
     13 H3          1.7242    3.9612   -0.8350 H         1 <0>         0.0662
     14 H4          0.1183    3.9483   -0.0674 H         1 <0>         0.0772
     15 H5          1.7509    5.0268    1.3027 H         1 <0>         0.3795
@<TRIPOS>BOND
     1    1    6 1
     2    1    2 2
     3    1   11 1
     4    2    3 1
     5    2    9 1
     6    3    4 1
     7    4    5 2
     8    4   12 1
     9    5    6 1
    10    5    8 1
    11    6    7 2
    12    9   10 1
    13    9   13 1
    14    9   14 1
    15   10   15 1
@<TRIPOS>MOLECULE
ZINC04099897
   31    32     0     0     0
SMALL
USER_CHARGES
1-(4-aminophenyl)-3-(4-hydroxyphenyl)-prop-2-en-1-one
@<TRIPOS>ATOM
      1 C1         -3.7205   -2.1743    0.0317 C.ar      1 <0>        -0.0822
      2 C2         -4.9001   -2.8835    0.0333 C.ar      1 <0>        -0.1482
      3 C3         -4.8784   -4.2738    0.0251 C.ar      1 <0>         0.1193
      4 C4         -3.6664   -4.9550    0.0104 C.ar      1 <0>        -0.1485
      5 C5         -2.4810   -4.2556    0.0029 C.ar      1 <0>        -0.0759
      6 C6         -2.4971   -2.8554    0.0106 C.ar      1 <0>        -0.0900
      7 C7         -1.2350   -2.1036    0.0026 C.2       1 <0>        -0.0167
      8 C8         -1.2533   -0.7518    0.0100 C.2       1 <0>        -0.2319
      9 C9          0.0021   -0.0041    0.0020 C.2       1 <0>         0.4282
     10 O1          1.0650   -0.5986   -0.0113 O.2       1 <0>        -0.4705
     11 C10        -0.0179    1.4720    0.0101 C.ar      1 <0>        -0.2250
     12 C11        -1.2374    2.1560    0.0196 C.ar      1 <0>        -0.0212
     13 C12        -1.2526    3.5319    0.0320 C.ar      1 <0>        -0.2145
     14 C13        -0.0555    4.2430    0.0244 C.ar      1 <0>         0.2484
     15 C14         1.1604    3.5647    0.0096 C.ar      1 <0>        -0.2138
     16 C15         1.1824    2.1889    0.0025 C.ar      1 <0>        -0.0093
     17 N1         -0.0744    5.6334    0.0311 N.pl3     1 <0>        -0.8670
     18 O2         -6.0445   -4.9683    0.0320 O.3       1 <0>        -0.4987
     19 H1         -3.7384   -1.0945    0.0425 H         1 <0>         0.1330
     20 H2         -5.8442   -2.3592    0.0454 H         1 <0>         0.1334
     21 H3         -3.6551   -6.0349    0.0045 H         1 <0>         0.1338
     22 H4         -1.5401   -4.7857   -0.0085 H         1 <0>         0.1342
     23 H5         -0.2925   -2.6308   -0.0093 H         1 <0>         0.1360
     24 H6         -2.1958   -0.2246    0.0218 H         1 <0>         0.1325
     25 H7         -2.1662    1.6051    0.0214 H         1 <0>         0.1298
     26 H8         -2.1942    4.0608    0.0438 H         1 <0>         0.1266
     27 H9          2.0873    4.1191    0.0041 H         1 <0>         0.1267
     28 H10         2.1259    1.6634   -0.0086 H         1 <0>         0.1331
     29 H11         0.7590    6.1298    0.0255 H         1 <0>         0.4020
     30 H12        -0.9209    6.1069    0.0414 H         1 <0>         0.4018
     31 H13        -6.3743   -5.1743    0.9174 H         1 <0>         0.3945
@<TRIPOS>BOND
     1    1    6 ar
     2    1    2 ar
     3    1   19 1
     4    2    3 ar
     5    2   20 1
     6    3    4 ar
     7    3   18 1
     8    4    5 ar
     9    4   21 1
    10    5    6 ar
    11    5   22 1
    12    6    7 1
    13    7    8 2
    14    7   23 1
    15    8    9 1
    16    8   24 1
    17    9   10 2
    18    9   11 1
    19   11   16 ar
    20   11   12 ar
    21   12   13 ar
    22   12   25 1
    23   13   14 ar
    24   13   26 1
    25   14   15 ar
    26   14   17 1
    27   15   16 ar
    28   15   27 1
    29   16   28 1
    30   17   29 1
    31   17   30 1
    32   18   31 1
@<TRIPOS>MOLECULE
ZINC12959788
   25    25     0     0     0
SMALL
USER_CHARGES

@<TRIPOS>ATOM
      1 C1         -0.0167    1.3798    0.0096 C.ar      1 <0>        -0.1021
      2 C2          1.1681    2.0952    0.0022 C.ar      1 <0>        -0.1232
      3 C3          2.3774    1.4329   -0.0130 C.ar      1 <0>        -0.0920
      4 C4          2.4047    0.0349   -0.0208 C.ar      1 <0>        -0.0894
      5 C5          1.2034   -0.6808   -0.0131 C.ar      1 <0>        -0.0978
      6 C6          0.0021   -0.0041    0.0020 C.ar      1 <0>        -0.1211
      7 C7          3.6915   -0.6798   -0.0374 C.2       1 <0>        -0.0073
      8 C8          3.7138   -2.0283   -0.0449 C.2       1 <0>        -0.2192
      9 C9          4.9534   -2.7168   -0.0609 C.2       1 <0>         0.1514
     10 N1          4.9750   -4.0190   -0.0681 N.2       1 <0>        -0.2921
     11 N2          3.7735   -4.7395   -0.0600 N.pl3     1 <0>        -0.5406
     12 C10         3.7958   -6.0871   -0.0675 C.2       1 <0>         0.6026
     13 S1          2.3277   -6.9676   -0.0577 S.2       1 <0>        -0.6244
     14 N3          4.9740   -6.7415   -0.0827 N.pl3     1 <0>        -0.7840
     15 H1         -0.9607    1.9041    0.0260 H         1 <0>         0.1268
     16 H2          1.1453    3.1749    0.0078 H         1 <0>         0.1282
     17 H3          3.3011    1.9925   -0.0191 H         1 <0>         0.1293
     18 H4          1.2165   -1.7607   -0.0194 H         1 <0>         0.1246
     19 H5         -0.9266   -0.5554    0.0079 H         1 <0>         0.1285
     20 H6          4.6177   -0.1244   -0.0436 H         1 <0>         0.1364
     21 H7          2.7877   -2.5838   -0.0387 H         1 <0>         0.1206
     22 H8          5.8796   -2.1614   -0.0671 H         1 <0>         0.1868
     23 H9          2.9256   -4.2686   -0.0491 H         1 <0>         0.4170
     24 H10         5.8058   -6.2426   -0.0883 H         1 <0>         0.4090
     25 H11         4.9901   -7.7113   -0.0881 H         1 <0>         0.4321
@<TRIPOS>BOND
     1    1    6 ar
     2    1    2 ar
     3    1   15 1
     4    2    3 ar
     5    2   16 1
     6    3    4 ar
     7    3   17 1
     8    4    5 ar
     9    4    7 1
    10    5    6 ar
    11    5   18 1
    12    6   19 1
    13    7    8 2
    14    7   20 1
    15    8    9 1
    16    8   21 1
    17    9   10 2
    18    9   22 1
    19   10   11 1
    20   11   12 1
    21   11   23 1
    22   12   13 2
    23   12   14 1
    24   14   24 1
    25   14   25 1
@<TRIPOS>MOLECULE
ZINC12959788
   25    25     0     0     0
SMALL
USER_CHARGES

@<TRIPOS>ATOM
      1 C1         -0.0167    1.3798    0.0096 C.ar      1 <0>        -0.1060
      2 C2          1.1681    2.0952    0.0022 C.ar      1 <0>        -0.1206
      3 C3          2.3774    1.4329   -0.0129 C.ar      1 <0>        -0.0938
      4 C4          2.4047    0.0349   -0.0206 C.ar      1 <0>        -0.0816
      5 C5          1.2034   -0.6808   -0.0130 C.ar      1 <0>        -0.1038
      6 C6          0.0021   -0.0041    0.0020 C.ar      1 <0>        -0.1217
      7 C7          3.6915   -0.6798   -0.0372 C.2       1 <0>        -0.0236
      8 C8          3.7138   -2.0283   -0.0446 C.2       1 <0>        -0.2042
      9 C9          4.9534   -2.7168   -0.0605 C.2       1 <0>         0.1152
     10 N1          4.9750   -4.0190   -0.0677 N.2       1 <0>        -0.1982
     11 N2          3.7735   -4.7395   -0.0596 N.pl3     1 <0>        -0.5595
     12 C10         3.7962   -6.1071   -0.0671 C.cat     1 <0>         0.5574
     13 N3          2.6233   -6.8105   -0.0593 N.pl3     1 <0>        -0.8140
     14 S1          5.2472   -6.9131   -0.0858 S.3       1 <0>        -0.5236
     15 H1         -0.9607    1.9041    0.0260 H         1 <0>         0.1261
     16 H2          1.1453    3.1749    0.0078 H         1 <0>         0.1283
     17 H3          3.3011    1.9925   -0.0191 H         1 <0>         0.1302
     18 H4          1.2165   -1.7607   -0.0192 H         1 <0>         0.1198
     19 H5         -0.9266   -0.5554    0.0082 H         1 <0>         0.1258
     20 H6          4.6177   -0.1244   -0.0434 H         1 <0>         0.1369
     21 H7          2.7877   -2.5838   -0.0384 H         1 <0>         0.1135
     22 H8          5.8796   -2.1614   -0.0668 H         1 <0>         0.1900
     23 H9          1.7754   -6.3396   -0.0484 H         1 <0>         0.3926
     24 H10         2.6394   -7.7804   -0.0646 H         1 <0>         0.4354
     25 H11         2.9256   -4.2686   -0.0487 H         1 <0>         0.3794
@<TRIPOS>BOND
     1    1    6 ar
     2    1    2 ar
     3    1   15 1
     4    2    3 ar
     5    2   16 1
     6    3    4 ar
     7    3   17 1
     8    4    5 ar
     9    4    7 1
    10    5    6 ar
    11    5   18 1
    12    6   19 1
    13    7    8 2
    14    7   20 1
    15    8    9 1
    16    8   21 1
    17    9   10 2
    18    9   22 1
    19   10   11 1
    20   11   12 2
    21   11   25 1
    22   12   13 1
    23   12   14 1
    24   13   23 1
    25   13   24 1
@<TRIPOS>MOLECULE
ZINC00295850
   19    20     0     0     0
SMALL
USER_CHARGES
5-(4-hydroxyphenyl)-3H-1,3,4-oxadiazole-2-thione
@<TRIPOS>ATOM
      1 C1          2.8932    4.8401    0.0044 C.ar      1 <0>        -0.0483
      2 C2          3.7065    5.9531   -0.0026 C.ar      1 <0>        -0.1478
      3 C3          3.1471    7.2241    0.0091 C.ar      1 <0>         0.1505
      4 C4          1.7671    7.3793    0.0226 C.ar      1 <0>        -0.1490
      5 C5          0.9472    6.2713    0.0249 C.ar      1 <0>        -0.0405
      6 C6          1.5056    4.9920    0.0131 C.ar      1 <0>        -0.0638
      7 C7          0.6298    3.8010    0.0160 C.2       1 <0>         0.3059
      8 N1         -0.6720    3.8206    0.0282 N.2       1 <0>        -0.2684
      9 N2         -1.1202    2.4915    0.0202 N.pl3     1 <0>        -0.4767
     10 H1         -2.0431    2.1928    0.0221 H         1 <0>         0.4757
     11 C8         -0.0211    1.7077    0.0114 C.2       1 <0>         0.4226
     12 S1          0.0021   -0.0041    0.0020 S.2       1 <0>        -0.4410
     13 O1          1.0518    2.5177    0.0055 O.3       1 <0>        -0.2070
     14 O2          3.9520    8.3186    0.0079 O.3       1 <0>        -0.4953
     15 H2          3.3290    3.8520   -0.0002 H         1 <0>         0.1448
     16 H3          4.7801    5.8364   -0.0131 H         1 <0>         0.1456
     17 H4          1.3358    8.3694    0.0317 H         1 <0>         0.1457
     18 H5         -0.1259    6.3927    0.0361 H         1 <0>         0.1456
     19 H6          4.1931    8.6305    0.8908 H         1 <0>         0.4017
@<TRIPOS>BOND
     1    1    6 ar
     2    1    2 ar
     3    1   15 1
     4    2    3 ar
     5    2   16 1
     6    3    4 ar
     7    3   14 1
     8    4    5 ar
     9    4   17 1
    10    5    6 ar
    11    5   18 1
    12    6    7 1
    13    7   13 1
    14    7    8 2
    15    8    9 1
    16    9   10 1
    17    9   11 1
    18   11   12 2
    19   11   13 1
    20   14   19 1
@<TRIPOS>MOLECULE
ZINC05830973
   22    22     0     0     0
SMALL
USER_CHARGES
(1-pyrazin-2-ylethylideneamino)thiourea
@<TRIPOS>ATOM
      1 C1         -2.5905    1.2812   -0.0574 C.3       1 <0>        -0.0955
      2 C2         -1.3194    2.0818   -0.1777 C.2       1 <0>         0.1968
      3 N1         -1.3165    3.3442    0.1245 N.2       1 <0>        -0.2623
      4 N2         -0.1134    4.0621    0.1228 N.pl3     1 <0>        -0.5574
      5 C3         -0.1227    5.3934    0.3328 C.2       1 <0>         0.6086
      6 S1          1.3475    6.2706    0.3308 S.2       1 <0>        -0.6360
      7 N3         -1.2894    6.0341    0.5443 N.pl3     1 <0>        -0.8091
      8 C4         -0.0796    1.4314   -0.6384 C.ar      1 <0>         0.0450
      9 C5          0.6153    1.9439   -1.7386 C.ar      1 <0>         0.0710
     10 N4          1.7212    1.3537   -2.1490 N.ar      1 <0>        -0.4238
     11 C6          2.1726    0.2799   -1.5222 C.ar      1 <0>         0.0707
     12 C7          1.4888   -0.2316   -0.4327 C.ar      1 <0>         0.0599
     13 N5          0.3809    0.3498   -0.0122 N.ar      1 <0>        -0.4062
     14 H1         -2.3975    0.2399   -0.3547 H         1 <0>         0.0881
     15 H2         -3.3597    1.7135   -0.7143 H         1 <0>         0.0934
     16 H3         -2.9421    1.3059    0.9846 H         1 <0>         0.0957
     17 H4          0.8388    3.5392   -0.0499 H         1 <0>         0.4368
     18 H5         -1.2970    7.1206    0.7157 H         1 <0>         0.4595
     19 H6         -2.2340    5.4705    0.5455 H         1 <0>         0.4294
     20 H7          0.2472    2.8204   -2.2511 H         1 <0>         0.1709
     21 H8          3.0788   -0.1996   -1.8618 H         1 <0>         0.1816
     22 H9          1.8626   -1.1089    0.0743 H         1 <0>         0.1829
@<TRIPOS>BOND
     1    1    2 1
     2    1   14 1
     3    1   15 1
     4    1   16 1
     5    2    3 2
     6    2    8 1
     7    3    4 1
     8    4    5 1
     9    4   17 1
    10    5    6 2
    11    5    7 1
    12    7   18 1
    13    7   19 1
    14    8   13 ar
    15    8    9 ar
    16    9   10 ar
    17    9   20 1
    18   10   11 ar
    19   11   12 ar
    20   11   21 1
    21   12   13 ar
    22   12   22 1
@<TRIPOS>MOLECULE
ZINC16890891
   21    21     0     0     0
SMALL
USER_CHARGES

@<TRIPOS>ATOM
      1 C1          0.2946    1.4456   -0.0398 C.3       1 <0>        -0.0954
      2 C2         -0.0115   -0.0290    0.0156 C.2       1 <0>         0.2303
      3 N1         -0.0298   -0.6467    1.1599 N.2       1 <0>        -0.2862
      4 N2         -0.1736   -2.0396    1.2017 N.pl3     1 <0>        -0.5378
      5 C3         -0.3036   -2.6684    2.3868 C.2       1 <0>         0.5999
      6 S1         -0.4794   -4.3705    2.4379 S.2       1 <0>        -0.6170
      7 N3         -0.2952   -1.9571    3.5315 N.pl3     1 <0>        -0.7839
      8 C4         -0.2887   -0.7675   -1.2210 C.2       1 <0>        -0.2215
      9 C5          0.2193   -0.5630   -2.4920 C.2       1 <0>        -0.0860
     10 C6         -0.1962   -1.3973   -3.5040 C.2       1 <0>        -0.1687
     11 C7         -1.0841   -2.3873   -3.2274 C.2       1 <0>        -0.1407
     12 S2         -1.3635   -2.1699   -1.4778 S.3       1 <0>         0.0811
     13 H1          1.3692    1.5897   -0.1513 H         1 <0>         0.0964
     14 H2         -0.2220    1.8921   -0.8895 H         1 <0>         0.0910
     15 H3         -0.0422    1.9214    0.8812 H         1 <0>         0.0923
     16 H4         -0.1797   -2.5516    0.3779 H         1 <0>         0.4152
     17 H5         -0.1956   -0.9926    3.5025 H         1 <0>         0.4086
     18 H6         -0.3888   -2.4096    4.3844 H         1 <0>         0.4324
     19 H7          0.9242    0.2322   -2.6848 H         1 <0>         0.1466
     20 H8          0.1796   -1.2662   -4.5081 H         1 <0>         0.1469
     21 H9         -1.5097   -3.1216   -3.8952 H         1 <0>         0.1965
@<TRIPOS>BOND
     1    1    2 1
     2    1   13 1
     3    1   14 1
     4    1   15 1
     5    2    3 2
     6    2    8 1
     7    3    4 1
     8    4    5 1
     9    4   16 1
    10    5    6 2
    11    5    7 1
    12    7   17 1
    13    7   18 1
    14    8   12 1
    15    8    9 2
    16    9   10 1
    17    9   19 1
    18   10   11 2
    19   10   20 1
    20   11   12 1
    21   11   21 1
@<TRIPOS>MOLECULE
ZINC29125023
   31    31     0     0     0
SMALL
USER_CHARGES
[[2-(4-methoxyphenyl)-1-methyl-ethylidene]amino]thiourea
@<TRIPOS>ATOM
      1 C1          0.1069    1.6905    0.0497 C.3       1 <0>        -0.1039
      2 C2         -0.7617    1.5572    1.2740 C.2       1 <0>         0.1458
      3 N1         -2.0059    1.2834    1.1492 N.2       1 <0>        -0.2886
      4 N2         -2.8383    1.2774    2.2762 N.pl3     1 <0>        -0.5559
      5 C3         -4.1231    0.8863    2.1629 C.2       1 <0>         0.6116
      6 S1         -5.1402    0.8789    3.5400 S.2       1 <0>        -0.6524
      7 N3         -4.6072    0.5010    0.9656 N.pl3     1 <0>        -0.8116
      8 C4         -0.1655    1.7462    2.6451 C.3       1 <0>        -0.0833
      9 C5          0.2316    0.4064    3.2092 C.ar      1 <0>        -0.1285
     10 C6         -0.6722   -0.3211    3.9613 C.ar      1 <0>        -0.0724
     11 C7         -0.3124   -1.5521    4.4748 C.ar      1 <0>        -0.2006
     12 C8          0.9607   -2.0531    4.2449 C.ar      1 <0>         0.1336
     13 C9          1.8676   -1.3186    3.4947 C.ar      1 <0>        -0.1492
     14 C10         1.5011   -0.0907    2.9786 C.ar      1 <0>        -0.0657
     15 O1          1.3187   -3.2615    4.7532 O.3       1 <0>        -0.3156
     16 C11         0.3339   -3.9620    5.5157 C.3       1 <0>         0.0217
     17 H1          1.1371    1.9261    0.3549 H         1 <0>         0.0871
     18 H2         -0.2804    2.4985   -0.5884 H         1 <0>         0.0884
     19 H3          0.0979    0.7442   -0.5110 H         1 <0>         0.0869
     20 H4         -2.4432    1.5919    3.2534 H         1 <0>         0.4355
     21 H5         -5.6558    0.1818    0.8732 H         1 <0>         0.4569
     22 H6         -3.9537    0.5057    0.0808 H         1 <0>         0.4287
     23 H7          0.7224    2.3915    2.5730 H         1 <0>         0.1080
     24 H8         -0.9081    2.2169    3.3062 H         1 <0>         0.0815
     25 H9         -1.6617    0.0713    4.1437 H         1 <0>         0.1206
     26 H10        -1.0202   -2.1220    5.0585 H         1 <0>         0.1316
     27 H11         2.8594   -1.7063    3.3146 H         1 <0>         0.1347
     28 H12         2.2066    0.4814    2.3943 H         1 <0>         0.1338
     29 H13         0.7520   -4.9177    5.8648 H         1 <0>         0.1049
     30 H14        -0.5476   -4.1553    4.8867 H         1 <0>         0.0576
     31 H15         0.0393   -3.3522    6.3825 H         1 <0>         0.0590
@<TRIPOS>BOND
     1    1    2 1
     2    1   17 1
     3    1   18 1
     4    1   19 1
     5    2    3 2
     6    2    8 1
     7    3    4 1
     8    4    5 1
     9    4   20 1
    10    5    6 2
    11    5    7 1
    12    7   21 1
    13    7   22 1
    14    8    9 1
    15    8   23 1
    16    8   24 1
    17    9   14 ar
    18    9   10 ar
    19   10   11 ar
    20   10   25 1
    21   11   12 ar
    22   11   26 1
    23   12   13 ar
    24   12   15 1
    25   13   14 ar
    26   13   27 1
    27   14   28 1
    28   15   16 1
    29   16   29 1
    30   16   30 1
    31   16   31 1
@<TRIPOS>MOLECULE
ZINC15224175
   28    28     0     0     0
SMALL
USER_CHARGES
[1-(4-methoxyphenyl)ethylideneamino]thiourea
@<TRIPOS>ATOM
      1 C1          0.1258    7.9165    1.9799 C.3       1 <0>        -0.1016
      2 C2         -1.1381    7.1003    2.0662 C.2       1 <0>         0.1932
      3 N1         -2.2876    7.6582    1.8385 N.2       1 <0>        -0.2937
      4 N2         -3.4447    6.8721    1.7612 N.pl3     1 <0>        -0.5415
      5 C3         -4.6520    7.4597    1.6446 C.2       1 <0>         0.6000
      6 S1         -6.0660    6.4991    1.5502 S.2       1 <0>        -0.6255
      7 N3         -4.7462    8.8035    1.6024 N.pl3     1 <0>        -0.7850
      8 C4         -1.0688    5.6682    2.4094 C.ar      1 <0>        -0.1618
      9 C5         -2.0737    5.0840    3.1850 C.ar      1 <0>        -0.0739
     10 C6         -2.0050    3.7448    3.5029 C.ar      1 <0>        -0.1416
     11 C7         -0.9393    2.9759    3.0533 C.ar      1 <0>         0.1541
     12 C8          0.0647    3.5535    2.2869 C.ar      1 <0>        -0.2073
     13 C9          0.0016    4.8908    1.9597 C.ar      1 <0>        -0.0371
     14 O1         -0.8760    1.6560    3.3688 O.3       1 <0>        -0.3106
     15 C10         0.2471    0.9239    2.8740 C.3       1 <0>         0.0232
     16 H1          0.5141    7.8784    0.9621 H         1 <0>         0.0934
     17 H2         -0.0905    8.9507    2.2478 H         1 <0>         0.0878
     18 H3          0.8680    7.5107    2.6674 H         1 <0>         0.0890
     19 H4         -3.3769    5.9049    1.7917 H         1 <0>         0.4211
     20 H5         -3.9451    9.3477    1.6559 H         1 <0>         0.4084
     21 H6         -5.6151    9.2263    1.5185 H         1 <0>         0.4315
     22 H7         -2.9031    5.6810    3.5345 H         1 <0>         0.1343
     23 H8         -2.7812    3.2925    4.1023 H         1 <0>         0.1428
     24 H9          0.8939    2.9529    1.9434 H         1 <0>         0.1384
     25 H10         0.7805    5.3381    1.3600 H         1 <0>         0.1374
     26 H11         0.1749   -0.1145    3.1973 H         1 <0>         0.1057
     27 H12         1.1663    1.3623    3.2623 H         1 <0>         0.0597
     28 H13         0.2566    0.9655    1.7848 H         1 <0>         0.0598
@<TRIPOS>BOND
     1    1    2 1
     2    1   16 1
     3    1   17 1
     4    1   18 1
     5    2    3 2
     6    2    8 1
     7    3    4 1
     8    4    5 1
     9    4   19 1
    10    5    6 2
    11    5    7 1
    12    7   20 1
    13    7   21 1
    14    8   13 ar
    15    8    9 ar
    16    9   10 ar
    17    9   22 1
    18   10   11 ar
    19   10   23 1
    20   11   12 ar
    21   11   14 1
    22   12   13 ar
    23   12   24 1
    24   13   25 1
    25   14   15 1
    26   15   26 1
    27   15   27 1
    28   15   28 1
@<TRIPOS>MOLECULE
ZINC05412091
   25    25     0     0     0
SMALL
USER_CHARGES

@<TRIPOS>ATOM
      1 C1          0.8143    1.2382   -0.1414 C.3       1 <0>        -0.1013
      2 C2         -0.0095   -0.0146    0.0090 C.2       1 <0>         0.1875
      3 N1         -0.3872   -0.4053    1.1875 N.2       1 <0>        -0.2878
      4 N2         -1.0262   -1.6423    1.3441 N.pl3     1 <0>        -0.5417
      5 C3         -1.5177   -1.9994    2.5472 C.2       1 <0>         0.5999
      6 S1         -2.2985   -3.5109    2.7385 S.2       1 <0>        -0.6222
      7 N3         -1.3944   -1.1665    3.5997 N.pl3     1 <0>        -0.7847
      8 C4         -0.3864   -0.7966   -1.1828 C.ar      1 <0>        -0.1318
      9 C5         -1.6551   -1.3760   -1.2683 C.ar      1 <0>        -0.0950
     10 C6         -2.0032   -2.1056   -2.3844 C.ar      1 <0>        -0.1358
     11 C7         -1.0952   -2.2655   -3.4232 C.ar      1 <0>         0.1326
     12 C8          0.1671   -1.6917   -3.3423 C.ar      1 <0>        -0.1429
     13 C9          0.5219   -0.9556   -2.2327 C.ar      1 <0>        -0.0627
     14 O1         -1.4427   -2.9856   -4.5215 O.3       1 <0>        -0.4957
     15 H1          1.8732    0.9857   -0.0859 H         1 <0>         0.0944
     16 H2          0.6010    1.6998   -1.1056 H         1 <0>         0.0897
     17 H3          0.5646    1.9355    0.6583 H         1 <0>         0.0884
     18 H4         -1.1149   -2.2417    0.5866 H         1 <0>         0.4210
     19 H5         -0.9520   -0.3101    3.4913 H         1 <0>         0.4084
     20 H6         -1.7481   -1.4235    4.4655 H         1 <0>         0.4319
     21 H7         -2.3616   -1.2525   -0.4609 H         1 <0>         0.1309
     22 H8         -2.9833   -2.5541   -2.4512 H         1 <0>         0.1404
     23 H9          0.8702   -1.8192   -4.1522 H         1 <0>         0.1395
     24 H10         1.5019   -0.5058   -2.1727 H         1 <0>         0.1391
     25 H11        -1.8524   -2.4606   -5.2226 H         1 <0>         0.3981
@<TRIPOS>BOND
     1    1    2 1
     2    1   15 1
     3    1   16 1
     4    1   17 1
     5    2    3 2
     6    2    8 1
     7    3    4 1
     8    4    5 1
     9    4   18 1
    10    5    6 2
    11    5    7 1
    12    7   19 1
    13    7   20 1
    14    8   13 ar
    15    8    9 ar
    16    9   10 ar
    17    9   21 1
    18   10   11 ar
    19   10   22 1
    20   11   12 ar
    21   11   14 1
    22   12   13 ar
    23   12   23 1
    24   13   24 1
    25   14   25 1
@<TRIPOS>MOLECULE
ZINC05412084
   24    24     0     0     0
SMALL
USER_CHARGES
[1-(4-fluorophenyl)ethylideneamino]thiourea
@<TRIPOS>ATOM
      1 C1         -2.2553    5.7278   -0.7690 C.3       1 <0>        -0.1041
      2 C2         -2.3451    4.4006   -0.0609 C.2       1 <0>         0.1802
      3 N1         -1.3053    3.9181    0.5474 N.2       1 <0>        -0.2819
      4 N2         -1.3347    2.6136    1.0574 N.pl3     1 <0>        -0.5575
      5 C3         -0.3022    2.1535    1.7914 C.2       1 <0>         0.6066
      6 S1         -0.3382    0.5593    2.4145 S.2       1 <0>        -0.6455
      7 N3          0.7610    2.9466    2.0302 N.pl3     1 <0>        -0.8113
      8 C4         -3.6145    3.6502   -0.0591 C.ar      1 <0>        -0.1256
      9 C5         -4.4365    3.6601   -1.1887 C.ar      1 <0>        -0.0539
     10 C6         -5.6191    2.9510   -1.1835 C.ar      1 <0>        -0.1485
     11 C7         -5.9990    2.2400   -0.0561 C.ar      1 <0>         0.1229
     12 C8         -5.1906    2.2315    1.0698 C.ar      1 <0>        -0.1419
     13 C9         -4.0026    2.9313    1.0741 C.ar      1 <0>        -0.0890
     14 F1         -7.1618    1.5521   -0.0547 F         1 <0>        -0.1296
     15 H1         -3.2287    5.9687   -1.2213 H         1 <0>         0.0886
     16 H2         -1.4889    5.6723   -1.5561 H         1 <0>         0.0915
     17 H3         -1.9828    6.5112   -0.0464 H         1 <0>         0.0919
     18 H4         -2.2005    1.9648    0.8588 H         1 <0>         0.4418
     19 H5          1.6037    2.5711    2.6293 H         1 <0>         0.4577
     20 H6          0.7860    3.9694    1.6261 H         1 <0>         0.4285
     21 H7         -4.1437    4.2177   -2.0661 H         1 <0>         0.1455
     22 H8         -6.2527    2.9534   -2.0581 H         1 <0>         0.1464
     23 H9         -5.4917    1.6753    1.9452 H         1 <0>         0.1477
     24 H10        -3.3731    2.9233    1.9517 H         1 <0>         0.1394
@<TRIPOS>BOND
     1    1    2 1
     2    1   15 1
     3    1   16 1
     4    1   17 1
     5    2    3 2
     6    2    8 1
     7    3    4 1
     8    4    5 1
     9    4   18 1
    10    5    6 2
    11    5    7 1
    12    7   19 1
    13    7   20 1
    14    8   13 ar
    15    8    9 ar
    16    9   10 ar
    17    9   21 1
    18   10   11 ar
    19   10   22 1
    20   11   12 ar
    21   11   14 1
    22   12   13 ar
    23   12   23 1
    24   13   24 1
@<TRIPOS>MOLECULE
ZINC01576892
   32    32     0     0     0
SMALL
USER_CHARGES

@<TRIPOS>ATOM
      1 C1         -0.0187    1.5258    0.0104 C.3       1 <0>        -0.1545
      2 C2          0.0021   -0.0041    0.0020 C.3       1 <0>        -0.1257
      3 C3          0.7182   -0.4975   -1.2568 C.3       1 <0>        -0.1210
      4 C4          0.7390   -2.0273   -1.2652 C.3       1 <0>        -0.1196
      5 C5          1.4551   -2.5207   -2.5240 C.3       1 <0>        -0.1119
      6 C6          1.4758   -4.0506   -2.5324 C.3       1 <0>        -0.0737
      7 C7          2.1812   -4.5366   -3.7723 C.ar      1 <0>        -0.1147
      8 C8          1.4507   -4.8635   -4.8989 C.ar      1 <0>        -0.0866
      9 C9          2.0944   -5.3093   -6.0371 C.ar      1 <0>        -0.1504
     10 C10         3.4770   -5.4299   -6.0516 C.ar      1 <0>         0.1164
     11 C11         4.2120   -5.1027   -4.9229 C.ar      1 <0>        -0.1714
     12 C12         3.5640   -4.6501   -3.7836 C.ar      1 <0>         0.1239
     13 O1          4.2823   -4.3227   -2.6774 O.3       1 <0>        -0.4925
     14 O2          4.1096   -5.8690   -7.1714 O.3       1 <0>        -0.4982
     15 H1          1.0039    1.9031    0.0027 H         1 <0>         0.0535
     16 H2         -0.5459    1.8868   -0.8726 H         1 <0>         0.0532
     17 H3         -0.5289    1.8773    0.9072 H         1 <0>         0.0534
     18 H4          0.5293   -0.3651    0.8851 H         1 <0>         0.0605
     19 H5         -1.0205   -0.3814    0.0098 H         1 <0>         0.0602
     20 H6          0.1910   -0.1364   -2.1398 H         1 <0>         0.0605
     21 H7          1.7408   -0.1202   -1.2645 H         1 <0>         0.0614
     22 H8          1.2661   -2.3884   -0.3821 H         1 <0>         0.0620
     23 H9         -0.2836   -2.4046   -1.2575 H         1 <0>         0.0608
     24 H10         0.9279   -2.1597   -3.4071 H         1 <0>         0.0606
     25 H11         2.4777   -2.1435   -2.5317 H         1 <0>         0.0672
     26 H12         2.0030   -4.4117   -1.6494 H         1 <0>         0.0727
     27 H13         0.4533   -4.4279   -2.5247 H         1 <0>         0.0715
     28 H14         0.3747   -4.7706   -4.8895 H         1 <0>         0.1319
     29 H15         1.5213   -5.5645   -6.9162 H         1 <0>         0.1319
     30 H16         5.2879   -5.1959   -4.9322 H         1 <0>         0.1345
     31 H17         4.4243   -5.0602   -2.0682 H         1 <0>         0.3909
     32 H18         4.3624   -5.1635   -7.7825 H         1 <0>         0.3932
@<TRIPOS>BOND
     1    1    2 1
     2    1   15 1
     3    1   16 1
     4    1   17 1
     5    2    3 1
     6    2   18 1
     7    2   19 1
     8    3    4 1
     9    3   20 1
    10    3   21 1
    11    4    5 1
    12    4   22 1
    13    4   23 1
    14    5    6 1
    15    5   24 1
    16    5   25 1
    17    6    7 1
    18    6   26 1
    19    6   27 1
    20    7   12 ar
    21    7    8 ar
    22    8    9 ar
    23    8   28 1
    24    9   10 ar
    25    9   29 1
    26   10   11 ar
    27   10   14 1
    28   11   12 ar
    29   11   30 1
    30   12   13 1
    31   13   31 1
    32   14   32 1
@<TRIPOS>MOLECULE
ZINC40845149
   14    13     0     0     0
SMALL
USER_CHARGES

@<TRIPOS>ATOM
      1 C1         -0.0184    1.5028    0.0103 C.3       1 <0>        -0.1816
      2 C2          0.0021   -0.0041    0.0020 C.2       1 <0>         0.1175
      3 N1         -1.0977   -0.6591    0.0090 N.2       1 <0>        -0.2958
      4 N2         -2.3203    0.0248    0.0243 N.pl3     1 <0>        -0.5451
      5 C3         -3.4782   -0.6649    0.0317 C.2       1 <0>         0.6038
      6 S1         -4.9723    0.1708    0.0505 S.2       1 <0>        -0.6235
      7 N3         -3.4600   -2.0126    0.0243 N.pl3     1 <0>        -0.7840
      8 H1          1.0042    1.8801    0.0026 H         1 <0>         0.0935
      9 H2         -0.5455    1.8639   -0.8728 H         1 <0>         0.0832
     10 H3         -0.5286    1.8543    0.9071 H         1 <0>         0.0832
     11 H4          0.9446   -0.5313   -0.0098 H         1 <0>         0.1889
     12 H5         -2.3335    0.9947    0.0297 H         1 <0>         0.4188
     13 H6         -2.6135   -2.4861    0.0137 H         1 <0>         0.4089
     14 H7         -4.2933   -2.5089    0.0296 H         1 <0>         0.4322
@<TRIPOS>BOND
     1    1    2 1
     2    1    8 1
     3    1    9 1
     4    1   10 1
     5    2    3 2
     6    2   11 1
     7    3    4 1
     8    4    5 1
     9    4   12 1
    10    5    6 2
    11    5    7 1
    12    7   13 1
    13    7   14 1
@<TRIPOS>MOLECULE
ZINC03630922
   26    26     0     0     0
SMALL
USER_CHARGES
4-butylbenzene-1,3-diol
@<TRIPOS>ATOM
      1 C1          6.2152    7.0045   -0.2523 C.3       1 <0>        -0.1542
      2 C2          6.3552    5.4853   -0.1376 C.3       1 <0>        -0.1253
      3 C3          4.9660    4.8441   -0.1321 C.3       1 <0>        -0.1123
      4 C4          5.1060    3.3248   -0.0174 C.3       1 <0>        -0.0795
      5 C5          3.7377    2.6932   -0.0120 C.ar      1 <0>        -0.1141
      6 C6          3.1194    2.3956    1.1875 C.ar      1 <0>        -0.0868
      7 C7          1.8624    1.8223    1.1958 C.ar      1 <0>        -0.1503
      8 C8          1.2228    1.5324   -0.0014 C.ar      1 <0>         0.1164
      9 C9          1.8411    1.8296   -1.2059 C.ar      1 <0>        -0.1712
     10 C10         3.1000    2.4107   -1.2115 C.ar      1 <0>         0.1236
     11 O1          3.7089    2.7028   -2.3907 O.3       1 <0>        -0.4932
     12 O2         -0.0110    0.9628    0.0073 O.3       1 <0>        -0.4981
     13 H1          5.6441    7.3819    0.5960 H         1 <0>         0.0536
     14 H2          7.2048    7.4613   -0.2562 H         1 <0>         0.0548
     15 H3          5.6968    7.2527   -1.1785 H         1 <0>         0.0535
     16 H4          6.8735    5.2371    0.7886 H         1 <0>         0.0623
     17 H5          6.9262    5.1079   -0.9859 H         1 <0>         0.0630
     18 H6          4.4476    5.0922   -1.0583 H         1 <0>         0.0588
     19 H7          4.3950    5.2214    0.7162 H         1 <0>         0.0630
     20 H8          5.6243    3.0766    0.9088 H         1 <0>         0.0732
     21 H9          5.6770    2.9474   -0.8657 H         1 <0>         0.0798
     22 H10         3.6175    2.6160    2.1201 H         1 <0>         0.1320
     23 H11         1.3792    1.5950    2.1345 H         1 <0>         0.1320
     24 H12         1.3429    1.6092   -2.1384 H         1 <0>         0.1346
     25 H13         3.5150    3.5894   -2.7245 H         1 <0>         0.3911
     26 H14         0.0021   -0.0041    0.0020 H         1 <0>         0.3934
@<TRIPOS>BOND
     1    1    2 1
     2    1   13 1
     3    1   14 1
     4    1   15 1
     5    2    3 1
     6    2   16 1
     7    2   17 1
     8    3    4 1
     9    3   18 1
    10    3   19 1
    11    4    5 1
    12    4   20 1
    13    4   21 1
    14    5   10 ar
    15    5    6 ar
    16    6    7 ar
    17    6   22 1
    18    7    8 ar
    19    7   23 1
    20    8    9 ar
    21    8   12 1
    22    9   10 ar
    23    9   24 1
    24   10   11 1
    25   11   25 1
    26   12   26 1
@<TRIPOS>MOLECULE
ZINC05082344
   17    16     0     0     0
SMALL
USER_CHARGES
(propylideneamino)thiourea
@<TRIPOS>ATOM
      1 C1         -0.0756    1.1708   -0.0937 C.3       1 <0>        -0.1446
      2 C2         -0.7157    1.5431    1.2452 C.3       1 <0>        -0.1444
      3 C3         -2.1403    1.0526    1.2746 C.2       1 <0>         0.1208
      4 N1         -2.5421    0.3109    2.2375 N.2       1 <0>        -0.2926
      5 N2         -1.7003    0.0639    3.3298 N.pl3     1 <0>        -0.5464
      6 C4         -2.0799   -0.8013    4.2910 C.2       1 <0>         0.6034
      7 S1         -1.0512   -1.1031    5.6258 S.2       1 <0>        -0.6240
      8 N3         -3.2692   -1.4288    4.2014 N.pl3     1 <0>        -0.7842
      9 H1         -0.0894    0.0876   -0.2142 H         1 <0>         0.0584
     10 H2          0.9548    1.5257   -0.1149 H         1 <0>         0.0685
     11 H3         -0.6362    1.6340   -0.9057 H         1 <0>         0.0675
     12 H4         -0.1551    1.0800    2.0572 H         1 <0>         0.0699
     13 H5         -0.7019    2.6264    1.3658 H         1 <0>         0.0995
     14 H6         -2.8223    1.3267    0.4833 H         1 <0>         0.1888
     15 H7         -0.8443    0.5156    3.3943 H         1 <0>         0.4187
     16 H8         -3.8521   -1.2578    3.4451 H         1 <0>         0.4086
     17 H9         -3.5424   -2.0515    4.8931 H         1 <0>         0.4321
@<TRIPOS>BOND
     1    1    2 1
     2    1    9 1
     3    1   10 1
     4    1   11 1
     5    2    3 1
     6    2   12 1
     7    2   13 1
     8    3    4 2
     9    3   14 1
    10    4    5 1
    11    5    6 1
    12    5   15 1
    13    6    7 2
    14    6    8 1
    15    8   16 1
    16    8   17 1
@<TRIPOS>MOLECULE
ZINC06675630
   24    25     0     0     0
SMALL
USER_CHARGES

@<TRIPOS>ATOM
      1 C1         -0.0187    1.5258    0.0104 C.3       1 <0>        -0.1261
      2 C2          1.4167    2.0553   -0.0004 C.3       1 <0>        -0.1186
      3 C3          2.1328    1.5619   -1.2592 C.3       1 <0>        -0.1116
      4 C4          2.1536    0.0321   -1.2676 C.3       1 <0>        -0.0020
      5 C5          0.7182   -0.4975   -1.2568 C.3       1 <0>        -0.1154
      6 C6          0.0021   -0.0041    0.0020 C.3       1 <0>        -0.1174
      7 C7          2.8590   -0.4539   -2.5075 C.2       1 <0>         0.2585
      8 N1          2.9702    0.2073   -3.6120 N.2       1 <0>        -0.2679
      9 N2          3.6922   -0.5843   -4.5173 N.pl3     1 <0>        -0.4813
     10 C8          3.9902   -1.7347   -3.8759 C.2       1 <0>         0.4213
     11 O1          3.4779   -1.6441   -2.6366 O.3       1 <0>        -0.2095
     12 S1          4.8630   -3.0595   -4.5196 S.2       1 <0>        -0.4482
     13 H1         -0.5289    1.8773    0.9072 H         1 <0>         0.0692
     14 H2         -0.5459    1.8868   -0.8726 H         1 <0>         0.0660
     15 H3          1.4019    3.1452    0.0056 H         1 <0>         0.0737
     16 H4          1.9439    1.6943    0.8826 H         1 <0>         0.0687
     17 H5          1.6057    1.9230   -2.1423 H         1 <0>         0.0806
     18 H6          3.1554    1.9392   -1.2670 H         1 <0>         0.0733
     19 H7          2.6808   -0.3290   -0.3846 H         1 <0>         0.1182
     20 H8          0.1910   -0.1364   -2.1398 H         1 <0>         0.0747
     21 H9          0.7330   -1.5874   -1.2628 H         1 <0>         0.0757
     22 H10         0.5293   -0.3651    0.8851 H         1 <0>         0.0700
     23 H11        -1.0205   -0.3814    0.0098 H         1 <0>         0.0738
     24 H12         3.9310   -0.3507   -5.4279 H         1 <0>         0.4743
@<TRIPOS>BOND
     1    1    6 1
     2    1    2 1
     3    1   13 1
     4    1   14 1
     5    2    3 1
     6    2   15 1
     7    2   16 1
     8    3    4 1
     9    3   17 1
    10    3   18 1
    11    4    5 1
    12    4    7 1
    13    4   19 1
    14    5    6 1
    15    5   20 1
    16    5   21 1
    17    6   22 1
    18    6   23 1
    19    7   11 1
    20    7    8 2
    21    8    9 1
    22    9   10 1
    23    9   24 1
    24   10   11 1
    25   10   12 2
@<TRIPOS>MOLECULE
ZINC06675630
   23    24     0     0     0
SMALL
USER_CHARGES

@<TRIPOS>ATOM
      1 C1         -0.0187    1.5258    0.0104 C.3       1 <0>        -0.1209
      2 C2          1.4167    2.0553   -0.0004 C.3       1 <0>        -0.1163
      3 C3          2.1328    1.5619   -1.2592 C.3       1 <0>        -0.1099
      4 C4          2.1536    0.0321   -1.2676 C.3       1 <0>         0.0273
      5 C5          0.7182   -0.4975   -1.2568 C.3       1 <0>        -0.1098
      6 C6          0.0021   -0.0041    0.0020 C.3       1 <0>        -0.1163
      7 C7          2.8590   -0.4539   -2.5075 C.2       1 <0>         0.0908
      8 N1          2.5097   -0.2086   -3.7363 N.2       1 <0>        -0.2829
      9 N2          3.3356   -0.7793   -4.5409 N.2       1 <0>        -0.3493
     10 C8          4.2489   -1.4144   -3.8465 C.2       1 <0>         0.3342
     11 O1          3.9693   -1.2167   -2.5444 O.3       1 <0>        -0.2446
     12 S1          5.5955   -2.3466   -4.4965 S.3       1 <0>        -0.7447
     13 H1         -0.5289    1.8773    0.9072 H         1 <0>         0.0598
     14 H2         -0.5459    1.8868   -0.8726 H         1 <0>         0.0642
     15 H3          1.4019    3.1452    0.0056 H         1 <0>         0.0641
     16 H4          1.9439    1.6943    0.8826 H         1 <0>         0.0623
     17 H5          1.6057    1.9230   -2.1423 H         1 <0>         0.0753
     18 H6          3.1554    1.9392   -1.2670 H         1 <0>         0.0638
     19 H7          2.6808   -0.3290   -0.3846 H         1 <0>         0.0875
     20 H8          0.1910   -0.1364   -2.1398 H         1 <0>         0.0752
     21 H9          0.7330   -1.5874   -1.2628 H         1 <0>         0.0639
     22 H10         0.5293   -0.3651    0.8851 H         1 <0>         0.0623
     23 H11        -1.0205   -0.3814    0.0098 H         1 <0>         0.0641
@<TRIPOS>BOND
     1    1    6 1
     2    1    2 1
     3    1   13 1
     4    1   14 1
     5    2    3 1
     6    2   15 1
     7    2   16 1
     8    3    4 1
     9    3   17 1
    10    3   18 1
    11    4    5 1
    12    4    7 1
    13    4   19 1
    14    5    6 1
    15    5   20 1
    16    5   21 1
    17    6   22 1
    18    6   23 1
    19    7   11 1
    20    7    8 2
    21    8    9 1
    22    9   10 2
    23   10   11 1
    24   10   12 1
@<TRIPOS>MOLECULE
ZINC08579328
   20    19     0     0     0
SMALL
USER_CHARGES
(1-methylpropylideneamino)thiourea
@<TRIPOS>ATOM
      1 C1         -2.5567    2.8447    0.1759 C.3       1 <0>        -0.1518
      2 C2         -2.2093    1.7883    1.2268 C.3       1 <0>        -0.1384
      3 C3         -0.7180    1.5721    1.2477 C.2       1 <0>         0.1441
      4 N1          0.0304    2.3406    1.9463 N.2       1 <0>        -0.2974
      5 N2         -0.5208    3.4509    2.5991 N.pl3     1 <0>        -0.5419
      6 C4          0.2811    4.3164    3.2505 C.2       1 <0>         0.6042
      7 S1         -0.3925    5.6731    4.0482 S.2       1 <0>        -0.6262
      8 N3          1.6133    4.1137    3.2739 N.pl3     1 <0>        -0.7845
      9 C5         -0.1078    0.4512    0.4463 C.3       1 <0>        -0.1026
     10 H1         -2.0572    3.7814    0.4234 H         1 <0>         0.0552
     11 H2         -2.2251    2.5043   -0.8050 H         1 <0>         0.0676
     12 H3         -3.6353    3.0011    0.1608 H         1 <0>         0.0736
     13 H4         -2.7088    0.8517    0.9793 H         1 <0>         0.0994
     14 H5         -2.5409    2.1288    2.2077 H         1 <0>         0.0771
     15 H6         -1.4797    3.5967    2.5823 H         1 <0>         0.4178
     16 H7          1.9950    3.3450    2.8219 H         1 <0>         0.4086
     17 H8          2.1905    4.7366    3.7427 H         1 <0>         0.4318
     18 H9         -0.0635   -0.4502    1.0575 H         1 <0>         0.0905
     19 H10         0.8996    0.7313    0.1384 H         1 <0>         0.0831
     20 H11        -0.7181    0.2618   -0.4367 H         1 <0>         0.0900
@<TRIPOS>BOND
     1    1    2 1
     2    1   10 1
     3    1   11 1
     4    1   12 1
     5    2    3 1
     6    2   13 1
     7    2   14 1
     8    3    4 2
     9    3    9 1
    10    4    5 1
    11    5    6 1
    12    5   15 1
    13    6    7 2
    14    6    8 1
    15    8   16 1
    16    8   17 1
    17    9   18 1
    18    9   19 1
    19    9   20 1
@<TRIPOS>MOLECULE
ZINC40413177
   21    21     0     0     0
SMALL
USER_CHARGES

@<TRIPOS>ATOM
      1 C1         -0.0184    1.5028    0.0103 C.3       1 <0>        -0.0656
      2 C2          0.0021   -0.0041    0.0020 C.2       1 <0>         0.0284
      3 C3          0.0083   -0.7906   -1.0980 C.2       1 <0>        -0.2207
      4 C4          0.0287   -2.1269   -0.6585 C.2       1 <0>        -0.2207
      5 C5          0.0343   -2.1071    0.6936 C.2       1 <0>         0.0285
      6 N1          0.0234   -0.8079    1.1007 N.pl3     1 <0>        -0.2203
      7 N2          0.0297   -0.3702    2.4316 N.2       1 <0>        -0.4422
      8 C6         -1.0970   -0.1821    3.0616 C.2       1 <0>         0.5384
      9 S1         -2.6267   -0.4786    2.2389 S.3       1 <0>        -0.8996
     10 N3         -1.0909    0.2495    4.3740 N.pl3     1 <0>        -0.8388
     11 C7          0.0545   -3.3150    1.5946 C.3       1 <0>        -0.0656
     12 H1          1.0042    1.8801    0.0026 H         1 <0>         0.0533
     13 H2         -0.5455    1.8639   -0.8728 H         1 <0>         0.0643
     14 H3         -0.5286    1.8543    0.9071 H         1 <0>         0.0554
     15 H4         -0.0011   -0.4549   -2.1244 H         1 <0>         0.1207
     16 H5          0.0379   -3.0063   -1.2854 H         1 <0>         0.1207
     17 H6         -0.2488    0.4128    4.8269 H         1 <0>         0.3840
     18 H7         -1.9286    0.3894    4.8425 H         1 <0>         0.4069
     19 H8          1.0869   -3.5920    1.8077 H         1 <0>         0.0532
     20 H9         -0.4589   -3.0812    2.5272 H         1 <0>         0.0555
     21 H10        -0.4499   -4.1453    1.1004 H         1 <0>         0.0643
@<TRIPOS>BOND
     1    1    2 1
     2    1   12 1
     3    1   13 1
     4    1   14 1
     5    2    6 1
     6    2    3 2
     7    3    4 1
     8    3   15 1
     9    4    5 2
    10    4   16 1
    11    5    6 1
    12    5   11 1
    13    6    7 1
    14    7    8 2
    15    8    9 1
    16    8   10 1
    17   10   17 1
    18   10   18 1
    19   11   19 1
    20   11   20 1
    21   11   21 1
@<TRIPOS>MOLECULE
ZINC40413177
   22    22     0     0     0
SMALL
USER_CHARGES

@<TRIPOS>ATOM
      1 C1          2.6094    0.2941    0.5635 C.3       1 <0>        -0.0833
      2 C2          1.3516   -0.4375    0.1713 C.2       1 <0>         0.0304
      3 C3          1.0667   -0.9181   -1.0560 C.2       1 <0>        -0.1760
      4 C4         -0.2018   -1.5272   -0.9864 C.2       1 <0>        -0.1798
      5 C5         -0.6438   -1.3955    0.2808 C.2       1 <0>         0.0394
      6 N1          0.3080   -0.7326    0.9975 N.pl3     1 <0>        -0.2313
      7 N2          0.2258   -0.4058    2.3574 N.pl3     1 <0>        -0.5037
      8 C6          0.7017   -1.2744    3.2987 C.cat     1 <0>         0.5378
      9 S1          1.2429   -2.7764    2.8441 S.3       1 <0>        -0.5233
     10 N3          0.7322   -0.9066    4.6141 N.pl3     1 <0>        -0.8044
     11 C7         -1.9599   -1.8998    0.8144 C.3       1 <0>        -0.0833
     12 H1          3.3573   -0.4239    0.9002 H         1 <0>         0.0747
     13 H2          2.9937    0.8428   -0.2963 H         1 <0>         0.0840
     14 H3          2.3870    0.9924    1.3703 H         1 <0>         0.0546
     15 H4          1.6954   -0.8489   -1.9314 H         1 <0>         0.1474
     16 H5         -0.7243   -2.0106   -1.7986 H         1 <0>         0.1475
     17 H6          0.4160   -0.0289    4.8798 H         1 <0>         0.3970
     18 H7          1.0701   -1.5232    5.2824 H         1 <0>         0.4379
     19 H8         -1.8464   -2.9323    1.1448 H         1 <0>         0.0779
     20 H9         -2.2718   -1.2812    1.6559 H         1 <0>         0.0541
     21 H10        -2.7134   -1.8506    0.0283 H         1 <0>         0.0826
     22 H11        -0.1690    0.4370    2.6306 H         1 <0>         0.4196
@<TRIPOS>BOND
     1    1    2 1
     2    1   12 1
     3    1   13 1
     4    1   14 1
     5    2    6 1
     6    2    3 2
     7    3    4 1
     8    3   15 1
     9    4    5 2
    10    4   16 1
    11    5    6 1
    12    5   11 1
    13    6    7 1
    14    7    8 1
    15    7   22 1
    16    8    9 1
    17    8   10 2
    18   10   17 1
    19   10   18 1
    20   11   19 1
    21   11   20 1
    22   11   21 1
@<TRIPOS>MOLECULE
ZINC00898642
   47    48     0     0     0
SMALL
USER_CHARGES
4-[3-[4-hydroxy-3-(3-methylbut-2-enyl)phenyl]propyl]benzene-1,3-diol
@<TRIPOS>ATOM
      1 C1         -2.7143   -3.0289   -4.8555 C.3       1 <0>        -0.1223
      2 C2         -2.2268   -2.2079   -6.0215 C.2       1 <0>        -0.1301
      3 C3         -1.1517   -1.4696   -5.8987 C.2       1 <0>        -0.1585
      4 C4         -0.4828   -1.3300   -4.5555 C.3       1 <0>        -0.0526
      5 C5         -0.3320    0.1311   -4.2188 C.ar      1 <0>        -0.0949
      6 C6         -1.2263    0.7383   -3.3583 C.ar      1 <0>        -0.0986
      7 C7         -1.0882    2.0785   -3.0487 C.ar      1 <0>        -0.0856
      8 C8         -0.0585    2.8162   -3.6036 C.ar      1 <0>        -0.1048
      9 C9          0.8415    2.2125   -4.4599 C.ar      1 <0>        -0.1398
     10 C10         0.7051    0.8675   -4.7722 C.ar      1 <0>         0.1008
     11 O1          1.5863    0.2725   -5.6186 O.3       1 <0>        -0.4954
     12 C11        -2.0651    2.7382   -2.1098 C.3       1 <0>        -0.0792
     13 C12        -1.5534    2.6162   -0.6731 C.3       1 <0>        -0.1053
     14 C13        -2.5452    3.2860    0.2801 C.3       1 <0>        -0.0733
     15 C14        -2.0412    3.1658    1.6953 C.ar      1 <0>        -0.1151
     16 C15        -2.4772    2.1286    2.4977 C.ar      1 <0>        -0.0860
     17 C16        -2.0170    2.0157    3.7955 C.ar      1 <0>        -0.1506
     18 C17        -1.1149    2.9440    4.2963 C.ar      1 <0>         0.1172
     19 C18        -0.6761    3.9853    3.4934 C.ar      1 <0>        -0.1716
     20 C19        -1.1355    4.0934    2.1896 C.ar      1 <0>         0.1250
     21 O2         -0.7029    5.1100    1.3983 O.3       1 <0>        -0.4923
     22 O3         -0.6619    2.8320    5.5726 O.3       1 <0>        -0.4983
     23 C20        -2.9761   -2.2362   -7.3286 C.3       1 <0>        -0.1178
     24 H1         -3.3393   -2.4102   -4.2116 H         1 <0>         0.0661
     25 H2         -3.2964   -3.8735   -5.2241 H         1 <0>         0.0629
     26 H3         -1.8597   -3.3967   -4.2876 H         1 <0>         0.0667
     27 H4         -0.7446   -0.9609   -6.7601 H         1 <0>         0.1051
     28 H5          0.5008   -1.7986   -4.5889 H         1 <0>         0.0847
     29 H6         -1.0917   -1.8173   -3.7940 H         1 <0>         0.0805
     30 H7         -2.0342    0.1655   -2.9274 H         1 <0>         0.1234
     31 H8          0.0447    3.8641   -3.3636 H         1 <0>         0.1255
     32 H9          1.6482    2.7880   -4.8895 H         1 <0>         0.1276
     33 H10         1.3256    0.3114   -6.5490 H         1 <0>         0.3869
     34 H11        -3.0356    2.2490   -2.1926 H         1 <0>         0.0722
     35 H12        -2.1657    3.7916   -2.3714 H         1 <0>         0.0737
     36 H13        -1.4528    1.5629   -0.4114 H         1 <0>         0.0632
     37 H14        -0.5829    3.1055   -0.5903 H         1 <0>         0.0701
     38 H15        -2.6458    4.3393    0.0185 H         1 <0>         0.0740
     39 H16        -3.5157    2.7967    0.1973 H         1 <0>         0.0728
     40 H17        -3.1786    1.4048    2.1096 H         1 <0>         0.1319
     41 H18        -2.3592    1.2043    4.4206 H         1 <0>         0.1318
     42 H19         0.0261    4.7084    3.8812 H         1 <0>         0.1345
     43 H20        -1.2468    5.9078    1.4503 H         1 <0>         0.3908
     44 H21         0.1405    2.2994    5.6598 H         1 <0>         0.3935
     45 H22        -2.4779   -1.5854   -8.0472 H         1 <0>         0.0596
     46 H23        -2.9957   -3.2556   -7.7142 H         1 <0>         0.0645
     47 H24        -3.9968   -1.8882   -7.1700 H         1 <0>         0.0668
@<TRIPOS>BOND
     1    1    2 1
     2    1   24 1
     3    1   25 1
     4    1   26 1
     5    2    3 2
     6    2   23 1
     7    3    4 1
     8    3   27 1
     9    4    5 1
    10    4   28 1
    11    4   29 1
    12    5   10 ar
    13    5    6 ar
    14    6    7 ar
    15    6   30 1
    16    7    8 ar
    17    7   12 1
    18    8    9 ar
    19    8   31 1
    20    9   10 ar
    21    9   32 1
    22   10   11 1
    23   11   33 1
    24   12   13 1
    25   12   34 1
    26   12   35 1
    27   13   14 1
    28   13   36 1
    29   13   37 1
    30   14   15 1
    31   14   38 1
    32   14   39 1
    33   15   20 ar
    34   15   16 ar
    35   16   17 ar
    36   16   40 1
    37   17   18 ar
    38   17   41 1
    39   18   19 ar
    40   18   22 1
    41   19   20 ar
    42   19   42 1
    43   20   21 1
    44   21   43 1
    45   22   44 1
    46   23   45 1
    47   23   46 1
    48   23   47 1
@<TRIPOS>MOLECULE
ZINC13130213
   25    27     0     0     0
SMALL
USER_CHARGES

@<TRIPOS>ATOM
      1 C1         -0.0164    1.3554    0.0095 C.ar      1 <0>        -0.1113
      2 C2          1.1548    2.1004    0.0023 C.ar      1 <0>        -0.0908
      3 C3          2.3732    1.4473   -0.0128 C.ar      1 <0>        -0.0685
      4 C4          2.4031    0.0743   -0.0204 C.ar      1 <0>        -0.1403
      5 C5          1.2272   -0.7128   -0.0134 C.ar      1 <0>         0.0772
      6 C6          0.0021   -0.0041    0.0020 C.ar      1 <0>        -0.0589
      7 N1          1.4171   -2.0468   -0.0227 N.2       1 <0>        -0.4983
      8 C7          2.6148   -2.5904   -0.0374 C.2       1 <0>         0.2046
      9 S1          3.6831   -1.1574   -0.0397 S.3       1 <0>        -0.0045
     10 C8          2.9833   -4.0215   -0.0494 C.ar      1 <0>        -0.0371
     11 C9          1.9879   -5.0005   -0.0515 C.ar      1 <0>        -0.0479
     12 C10         2.3355   -6.3340   -0.0627 C.ar      1 <0>        -0.1475
     13 C11         3.6742   -6.7046   -0.0714 C.ar      1 <0>         0.1325
     14 C12         4.6674   -5.7335   -0.0689 C.ar      1 <0>        -0.1447
     15 C13         4.3277   -4.3979   -0.0645 C.ar      1 <0>        -0.0678
     16 O1          4.0129   -8.0198   -0.0820 O.3       1 <0>        -0.4969
     17 H1         -0.9665    1.8687    0.0259 H         1 <0>         0.1363
     18 H2          1.1146    3.1797    0.0081 H         1 <0>         0.1411
     19 H3          3.2937    2.0121   -0.0189 H         1 <0>         0.1358
     20 H4         -0.9298   -0.5500    0.0079 H         1 <0>         0.1343
     21 H5          0.9469   -4.7132   -0.0440 H         1 <0>         0.1420
     22 H6          1.5661   -7.0919   -0.0643 H         1 <0>         0.1397
     23 H7          5.7072   -6.0255   -0.0754 H         1 <0>         0.1402
     24 H8          5.1005   -3.6435   -0.0678 H         1 <0>         0.1338
     25 H9          4.1068   -8.3946   -0.9684 H         1 <0>         0.3972
@<TRIPOS>BOND
     1    1    6 ar
     2    1    2 ar
     3    1   17 1
     4    2    3 ar
     5    2   18 1
     6    3    4 ar
     7    3   19 1
     8    4    9 1
     9    4    5 ar
    10    5    6 ar
    11    5    7 1
    12    6   20 1
    13    7    8 2
    14    8    9 1
    15    8   10 1
    16   10   15 ar
    17   10   11 ar
    18   11   12 ar
    19   11   21 1
    20   12   13 ar
    21   12   22 1
    22   13   14 ar
    23   13   16 1
    24   14   15 ar
    25   14   23 1
    26   15   24 1
    27   16   25 1
@<TRIPOS>MOLECULE
ZINC03872809
   23    23     0     0     0
SMALL
USER_CHARGES

@<TRIPOS>ATOM
      1 C1         -0.0187    1.5258    0.0104 C.3       1 <0>        -0.1393
      2 C2          0.0021   -0.0041    0.0020 C.3       1 <0>        -0.0742
      3 C3          0.7182   -0.4975   -1.2568 C.3       1 <0>        -0.1392
      4 C4          0.7309   -0.5033    1.2229 C.2       1 <0>         0.0603
      5 C5          2.0555   -0.0902    1.3445 C.2       1 <0>        -0.3055
      6 C6          2.9674   -0.3788    2.3383 C.2       1 <0>         0.0314
      7 C7          2.8003   -1.1588    3.4791 C.2       1 <0>        -0.3378
      8 C8          1.6735   -1.8396    3.8998 C.2       1 <0>         0.2592
      9 C9          0.4053   -1.9114    3.2694 C.2       1 <0>         0.3623
     10 O1         -0.4399   -2.5850    3.8430 O.2       1 <0>        -0.5281
     11 C10        -0.0043   -1.3018    2.0703 C.2       1 <0>        -0.3318
     12 O2          1.7963   -2.5258    5.0616 O.3       1 <0>        -0.6301
     13 H1          1.0039    1.9031    0.0027 H         1 <0>         0.0583
     14 H2         -0.5459    1.8868   -0.8726 H         1 <0>         0.0491
     15 H3         -0.5289    1.8773    0.9072 H         1 <0>         0.0543
     16 H4         -1.0205   -0.3814    0.0098 H         1 <0>         0.0715
     17 H5          1.7408   -0.1202   -1.2645 H         1 <0>         0.0583
     18 H6          0.7330   -1.5874   -1.2628 H         1 <0>         0.0542
     19 H7          0.1910   -0.1364   -2.1398 H         1 <0>         0.0491
     20 H8          2.4193    0.5442    0.5497 H         1 <0>         0.0921
     21 H9          3.9461    0.0607    2.2141 H         1 <0>         0.0890
     22 H10         3.6655   -1.2434    4.1199 H         1 <0>         0.0951
     23 H11        -1.0257   -1.4880    1.7729 H         1 <0>         0.1020
@<TRIPOS>BOND
     1    1    2 1
     2    1   13 1
     3    1   14 1
     4    1   15 1
     5    2    3 1
     6    2    4 1
     7    2   16 1
     8    3   17 1
     9    3   18 1
    10    3   19 1
    11    4   11 2
    12    4    5 1
    13    5    6 2
    14    5   20 1
    15    6    7 1
    16    6   21 1
    17    7    8 2
    18    7   22 1
    19    8    9 1
    20    8   12 1
    21    9   10 2
    22    9   11 1
    23   11   23 1
@<TRIPOS>MOLECULE
ZINC03872809
   24    24     0     0     0
SMALL
USER_CHARGES

@<TRIPOS>ATOM
      1 C1         -0.0187    1.5258    0.0104 C.3       1 <0>        -0.1478
      2 C2          0.0021   -0.0041    0.0020 C.3       1 <0>        -0.0798
      3 C3          0.7421   -0.5109    1.2415 C.3       1 <0>        -0.1478
      4 C4         -1.4117   -0.5257    0.0127 C.2       1 <0>         0.0211
      5 C5         -2.1853   -0.1464    1.1070 C.2       1 <0>        -0.1459
      6 C6         -3.4973   -0.4613    1.3939 C.2       1 <0>        -0.0401
      7 C7         -4.3896   -1.2408    0.6633 C.2       1 <0>        -0.2021
      8 C8         -4.1803   -1.8946   -0.5362 C.2       1 <0>         0.1118
      9 C9         -2.9994   -1.9323   -1.3205 C.2       1 <0>         0.3889
     10 O1         -3.0633   -2.5865   -2.3526 O.2       1 <0>        -0.4826
     11 C10        -1.7658   -1.3084   -1.0635 C.2       1 <0>        -0.2108
     12 O2         -5.2371   -2.5878   -1.0245 O.3       1 <0>        -0.4496
     13 H1          1.0039    1.9031    0.0027 H         1 <0>         0.0650
     14 H2         -0.5459    1.8868   -0.8726 H         1 <0>         0.0595
     15 H3         -0.5289    1.8773    0.9072 H         1 <0>         0.0603
     16 H4          0.5123   -0.3556   -0.8948 H         1 <0>         0.0870
     17 H5          0.2319   -0.1594    2.1383 H         1 <0>         0.0603
     18 H6          0.7568   -1.6008    1.2356 H         1 <0>         0.0594
     19 H7          1.7647   -0.1336    1.2338 H         1 <0>         0.0650
     20 H8         -1.6887    0.4814    1.8320 H         1 <0>         0.1273
     21 H9         -3.8856   -0.0460    2.3122 H         1 <0>         0.1278
     22 H10        -5.3756   -1.3493    1.0903 H         1 <0>         0.1305
     23 H11        -0.9949   -1.4679   -1.8029 H         1 <0>         0.1410
     24 H12        -6.0271   -2.5438   -0.4685 H         1 <0>         0.4015
@<TRIPOS>BOND
     1    1    2 1
     2    1   13 1
     3    1   14 1
     4    1   15 1
     5    2    3 1
     6    2    4 1
     7    2   16 1
     8    3   17 1
     9    3   18 1
    10    3   19 1
    11    4   11 2
    12    4    5 1
    13    5    6 2
    14    5   20 1
    15    6    7 1
    16    6   21 1
    17    7    8 2
    18    7   22 1
    19    8    9 1
    20    8   12 1
    21    9   10 2
    22    9   11 1
    23   11   23 1
    24   12   24 1
@<TRIPOS>MOLECULE
ZINC03872809
   23    23     0     0     0
SMALL
USER_CHARGES

@<TRIPOS>ATOM
      1 C1         -0.0187    1.5258    0.0104 C.3       1 <0>        -0.1413
      2 C2          0.0021   -0.0041    0.0020 C.3       1 <0>        -0.0713
      3 C3          0.7421   -0.5109    1.2415 C.3       1 <0>        -0.1412
      4 C4         -1.4117   -0.5257    0.0127 C.2       1 <0>         0.0681
      5 C5         -1.7629   -1.3139   -1.0634 C.2       1 <0>        -0.3105
      6 C6         -2.9797   -1.9343   -1.3358 C.2       1 <0>         0.0241
      7 C7         -4.1411   -1.9164   -0.5962 C.2       1 <0>        -0.3397
      8 C8         -4.3885   -1.2639    0.6245 C.2       1 <0>         0.3605
      9 O1         -5.5131   -1.4016    1.0865 O.2       1 <0>        -0.5288
     10 C9         -3.4981   -0.4664    1.3876 C.2       1 <0>         0.2595
     11 C10        -2.1817   -0.1500    1.1100 C.2       1 <0>        -0.3254
     12 O2         -4.0002    0.0468    2.5365 O.3       1 <0>        -0.6296
     13 H1          1.0039    1.9031    0.0027 H         1 <0>         0.0486
     14 H2         -0.5459    1.8868   -0.8726 H         1 <0>         0.0533
     15 H3         -0.5289    1.8773    0.9072 H         1 <0>         0.0611
     16 H4          0.5123   -0.3556   -0.8948 H         1 <0>         0.0698
     17 H5          0.2319   -0.1594    2.1383 H         1 <0>         0.0611
     18 H6          0.7568   -1.6008    1.2356 H         1 <0>         0.0534
     19 H7          1.7647   -0.1336    1.2338 H         1 <0>         0.0486
     20 H8         -0.9861   -1.4718   -1.7970 H         1 <0>         0.0895
     21 H9         -3.0176   -2.5065   -2.2510 H         1 <0>         0.0899
     22 H10        -4.9689   -2.4755   -1.0069 H         1 <0>         0.1006
     23 H11        -1.6862    0.4748    1.8383 H         1 <0>         0.0998
@<TRIPOS>BOND
     1    1    2 1
     2    1   13 1
     3    1   14 1
     4    1   15 1
     5    2    3 1
     6    2    4 1
     7    2   16 1
     8    3   17 1
     9    3   18 1
    10    3   19 1
    11    4   11 1
    12    4    5 2
    13    5    6 1
    14    5   20 1
    15    6    7 2
    16    6   21 1
    17    7    8 1
    18    7   22 1
    19    8    9 2
    20    8   10 1
    21   10   11 2
    22   10   12 1
    23   11   23 1
