@<TRIPOS>MOLECULE
ZINC18279672
   52    54     0     0     0
SMALL
USER_CHARGES
(2S)-2-[[5-[methyl-[(2-methyl-4-oxo-3H-quinazolin-6-yl)methyl]amino]thiophene-2-carbonyl]amino]pentanedioic acid
@<TRIPOS>ATOM
      1 C1         10.3914    0.6209   -2.9939 C.3       1 <0>        -0.1098
      2 C2          9.9324    1.6032   -1.9474 C.2       1 <0>         0.3866
      3 N1         10.8080    2.5530   -1.5269 N.am      1 <0>        -0.6544
      4 H1         11.7018    2.5827   -1.9025 H         1 <0>         0.4157
      5 C3         10.4445    3.4586   -0.5889 C.2       1 <0>         0.5541
      6 O1         11.2187    4.3151   -0.2033 O.2       1 <0>        -0.5194
      7 C4          9.0777    3.3677   -0.0542 C.ar      1 <0>        -0.2041
      8 C5          8.6044    4.2514    0.9136 C.ar      1 <0>        -0.0276
      9 C6          7.3145    4.1207    1.3792 C.ar      1 <0>        -0.1286
     10 C7          6.4876    3.1147    0.8963 C.ar      1 <0>        -0.0507
     11 C8          6.9345    2.2343   -0.0630 C.ar      1 <0>        -0.0992
     12 C9          8.2378    2.3468   -0.5515 C.ar      1 <0>         0.1569
     13 N2          8.7202    1.4988   -1.4941 N.2       1 <0>        -0.5098
     14 C10         6.7981    5.0737    2.4262 C.3       1 <0>         0.1624
     15 N3          6.1861    6.2329    1.7721 N.pl3     1 <0>        -0.5801
     16 C11         6.9998    7.4090    1.4544 C.3       1 <0>         0.0999
     17 C12         4.8379    6.2170    1.4541 C.2       1 <0>         0.1191
     18 C13         4.0888    7.2017    0.8433 C.2       1 <0>        -0.2745
     19 C14         2.7578    6.9738    0.6212 C.2       1 <0>        -0.0340
     20 C15         2.2441    5.7510    1.0309 C.2       1 <0>        -0.2445
     21 S1          3.6794    4.9577    1.7328 S.3       1 <0>         0.1263
     22 C16         0.9186    5.2612    0.9245 C.2       1 <0>         0.6013
     23 O2          0.0538    5.9506    0.4145 O.2       1 <0>        -0.5485
     24 N4          0.6151    4.0324    1.3875 N.am      1 <0>        -0.6859
     25 C17        -0.7552    3.5260    1.2775 C.3       1 <0>         0.1006
     26 H2         -1.2033    3.8884    0.3523 H         1 <0>         0.0870
     27 C18        -0.7345    1.9962    1.2691 C.3       1 <0>        -0.0862
     28 C19        -0.0184    1.5028    0.0103 C.3       1 <0>        -0.1531
     29 C20         0.0021   -0.0041    0.0020 C.2       1 <0>         0.4619
     30 O3         -0.5042   -0.6201    0.9098 O.co2     1 <0>        -0.6390
     31 C21        -1.5658    4.0110    2.4518 C.2       1 <0>         0.4651
     32 O4         -1.0516    4.7080    3.2942 O.co2     1 <0>        -0.6388
     33 H3         10.8333   -0.2486   -2.5072 H         1 <0>         0.0972
     34 H4          9.5388    0.3061   -3.5957 H         1 <0>         0.1058
     35 H5         11.1341    1.0945   -3.6359 H         1 <0>         0.0837
     36 H6          9.2443    5.0328    1.2961 H         1 <0>         0.1350
     37 H7          5.4806    3.0240    1.2757 H         1 <0>         0.1416
     38 H8          6.2812    1.4583   -0.4338 H         1 <0>         0.1499
     39 H9          7.6246    5.4055    3.0547 H         1 <0>         0.0951
     40 H10         6.0536    4.5687    3.0417 H         1 <0>         0.0926
     41 H11         6.9800    8.1025    2.2951 H         1 <0>         0.0543
     42 H12         8.0272    7.0991    1.2632 H         1 <0>         0.0687
     43 H13         6.5977    7.9004    0.5685 H         1 <0>         0.0705
     44 H14         4.5442    8.1348    0.5463 H         1 <0>         0.1271
     45 H15         2.1325    7.7151    0.1461 H         1 <0>         0.1421
     46 H16         1.3039    3.4833    1.7937 H         1 <0>         0.3879
     47 H17        -1.7571    1.6189    1.2768 H         1 <0>         0.0849
     48 H18        -0.2073    1.6351    2.1522 H         1 <0>         0.0569
     49 H19         1.0042    1.8801    0.0026 H         1 <0>         0.0573
     50 H20        -0.5455    1.8639   -0.8728 H         1 <0>         0.0608
     51 O5          0.5827   -0.6618   -1.0138 O.co2     1 <0>        -0.7903
     52 O6         -2.8590    3.6685    2.5619 O.co2     1 <0>        -0.7696
@<TRIPOS>BOND
     1    1    2 1
     2    1   33 1
     3    1   34 1
     4    1   35 1
     5    2   13 2
     6    2    3 1
     7    3    4 1
     8    3    5 am
     9    5    6 2
    10    5    7 1
    11    7   12 ar
    12    7    8 ar
    13    8    9 ar
    14    8   36 1
    15    9   10 ar
    16    9   14 1
    17   10   11 ar
    18   10   37 1
    19   11   12 ar
    20   11   38 1
    21   12   13 1
    22   14   15 1
    23   14   39 1
    24   14   40 1
    25   15   16 1
    26   15   17 1
    27   16   41 1
    28   16   42 1
    29   16   43 1
    30   17   21 1
    31   17   18 2
    32   18   19 1
    33   18   44 1
    34   19   20 2
    35   19   45 1
    36   20   21 1
    37   20   22 1
    38   22   23 2
    39   22   24 am
    40   24   25 1
    41   24   46 1
    42   25   26 1
    43   25   27 1
    44   25   31 1
    45   27   28 1
    46   27   47 1
    47   27   48 1
    48   28   29 1
    49   28   49 1
    50   28   50 1
    51   29   30 2
    52   29   51 1
    53   31   32 2
    54   31   52 1
