@<TRIPOS>MOLECULE
ZINC27305632
   62    65     0     0     0
SMALL
USER_CHARGES
(2S)-2-[[2-fluoro-4-[(4-hydroxy-2,7-dimethyl-quinazolin-6-yl)methyl-prop-2-ynyl-amino]benzoyl]amino]-4-(2H-tetrazol-5-yl)butanoic acid
@<TRIPOS>ATOM
      1 C1         -6.1144    1.5750    0.6226 C.3       1 <0>        -0.1276
      2 C2         -5.3561    2.2053    1.7623 C.ar      1 <0>        -0.0194
      3 C3         -5.7871    2.0147    3.0418 C.ar      1 <0>        -0.1079
      4 C4         -5.1004    2.6239    4.1007 C.ar      1 <0>         0.1726
      5 C5         -3.9471    3.3992    3.8242 C.ar      1 <0>        -0.1942
      6 C6         -3.5148    3.5509    2.5016 C.ar      1 <0>         0.0067
      7 C7         -4.2167    2.9582    1.4936 C.ar      1 <0>        -0.1361
      8 C8         -3.7522    3.1208    0.0692 C.3       1 <0>         0.1653
      9 N1         -2.4839    3.8537    0.0497 N.pl3     1 <0>        -0.6174
     10 C9         -2.4792    5.3042   -0.1559 C.3       1 <0>         0.2274
     11 C10        -2.2612    5.5968   -1.5820 C.1       1 <0>        -0.2136
     12 C11        -2.0872    5.8303   -2.7194 C.1       1 <0>        -0.1914
     13 C12        -1.2845    3.1727    0.2266 C.ar      1 <0>         0.2498
     14 C13        -1.2909    1.7927    0.4165 C.ar      1 <0>        -0.2047
     15 C14        -0.1180    1.1174    0.5964 C.ar      1 <0>        -0.0113
     16 C15         1.0981    1.8079    0.5795 C.ar      1 <0>        -0.1977
     17 C16         1.1088    3.1947    0.3833 C.ar      1 <0>         0.2003
     18 C17        -0.0815    3.8703    0.2078 C.ar      1 <0>        -0.2387
     19 F1          2.2799    3.8681    0.3662 F         1 <0>        -0.1146
     20 C18         2.3647    1.0782    0.7672 C.2       1 <0>         0.5590
     21 O1          3.4212    1.6803    0.7522 O.2       1 <0>        -0.5469
     22 N2          2.3522   -0.2562    0.9554 N.am      1 <0>        -0.6969
     23 C19         3.6114   -0.9815    1.1420 C.3       1 <0>         0.1094
     24 H1          4.2970   -0.3196    1.6914 H         1 <0>         0.0875
     25 C20         3.3468   -2.2697    1.9240 C.3       1 <0>        -0.0926
     26 C21         2.8679   -1.9208    3.3346 C.3       1 <0>        -0.0002
     27 C22         2.6074   -3.1896    4.1048 C.2       1 <0>         0.0694
     28 N3          1.4757   -3.8475    4.1650 N.2       1 <0>        -0.3902
     29 N4          1.6569   -4.8803    4.9144 N.2       1 <0>        -0.2168
     30 N5          2.8720   -4.8831    5.3414 N.2       1 <0>        -0.2039
     31 N6          3.4841   -3.8571    4.8552 N.2       1 <0>        -0.3931
     32 C23         4.1989   -1.3221   -0.2033 C.2       1 <0>         0.4637
     33 O2          3.6248   -0.9928   -1.2141 O.co2     1 <0>        -0.6368
     34 O3          5.3600   -1.9913   -0.2784 O.co2     1 <0>        -0.7701
     35 C24        -3.2684    3.9983    4.9109 C.2       1 <0>         0.4946
     36 N7         -3.7453    3.8039    6.1305 N.am      1 <0>        -0.6017
     37 C25        -4.8303    3.0749    6.3417 C.2       1 <0>         0.3848
     38 N8         -5.5003    2.4960    5.3741 N.2       1 <0>        -0.5170
     39 C26        -5.3174    2.9025    7.7574 C.3       1 <0>        -0.1113
     40 O4         -2.1588    4.7455    4.7099 O.2       1 <0>        -0.5792
     41 H2         -6.9791    1.0224    1.0187 H         1 <0>         0.0728
     42 H3         -5.4534    0.8824    0.0810 H         1 <0>         0.0831
     43 H4         -6.4642    2.3603   -0.0638 H         1 <0>         0.0777
     44 H5         -6.6028    1.4636    3.2178 H         1 <0>         0.1287
     45 H6         -2.6981    4.0889    2.2930 H         1 <0>         0.1318
     46 H7         -4.5080    3.6806   -0.5012 H         1 <0>         0.0944
     47 H8         -3.6099    2.1293   -0.3854 H         1 <0>         0.0977
     48 H9         -3.4461    5.7226    0.1606 H         1 <0>         0.1004
     49 H10        -1.6718    5.7563    0.4388 H         1 <0>         0.1022
     50 H11        -1.9242    6.0490   -3.7850 H         1 <0>         0.2289
     51 H12        -2.2277    1.2553    0.4253 H         1 <0>         0.1297
     52 H13        -0.1291    0.0480    0.7476 H         1 <0>         0.1385
     53 H14        -0.0791    4.9397    0.0564 H         1 <0>         0.1346
     54 H15         1.3966   -0.8008    0.9690 H         1 <0>         0.4053
     55 H16         2.5734   -2.8588    1.4094 H         1 <0>         0.0584
     56 H17         4.2744   -2.8576    1.9867 H         1 <0>         0.0847
     57 H18         3.6413   -1.3317    3.8492 H         1 <0>         0.0632
     58 H19         1.9403   -1.3329    3.2719 H         1 <0>         0.0613
     59 H20        -4.6508    3.4461    8.4432 H         1 <0>         0.0859
     60 H21        -5.3183    1.8337    8.0173 H         1 <0>         0.1063
     61 H22        -6.3385    3.3021    7.8451 H         1 <0>         0.1028
     62 H23        -3.2183    4.2644    6.9792 H         1 <0>         0.4525
@<TRIPOS>BOND
     1    1   41 1
     2    1   42 1
     3    1   43 1
     4    1    2 1
     5    2    7 ar
     6    2    3 ar
     7    3   44 1
     8    3    4 ar
     9    4    5 ar
    10    4   38 1
    11    5   35 1
    12    5    6 ar
    13    6   45 1
    14    6    7 ar
    15    7    8 1
    16    8    9 1
    17    8   46 1
    18    8   47 1
    19    9   10 1
    20    9   13 1
    21   10   11 1
    22   10   48 1
    23   10   49 1
    24   11   12 3
    25   12   50 1
    26   13   18 ar
    27   13   14 ar
    28   14   15 ar
    29   14   51 1
    30   15   16 ar
    31   15   52 1
    32   16   17 ar
    33   16   20 1
    34   17   18 ar
    35   17   19 1
    36   18   53 1
    37   20   21 2
    38   20   22 am
    39   22   23 1
    40   22   54 1
    41   23   24 1
    42   23   25 1
    43   23   32 1
    44   25   26 1
    45   25   55 1
    46   25   56 1
    47   26   27 1
    48   26   57 1
    49   26   58 1
    50   27   28 1
    51   27   31 2
    52   28   29 1
    53   29   30 2
    54   30   31 1
    55   32   33 2
    56   32   34 1
    57   35   40 2
    58   35   36 am
    59   36   37 1
    60   36   62 1
    61   37   38 2
    62   37   39 1
    63   39   59 1
    64   39   60 1
    65   39   61 1
@<TRIPOS>MOLECULE
ZINC01678872
   34    35     0     0     0
SMALL
USER_CHARGES
[3-hydroxy-5-(5-methyl-2,4-dioxo-pyrimidin-1-yl)-tetrahydrofuran-2-yl]methoxyphosphonic acid
@<TRIPOS>ATOM
      1 C1          1.6872   -6.6858    5.1424 C.3       1 <0>        -0.0723
      2 C2          0.7177   -5.6665    4.6022 C.2       1 <0>        -0.2816
      3 C3          0.7228   -5.3452    3.2907 C.2       1 <0>         0.1849
      4 N1         -0.1647   -4.4178    2.8168 N.am      1 <0>        -0.5272
      5 C4         -1.0457   -3.8269    3.6442 C.2       1 <0>         0.6894
      6 O1         -1.8286   -3.0090    3.2011 O.2       1 <0>        -0.5019
      7 N2         -1.0692   -4.1246    4.9567 N.am      1 <0>        -0.6631
      8 H1         -1.7257   -3.6701    5.5588 H         1 <0>         0.4359
      9 C5         -0.2111   -5.0332    5.4629 C.2       1 <0>         0.5594
     10 O2         -0.2344   -5.3063    6.6494 O.2       1 <0>        -0.5287
     11 C6         -0.1596   -4.0695    1.3938 C.3       1 <0>         0.2935
     12 H2          0.6688   -4.5687    0.8910 H         1 <0>         0.1156
     13 C7         -1.4941   -4.4884    0.7470 C.3       1 <0>        -0.1880
     14 C8         -2.0698   -3.1693    0.1766 C.3       1 <0>         0.0796
     15 H3         -2.7949   -2.7324    0.8632 H         1 <0>         0.0905
     16 C9         -0.8037   -2.2815    0.0707 C.3       1 <0>         0.0959
     17 H4         -0.2474   -2.5089   -0.8386 H         1 <0>         0.0888
     18 O3         -0.0383   -2.6456    1.2395 O.3       1 <0>        -0.3337
     19 C10        -1.1801   -0.7991    0.1135 C.3       1 <0>         0.1410
     20 O4          0.0021   -0.0041    0.0020 O.3       1 <0>        -0.7541
     21 P1         -0.0198    1.6058    0.0109 P.3       1 <0>         2.1342
     22 O5         -0.7125    2.0831    1.2285 O.2       1 <0>        -1.1649
     23 O6         -2.6527   -3.3818   -1.1106 O.3       1 <0>        -0.5482
     24 H5          2.6025   -6.1851    5.4582 H         1 <0>         0.0671
     25 H6          1.2398   -7.1967    5.9950 H         1 <0>         0.0718
     26 H7          1.9207   -7.4130    4.3647 H         1 <0>         0.0657
     27 H8          1.4238   -5.8182    2.6190 H         1 <0>         0.1764
     28 H9         -1.3208   -5.2069   -0.0542 H         1 <0>         0.0963
     29 H10        -2.1668   -4.9058    1.4962 H         1 <0>         0.0828
     30 H11        -1.6790   -0.5780    1.0570 H         1 <0>         0.0461
     31 H12        -1.8511   -0.5706   -0.7146 H         1 <0>         0.0559
     32 H13        -3.4480   -3.9318   -1.0963 H         1 <0>         0.3742
     33 O7          1.4907    2.1630   -0.0006 O.3       1 <0>        -1.1803
     34 O8         -0.7984    2.1391   -1.2935 O.3       1 <0>        -1.2011
@<TRIPOS>BOND
     1    1    2 1
     2    1   24 1
     3    1   25 1
     4    1   26 1
     5    2    9 1
     6    2    3 2
     7    3    4 1
     8    3   27 1
     9    4    5 am
    10    4   11 1
    11    5    6 2
    12    5    7 am
    13    7    8 1
    14    7    9 am
    15    9   10 2
    16   11   12 1
    17   11   18 1
    18   11   13 1
    19   13   14 1
    20   13   28 1
    21   13   29 1
    22   14   15 1
    23   14   16 1
    24   14   23 1
    25   16   17 1
    26   16   18 1
    27   16   19 1
    28   19   20 1
    29   19   30 1
    30   19   31 1
    31   20   21 1
    32   21   22 2
    33   21   33 1
    34   21   34 1
    35   23   32 1
@<TRIPOS>MOLECULE
ZINC13514850
   34    35     0     0     0
SMALL
USER_CHARGES
[(2R,3R,5R)-3-hydroxy-5-(5-methyl-2,4-dioxo-pyrimidin-1-yl)tetrahydrofuran-2-yl]methyl dihydrogen phosphate
@<TRIPOS>ATOM
      1 C1         -5.9853    2.0527    3.8362 C.3       1 <0>        -0.0718
      2 C2         -4.7896    2.5989    3.0993 C.2       1 <0>        -0.2823
      3 C3         -4.0334    1.7894    2.3273 C.2       1 <0>         0.1844
      4 N1         -2.9514    2.3018    1.6646 N.am      1 <0>        -0.5243
      5 C4         -2.6311    3.6035    1.7791 C.2       1 <0>         0.6828
      6 O1         -1.6627    4.0369    1.1853 O.2       1 <0>        -0.4833
      7 N2         -3.3706    4.4338    2.5377 N.am      1 <0>        -0.6639
      8 H1         -3.1226    5.4002    2.6054 H         1 <0>         0.4357
      9 C5         -4.4445    3.9677    3.2067 C.2       1 <0>         0.5594
     10 O2         -5.1112    4.7172    3.8973 O.2       1 <0>        -0.5302
     11 C6         -2.1306    1.4234    0.8274 C.3       1 <0>         0.2898
     12 H2         -2.4406    0.3853    0.9471 H         1 <0>         0.1120
     13 C7         -2.2297    1.8468   -0.6549 C.3       1 <0>        -0.1913
     14 C8         -0.8044    1.6196   -1.2064 C.3       1 <0>         0.0829
     15 H3         -0.8161    0.8819   -2.0088 H         1 <0>         0.0765
     16 C9         -0.0127    1.0858    0.0080 C.3       1 <0>         0.0861
     17 H4          0.0021   -0.0041    0.0020 H         1 <0>         0.0901
     18 O3         -0.7310    1.5725    1.1626 O.3       1 <0>        -0.3307
     19 C10         1.4146    1.6369   -0.0027 C.3       1 <0>         0.1484
     20 O4          2.1525    1.0692    1.0814 O.3       1 <0>        -0.7597
     21 P1          3.6948    1.4263    1.3745 P.3       1 <0>         2.1373
     22 O5          3.8446    2.8925    1.5098 O.2       1 <0>        -1.1652
     23 O6         -0.2438    2.8505   -1.6677 O.3       1 <0>        -0.5302
     24 H5         -5.6771    1.7068    4.8229 H         1 <0>         0.0666
     25 H6         -6.7350    2.8366    3.9438 H         1 <0>         0.0717
     26 H7         -6.4086    1.2197    3.2750 H         1 <0>         0.0653
     27 H8         -4.2811    0.7424    2.2336 H         1 <0>         0.1756
     28 H9         -2.5068    2.8980   -0.7342 H         1 <0>         0.0944
     29 H10        -2.9482    1.2205   -1.1838 H         1 <0>         0.0866
     30 H11         1.8968    1.3783   -0.9453 H         1 <0>         0.0498
     31 H12         1.3862    2.7211    0.1055 H         1 <0>         0.0566
     32 H13        -0.7025    3.2305   -2.4295 H         1 <0>         0.3668
     33 O7          4.1613    0.7110    2.7393 O.3       1 <0>        -1.1826
     34 O8          4.6076    0.9038    0.1555 O.3       1 <0>        -1.2034
@<TRIPOS>BOND
     1    1    2 1
     2    1   24 1
     3    1   25 1
     4    1   26 1
     5    2    9 1
     6    2    3 2
     7    3    4 1
     8    3   27 1
     9    4    5 am
    10    4   11 1
    11    5    6 2
    12    5    7 am
    13    7    8 1
    14    7    9 am
    15    9   10 2
    16   11   12 1
    17   11   18 1
    18   11   13 1
    19   13   14 1
    20   13   28 1
    21   13   29 1
    22   14   15 1
    23   14   16 1
    24   14   23 1
    25   16   17 1
    26   16   18 1
    27   16   19 1
    28   19   20 1
    29   19   30 1
    30   19   31 1
    31   20   21 1
    32   21   22 2
    33   21   33 1
    34   21   34 1
    35   23   32 1
@<TRIPOS>MOLECULE
ZINC03871103
   31    32     0     0     0
SMALL
USER_CHARGES
[5-(5-bromo-2,4-dioxo-pyrimidin-1-yl)-3-hydroxy-tetrahydrofuran-2-yl]methoxyphosphonic acid
@<TRIPOS>ATOM
      1 C1         -2.6098    1.3244    7.6143 C.2       1 <0>         0.2360
      2 C2         -2.1986    0.5398    8.6337 C.2       1 <0>        -0.2951
      3 C3         -1.1340   -0.3691    8.4174 C.2       1 <0>         0.5674
      4 O1         -0.7423   -1.0834    9.3226 O.2       1 <0>        -0.5115
      5 N1         -0.5581   -0.4358    7.2001 N.am      1 <0>        -0.6583
      6 H1          0.1938   -1.0752    7.0394 H         1 <0>         0.4422
      7 C4         -0.9909    0.3546    6.2003 C.2       1 <0>         0.6696
      8 O2         -0.4617    0.2831    5.1080 O.2       1 <0>        -0.4399
      9 N2         -2.0011    1.2222    6.3922 N.am      1 <0>        -0.5234
     10 C5         -2.4500    2.0698    5.2848 C.3       1 <0>         0.2836
     11 H2         -2.3524    3.1229    5.5483 H         1 <0>         0.1066
     12 C6         -3.9134    1.7413    4.9151 C.3       1 <0>        -0.1995
     13 C7         -3.9501    1.8714    3.3760 C.3       1 <0>         0.0807
     14 H3         -4.6485    2.6523    3.0752 H         1 <0>         0.0811
     15 C8         -2.5045    2.2631    2.9978 C.3       1 <0>         0.0740
     16 H4         -2.4137    3.3457    2.9093 H         1 <0>         0.0921
     17 O3         -1.6931    1.7782    4.0898 O.3       1 <0>        -0.2976
     18 C9         -2.0945    1.5864    1.6883 C.3       1 <0>         0.1510
     19 O4         -0.7716    1.9950    1.3348 O.3       1 <0>        -0.7559
     20 P1         -0.0180    1.4758    0.0102 P.3       1 <0>         2.1380
     21 O5          0.0021   -0.0041    0.0020 O.2       1 <0>        -1.1653
     22 O6         -4.3039    0.6235    2.7763 O.3       1 <0>        -0.5351
     23 Br1        -3.0280    0.6582   10.3290 Br        1 <0>         0.0036
     24 H5         -3.4174    2.0263    7.7613 H         1 <0>         0.1831
     25 H6         -4.1652    0.7251    5.2186 H         1 <0>         0.0931
     26 H7         -4.5939    2.4565    5.3773 H         1 <0>         0.0937
     27 H8         -2.7873    1.8749    0.8978 H         1 <0>         0.0493
     28 H9         -2.1187    0.5041    1.8155 H         1 <0>         0.0535
     29 H10        -5.2021    0.3294    2.9808 H         1 <0>         0.3692
     30 O7          1.4924    2.0330   -0.0013 O.3       1 <0>        -1.1820
     31 O8         -0.7967    2.0091   -1.2942 O.3       1 <0>        -1.2042
@<TRIPOS>BOND
     1    1    9 1
     2    1    2 2
     3    1   24 1
     4    2    3 1
     5    2   23 1
     6    3    4 2
     7    3    5 am
     8    5    6 1
     9    5    7 am
    10    7    8 2
    11    7    9 am
    12    9   10 1
    13   10   11 1
    14   10   17 1
    15   10   12 1
    16   12   13 1
    17   12   25 1
    18   12   26 1
    19   13   14 1
    20   13   15 1
    21   13   22 1
    22   15   16 1
    23   15   17 1
    24   15   18 1
    25   18   19 1
    26   18   27 1
    27   18   28 1
    28   19   20 1
    29   20   21 2
    30   20   30 1
    31   20   31 1
    32   22   29 1
@<TRIPOS>MOLECULE
ZINC03871104
   31    32     0     0     0
SMALL
USER_CHARGES
[5-(5-bromo-2,4-dioxo-pyrimidin-1-yl)-3-hydroxy-tetrahydrofuran-2-yl]methoxyphosphonic acid
@<TRIPOS>ATOM
      1 C1          3.4169    4.2847   -1.8737 C.2       1 <0>         0.2298
      2 C2          4.5994    4.8779   -2.1451 C.2       1 <0>        -0.2939
      3 C3          5.4700    4.2791   -3.0884 C.2       1 <0>         0.5684
      4 O1          6.5393    4.7980   -3.3538 O.2       1 <0>        -0.5030
      5 N1          5.1037    3.1294   -3.6902 N.am      1 <0>        -0.6570
      6 H1          5.7129    2.7005   -4.3572 H         1 <0>         0.4379
      7 C4          3.9215    2.5567   -3.3968 C.2       1 <0>         0.7030
      8 O2          3.6051    1.5197   -3.9473 O.2       1 <0>        -0.5375
      9 N2          3.0853    3.1148   -2.5028 N.am      1 <0>        -0.5349
     10 C5          1.8052    2.4679   -2.2042 C.3       1 <0>         0.2878
     11 H2          1.3288    2.1403   -3.1282 H         1 <0>         0.1389
     12 C6          2.0329    1.2597   -1.2752 C.3       1 <0>        -0.1843
     13 C7          1.2597    1.6227    0.0159 C.3       1 <0>         0.0771
     14 H3          1.8266    1.3375    0.9021 H         1 <0>         0.0862
     15 C8          1.1459    3.1645   -0.0955 C.3       1 <0>         0.0674
     16 H4          2.0662    3.6425    0.2403 H         1 <0>         0.0915
     17 O3          0.9444    3.3853   -1.5089 O.3       1 <0>        -0.3222
     18 C9         -0.0522    3.6757    0.7070 C.3       1 <0>         0.1448
     19 O4         -0.0666    5.1044    0.6836 O.3       1 <0>        -0.7577
     20 P1         -1.1922    5.9824    1.4282 P.3       1 <0>         2.1329
     21 O5         -2.5332    5.5588    0.9671 O.2       1 <0>        -1.1639
     22 O6         -0.0337    1.0152    0.0235 O.3       1 <0>        -0.5351
     23 Br1         5.0830    6.4902   -1.2834 Br        1 <0>         0.0226
     24 H5          2.7381    4.7287   -1.1606 H         1 <0>         0.2008
     25 H6          3.0949    1.1370   -1.0622 H         1 <0>         0.0878
     26 H7          1.6252    0.3528   -1.7218 H         1 <0>         0.1040
     27 H8         -0.9737    3.2958    0.2658 H         1 <0>         0.0589
     28 H9          0.0266    3.3299    1.7377 H         1 <0>         0.0546
     29 H10        -0.0142    0.0487    0.0467 H         1 <0>         0.3733
     30 O7         -1.0778    5.7638    3.0192 O.3       1 <0>        -1.2008
     31 O8         -0.9732    7.5397    1.0834 O.3       1 <0>        -1.1775
@<TRIPOS>BOND
     1    1    9 1
     2    1    2 2
     3    1   24 1
     4    2    3 1
     5    2   23 1
     6    3    4 2
     7    3    5 am
     8    5    6 1
     9    5    7 am
    10    7    8 2
    11    7    9 am
    12    9   10 1
    13   10   11 1
    14   10   17 1
    15   10   12 1
    16   12   13 1
    17   12   25 1
    18   12   26 1
    19   13   14 1
    20   13   15 1
    21   13   22 1
    22   15   16 1
    23   15   17 1
    24   15   18 1
    25   18   19 1
    26   18   27 1
    27   18   28 1
    28   19   20 1
    29   20   21 2
    30   20   30 1
    31   20   31 1
    32   22   29 1
@<TRIPOS>MOLECULE
ZINC03871105
   31    32     0     0     0
SMALL
USER_CHARGES
[5-(5-bromo-2,4-dioxo-pyrimidin-1-yl)-3-hydroxy-tetrahydrofuran-2-yl]methoxyphosphonic acid
@<TRIPOS>ATOM
      1 C1          1.7868    2.3951    1.0351 C.2       1 <0>         0.2448
      2 C2          3.0469    2.8810    1.0255 C.2       1 <0>        -0.2990
      3 C3          3.8971    2.5693   -0.0635 C.2       1 <0>         0.5683
      4 O1          5.0376    2.9954   -0.0944 O.2       1 <0>        -0.5030
      5 N1          3.4323    1.7961   -1.0656 N.am      1 <0>        -0.6558
      6 H1          4.0253    1.5748   -1.8398 H         1 <0>         0.4394
      7 C4          2.1736    1.3209   -1.0282 C.2       1 <0>         0.7041
      8 O2          1.7701    0.6207   -1.9366 O.2       1 <0>        -0.5316
      9 N2          1.3539    1.6135   -0.0022 N.am      1 <0>        -0.5226
     10 C5         -0.0127    1.0858    0.0080 C.3       1 <0>         0.2971
     11 H2          0.0021   -0.0041    0.0020 H         1 <0>         0.1137
     12 C6         -0.8044    1.6196   -1.2064 C.3       1 <0>        -0.1860
     13 C7         -2.2297    1.8468   -0.6549 C.3       1 <0>         0.0766
     14 H3         -2.5068    2.8980   -0.7342 H         1 <0>         0.0854
     15 C8         -2.1306    1.4234    0.8274 C.3       1 <0>         0.0902
     16 H4         -2.4425    0.3859    0.9474 H         1 <0>         0.0983
     17 O3         -0.7310    1.5725    1.1626 O.3       1 <0>        -0.3460
     18 C9         -2.9878    2.3407    1.7018 C.3       1 <0>         0.1388
     19 O4         -2.9753    1.8632    3.0486 O.3       1 <0>        -0.7520
     20 P1         -3.7742    2.5883    4.2435 P.3       1 <0>         2.1303
     21 O5         -3.3688    4.0098    4.3167 O.2       1 <0>        -1.1627
     22 O6         -3.1716    1.0257   -1.3483 O.3       1 <0>        -0.5477
     23 Br1         3.6675    3.9633    2.4466 Br        1 <0>         0.0191
     24 H5          1.1239    2.6224    1.8569 H         1 <0>         0.2035
     25 H6         -0.3768    2.5585   -1.5583 H         1 <0>         0.0847
     26 H7         -0.8182    0.8810   -2.0079 H         1 <0>         0.1047
     27 H8         -2.5843    3.3528    1.6714 H         1 <0>         0.0461
     28 H9         -4.0117    2.3464    1.3278 H         1 <0>         0.0602
     29 H10        -3.2299    1.2085   -2.2961 H         1 <0>         0.3772
     30 O7         -5.3572    2.4955    3.9646 O.3       1 <0>        -1.1993
     31 O8         -3.4314    1.8600    5.6378 O.3       1 <0>        -1.1770
@<TRIPOS>BOND
     1    1    9 1
     2    1    2 2
     3    1   24 1
     4    2    3 1
     5    2   23 1
     6    3    4 2
     7    3    5 am
     8    5    6 1
     9    5    7 am
    10    7    8 2
    11    7    9 am
    12    9   10 1
    13   10   11 1
    14   10   17 1
    15   10   12 1
    16   12   13 1
    17   12   25 1
    18   12   26 1
    19   13   14 1
    20   13   15 1
    21   13   22 1
    22   15   16 1
    23   15   17 1
    24   15   18 1
    25   18   19 1
    26   18   27 1
    27   18   28 1
    28   19   20 1
    29   20   21 2
    30   20   30 1
    31   20   31 1
    32   22   29 1
@<TRIPOS>MOLECULE
ZINC03871106
   31    32     0     0     0
SMALL
USER_CHARGES
[5-(5-bromo-2,4-dioxo-pyrimidin-1-yl)-3-hydroxy-tetrahydrofuran-2-yl]methoxyphosphonic acid
@<TRIPOS>ATOM
      1 C1          1.1524    2.0545    0.0021 C.2       1 <0>         0.2404
      2 C2          2.3343    1.4012   -0.0131 C.2       1 <0>        -0.2928
      3 C3          2.3385   -0.0152   -0.0208 C.2       1 <0>         0.5697
      4 O1          3.3917   -0.6266   -0.0341 O.2       1 <0>        -0.5026
      5 N1          1.1657   -0.6804   -0.0127 N.am      1 <0>        -0.6561
      6 H1          1.1604   -1.6804   -0.0176 H         1 <0>         0.4398
      7 C4          0.0021   -0.0041    0.0020 C.2       1 <0>         0.7047
      8 O2         -1.0476   -0.6177    0.0083 O.2       1 <0>        -0.5311
      9 N2         -0.0162    1.3412    0.0094 N.am      1 <0>        -0.5242
     10 C5         -1.2985    2.0495    0.0193 C.3       1 <0>         0.2822
     11 H2         -2.1158    1.3359   -0.0859 H         1 <0>         0.1450
     12 C6         -1.4540    2.8327    1.3405 C.3       1 <0>        -0.1962
     13 C7         -2.1222    4.1517    0.8651 C.3       1 <0>         0.0782
     14 H3         -3.2025    4.0357    0.7784 H         1 <0>         0.0919
     15 C8         -1.4660    4.3284   -0.5274 C.3       1 <0>         0.0798
     16 H4         -0.4852    4.7932   -0.4272 H         1 <0>         0.0916
     17 O3         -1.3381    2.9979   -1.0534 O.3       1 <0>        -0.3353
     18 C9         -2.3632    5.1738   -1.4337 C.3       1 <0>         0.1363
     19 O4         -1.6915    5.4232   -2.6701 O.3       1 <0>        -0.7523
     20 P1         -2.3434    6.2842   -3.8641 P.3       1 <0>         2.1313
     21 O5         -3.6565    5.7068   -4.2287 O.2       1 <0>        -1.1641
     22 O6         -1.7912    5.2383    1.7321 O.3       1 <0>        -0.5398
     23 Br1         3.9616    2.3643   -0.0247 Br        1 <0>         0.0148
     24 H5          1.1292    3.1342    0.0077 H         1 <0>         0.1868
     25 H6         -2.1022    2.2978    2.0347 H         1 <0>         0.1014
     26 H7         -0.4814    3.0310    1.7907 H         1 <0>         0.0945
     27 H8         -3.2926    4.6380   -1.6268 H         1 <0>         0.0451
     28 H9         -2.5852    6.1215   -0.9433 H         1 <0>         0.0596
     29 H10        -2.0899    5.1189    2.6440 H         1 <0>         0.3781
     30 O7         -2.5423    7.8070   -3.3810 O.3       1 <0>        -1.1991
     31 O8         -1.3682    6.2504   -5.1447 O.3       1 <0>        -1.1777
@<TRIPOS>BOND
     1    1    9 1
     2    1    2 2
     3    1   24 1
     4    2    3 1
     5    2   23 1
     6    3    4 2
     7    3    5 am
     8    5    6 1
     9    5    7 am
    10    7    8 2
    11    7    9 am
    12    9   10 1
    13   10   11 1
    14   10   17 1
    15   10   12 1
    16   12   13 1
    17   12   25 1
    18   12   26 1
    19   13   14 1
    20   13   15 1
    21   13   22 1
    22   15   16 1
    23   15   17 1
    24   15   18 1
    25   18   19 1
    26   18   27 1
    27   18   28 1
    28   19   20 1
    29   20   21 2
    30   20   30 1
    31   20   31 1
    32   22   29 1
@<TRIPOS>MOLECULE
ZINC12504292
   55    57     0     0     0
SMALL
USER_CHARGES
(2S)-2-[[4-[2-[(6S)-2-amino-4-hydroxy-5,6,7,8-tetrahydropyrido[6,5-d]pyrimidin-6-yl]ethyl]benzoyl]amino]pentanedioic acid
@<TRIPOS>ATOM
      1 C1          1.9222    1.3675   -8.1624 C.ar      1 <0>        -0.1242
      2 C2          1.4371    0.9142   -9.3717 C.ar      1 <0>        -0.0831
      3 C3          0.2179    1.3923   -9.8545 C.ar      1 <0>        -0.1084
      4 C4         -0.5054    2.3226   -9.1066 C.ar      1 <0>        -0.0646
      5 C5         -0.0118    2.7635   -7.8961 C.ar      1 <0>        -0.1277
      6 C6          1.1974    2.2856   -7.4232 C.ar      1 <0>        -0.0772
      7 C7          1.7305    2.7717   -6.1001 C.3       1 <0>        -0.0785
      8 C8          1.2231    1.8610   -4.9802 C.3       1 <0>        -0.1096
      9 C9          1.7643    2.3546   -3.6370 C.3       1 <0>        -0.1034
     10 H1          1.4930    3.4127   -3.5072 H         1 <0>         0.0775
     11 C10         1.1599    1.5231   -2.5044 C.3       1 <0>        -0.0270
     12 C11         1.8481    1.8328   -1.2042 C.2       1 <0>        -0.3581
     13 C12         3.1075    2.4151   -1.1647 C.2       1 <0>         0.4936
     14 N1          3.6738    2.6625    0.0144 N.2       1 <0>        -0.6216
     15 C13         3.0457    2.3611    1.1412 C.2       1 <0>         0.6557
     16 N2          1.8402    1.8123    1.1404 N.am      1 <0>        -0.6219
     17 C14         1.2196    1.5309   -0.0014 C.2       1 <0>         0.4907
     18 O1         -0.0110    0.9628    0.0073 O.2       1 <0>        -0.6270
     19 N3          3.6625    2.6316    2.3501 N.pl3     1 <0>        -0.8549
     20 N4          3.7776    2.7422   -2.3338 N.pl3     1 <0>        -0.7138
     21 C15         3.2901    2.1968   -3.6083 C.3       1 <0>         0.1237
     22 C16        -0.3048    0.9157  -11.1528 C.2       1 <0>         0.5512
     23 O2         -1.3667    1.3342  -11.5710 O.2       1 <0>        -0.5562
     24 N5          0.3961    0.0174  -11.8726 N.am      1 <0>        -0.6919
     25 C17        -0.1219   -0.4548  -13.1591 C.3       1 <0>         0.1034
     26 H2         -0.6551    0.3842  -13.6300 H         1 <0>         0.0844
     27 C18         1.0406   -0.9278  -14.0343 C.3       1 <0>        -0.0845
     28 C19         1.9411    0.2619  -14.3726 C.3       1 <0>        -0.1524
     29 C20         3.0861   -0.2039  -15.2347 C.2       1 <0>         0.4613
     30 O3          3.1729   -1.3680  -15.5465 O.co2     1 <0>        -0.6388
     31 O4          4.0095    0.6744  -15.6562 O.co2     1 <0>        -0.7912
     32 C21        -1.0744   -1.5995  -12.9275 C.2       1 <0>         0.4645
     33 O5         -1.2977   -1.9816  -11.8032 O.co2     1 <0>        -0.6394
     34 O6         -1.6747   -2.1945  -13.9702 O.co2     1 <0>        -0.7699
     35 H3          2.8677    1.0020   -7.7899 H         1 <0>         0.1229
     36 H4          2.0015    0.1940   -9.9455 H         1 <0>         0.1287
     37 H5         -1.4496    2.6962   -9.4744 H         1 <0>         0.1324
     38 H6         -0.5703    3.4836   -7.3166 H         1 <0>         0.1212
     39 H7          2.8302    2.7524   -6.1185 H         1 <0>         0.0715
     40 H8          1.3848    3.8005   -5.9211 H         1 <0>         0.0711
     41 H9          0.1234    1.8802   -4.9619 H         1 <0>         0.0740
     42 H10         1.5689    0.8322   -5.1592 H         1 <0>         0.0710
     43 H11         0.0894    1.7574   -2.4085 H         1 <0>         0.0768
     44 H12         1.2823    0.4533   -2.7292 H         1 <0>         0.0632
     45 H13         3.1535    2.3870    3.2941 H         1 <0>         0.4353
     46 H14         4.6617    3.0912    2.3670 H         1 <0>         0.4519
     47 H15         4.6604    3.3982   -2.3181 H         1 <0>         0.4305
     48 H16         3.5501    1.1311   -3.6903 H         1 <0>         0.0694
     49 H17         3.7317    2.7479   -4.4517 H         1 <0>         0.0938
     50 H18         1.3571   -0.3613  -11.4942 H         1 <0>         0.4061
     51 H19         1.6236   -1.6862  -13.4911 H         1 <0>         0.0583
     52 H20         0.6459   -1.3648  -14.9634 H         1 <0>         0.0846
     53 H21         1.3581    1.0203  -14.9157 H         1 <0>         0.0600
     54 H22         2.3358    0.6989  -13.4435 H         1 <0>         0.0579
     55 H23         1.3395    1.5834    2.0927 H         1 <0>         0.4388
@<TRIPOS>BOND
     1    1    6 ar
     2    1    2 ar
     3    1   35 1
     4    2    3 ar
     5    2   36 1
     6    3    4 ar
     7    3   22 1
     8    4    5 ar
     9    4   37 1
    10    5    6 ar
    11    5   38 1
    12    6    7 1
    13    7    8 1
    14    7   39 1
    15    7   40 1
    16    8    9 1
    17    8   41 1
    18    8   42 1
    19    9   10 1
    20    9   21 1
    21    9   11 1
    22   11   12 1
    23   11   43 1
    24   11   44 1
    25   12   17 1
    26   12   13 2
    27   13   14 1
    28   13   20 1
    29   14   15 2
    30   15   16 1
    31   15   19 1
    32   16   17 am
    33   16   55 1
    34   17   18 2
    35   19   45 1
    36   19   46 1
    37   20   21 1
    38   20   47 1
    39   21   48 1
    40   21   49 1
    41   22   23 2
    42   22   24 am
    43   24   25 1
    44   24   50 1
    45   25   26 1
    46   25   27 1
    47   25   32 1
    48   27   28 1
    49   27   51 1
    50   27   52 1
    51   28   29 1
    52   28   53 1
    53   28   54 1
    54   29   30 2
    55   29   31 1
    56   32   33 2
    57   32   34 1
@<TRIPOS>MOLECULE
ZINC21289577
   55    57     0     0     0
SMALL
USER_CHARGES

@<TRIPOS>ATOM
      1 C1         -0.0167    1.3794    0.0096 C.ar      1 <0>        -0.1289
      2 C2          1.1667    2.0884    0.0021 C.ar      1 <0>        -0.0645
      3 C3          2.3848    1.4070   -0.0132 C.ar      1 <0>        -0.1104
      4 C4          2.3966    0.0113   -0.0208 C.ar      1 <0>        -0.0820
      5 C5          1.2061   -0.6856   -0.0132 C.ar      1 <0>        -0.1228
      6 C6          0.0021   -0.0041    0.0020 C.ar      1 <0>        -0.0784
      7 C7         -1.2946   -0.7719    0.0103 C.3       1 <0>        -0.0771
      8 C8         -1.7472   -1.0241   -1.4293 C.3       1 <0>        -0.1091
      9 C9         -3.0637   -1.8037   -1.4209 C.3       1 <0>        -0.1052
     10 H1         -2.9442   -2.7169   -0.8380 H         1 <0>         0.0798
     11 C10        -3.4594   -2.1582   -2.8551 C.3       1 <0>        -0.0331
     12 C11        -4.8607   -2.7038   -2.8925 C.2       1 <0>        -0.3419
     13 C12        -5.7500   -2.4731   -1.8896 C.2       1 <0>         0.4439
     14 N1         -7.0169   -2.9903   -1.9851 N.pl3     1 <0>        -0.6545
     15 H2         -7.6600   -2.8283   -1.2773 H         1 <0>         0.4094
     16 C13        -7.3745   -3.7299   -3.0703 C.2       1 <0>         0.6579
     17 N2         -6.5217   -3.9643   -4.0442 N.2       1 <0>        -0.6350
     18 C14        -5.2715   -3.4785   -3.9988 C.2       1 <0>         0.5436
     19 O1         -4.4913   -3.7058   -4.9122 O.2       1 <0>        -0.5263
     20 N3         -8.6435   -4.2391   -3.1495 N.pl3     1 <0>        -0.8255
     21 N4         -5.4033   -1.7373   -0.7796 N.pl3     1 <0>        -0.7319
     22 C15        -4.1705   -0.9388   -0.8024 C.3       1 <0>         0.1300
     23 C16         3.6569    2.1603   -0.0218 C.2       1 <0>         0.5428
     24 O2          3.6435    3.3757   -0.0155 O.2       1 <0>        -0.5536
     25 N5          4.8314    1.4994   -0.0366 N.am      1 <0>        -0.6749
     26 C17         6.0919    2.2459   -0.0451 C.3       1 <0>         0.0734
     27 H3          5.9814    3.1523    0.5501 H         1 <0>         0.0779
     28 C18         7.2027    1.3778    0.5494 C.3       1 <0>        -0.0826
     29 C19         6.9032    1.1060    2.0250 C.3       1 <0>        -0.1771
     30 C20         7.9973    0.2510    2.6105 C.2       1 <0>         0.4912
     31 O3          8.9302   -0.1078    1.9123 O.co2     1 <0>        -0.6972
     32 O4          7.9496   -0.0820    3.7824 O.co2     1 <0>        -0.7199
     33 C21         6.4472    2.6155   -1.4622 C.2       1 <0>         0.4982
     34 O5          7.0818    3.6322   -1.6861 O.co2     1 <0>        -0.7010
     35 O6          6.1002    1.8979   -2.3847 O.co2     1 <0>        -0.6979
     36 H4         -0.9598    1.9054    0.0260 H         1 <0>         0.1208
     37 H5          1.1508    3.1682    0.0077 H         1 <0>         0.1331
     38 H6          3.3358   -0.5219   -0.0330 H         1 <0>         0.1296
     39 H7          1.2138   -1.7656   -0.0191 H         1 <0>         0.1240
     40 H8         -1.1489   -1.7256    0.5176 H         1 <0>         0.0721
     41 H9         -2.0557   -0.1941    0.5345 H         1 <0>         0.0689
     42 H10        -1.8929   -0.0704   -1.9367 H         1 <0>         0.0708
     43 H11        -0.9861   -1.6019   -1.9536 H         1 <0>         0.0767
     44 H12        -3.4038   -1.2641   -3.4760 H         1 <0>         0.0687
     45 H13        -2.7702   -2.9076   -3.2445 H         1 <0>         0.0824
     46 H14        -9.2788   -4.0715   -2.4359 H         1 <0>         0.4087
     47 H15        -8.9070   -4.7673   -3.9192 H         1 <0>         0.4304
     48 H16        -5.9654   -1.7468    0.0108 H         1 <0>         0.4016
     49 H17        -3.8931   -0.6544    0.2127 H         1 <0>         0.0948
     50 H18        -4.3232   -0.0456   -1.4082 H         1 <0>         0.0719
     51 H19         4.8421    0.5294   -0.0416 H         1 <0>         0.3915
     52 H20         7.2537    0.4325    0.0090 H         1 <0>         0.0604
     53 H21         8.1565    1.8981    0.4621 H         1 <0>         0.0729
     54 H22         6.8522    2.0513    2.5654 H         1 <0>         0.0526
     55 H23         5.9494    0.5857    2.1123 H         1 <0>         0.0509
@<TRIPOS>BOND
     1    1    6 ar
     2    1    2 ar
     3    1   36 1
     4    2    3 ar
     5    2   37 1
     6    3    4 ar
     7    3   23 1
     8    4    5 ar
     9    4   38 1
    10    5    6 ar
    11    5   39 1
    12    6    7 1
    13    7    8 1
    14    7   40 1
    15    7   41 1
    16    8    9 1
    17    8   42 1
    18    8   43 1
    19    9   10 1
    20    9   22 1
    21    9   11 1
    22   11   12 1
    23   11   44 1
    24   11   45 1
    25   12   18 1
    26   12   13 2
    27   13   14 1
    28   13   21 1
    29   14   15 1
    30   14   16 1
    31   16   17 2
    32   16   20 1
    33   17   18 1
    34   18   19 2
    35   20   46 1
    36   20   47 1
    37   21   22 1
    38   21   48 1
    39   22   49 1
    40   22   50 1
    41   23   24 2
    42   23   25 am
    43   25   26 1
    44   25   51 1
    45   26   27 1
    46   26   28 1
    47   26   33 1
    48   28   29 1
    49   28   52 1
    50   28   53 1
    51   29   30 1
    52   29   54 1
    53   29   55 1
    54   30   31 2
    55   30   32 1
    56   33   34 2
    57   33   35 1
@<TRIPOS>MOLECULE
ZINC38212689
   12    12     0     0     0
SMALL
USER_CHARGES

@<TRIPOS>ATOM
      1 C1         -0.0165    1.3666    0.0096 C.2       1 <0>         0.1453
      2 C2          1.1481    2.0506    0.0021 C.2       1 <0>        -0.0726
      3 C3          2.3695    1.3316   -0.0134 C.2       1 <0>         0.5396
      4 O1          3.4324    1.9260   -0.0200 O.2       1 <0>        -0.4876
      5 N1          2.3438   -0.0164   -0.0204 N.am      1 <0>        -0.6488
      6 H1          3.1758   -0.5151   -0.0307 H         1 <0>         0.4404
      7 C4          1.1691   -0.6733   -0.0127 C.2       1 <0>         0.6958
      8 O2          1.1625   -1.8892   -0.0192 O.2       1 <0>        -0.5273
      9 N2          0.0021   -0.0041    0.0020 N.am      1 <0>        -0.6255
     10 H2         -0.8339   -0.4960    0.0077 H         1 <0>         0.4462
     11 F1          1.1488    3.4016    0.0089 F         1 <0>        -0.1004
     12 H3         -0.9573    1.8966    0.0259 H         1 <0>         0.1951
@<TRIPOS>BOND
     1    1    9 1
     2    1    2 2
     3    1   12 1
     4    2    3 1
     5    2   11 1
     6    3    4 2
     7    3    5 am
     8    5    6 1
     9    5    7 am
    10    7    8 2
    11    7    9 am
    12    9   10 1
@<TRIPOS>MOLECULE
ZINC38212689
   11    11     0     0     0
SMALL
USER_CHARGES

@<TRIPOS>ATOM
      1 C1         -0.0160    1.3290    0.0093 C.2       1 <0>         0.1994
      2 C2          1.1555    2.0282    0.0019 C.2       1 <0>        -0.2330
      3 C3          2.3710    1.3162   -0.0135 C.2       1 <0>         0.5306
      4 O1          3.4384    1.9074   -0.0202 O.2       1 <0>        -0.5821
      5 N1          2.3312   -0.0334   -0.0204 N.am      1 <0>        -0.6540
      6 H1          3.1558   -0.5442   -0.0307 H         1 <0>         0.4023
      7 C4          1.1331   -0.6738   -0.0124 C.2       1 <0>         0.6064
      8 O2          1.1036   -2.0228   -0.0194 O.3       1 <0>        -0.6639
      9 N2          0.0021   -0.0041    0.0020 N.2       1 <0>        -0.6106
     10 F1          1.1499    3.3792    0.0088 F         1 <0>        -0.1461
     11 H2         -0.9587    1.8557    0.0257 H         1 <0>         0.1510
@<TRIPOS>BOND
     1    1    9 1
     2    1    2 2
     3    1   11 1
     4    2    3 1
     5    2   10 1
     6    3    4 2
     7    3    5 am
     8    5    6 1
     9    5    7 1
    10    7    8 1
    11    7    9 2
@<TRIPOS>MOLECULE
ZINC18279672
   52    54     0     0     0
SMALL
USER_CHARGES
(2S)-2-[[5-[methyl-[(2-methyl-4-oxo-3H-quinazolin-6-yl)methyl]amino]thiophene-2-carbonyl]amino]pentanedioic acid
@<TRIPOS>ATOM
      1 C1         10.3914    0.6209   -2.9939 C.3       1 <0>        -0.1098
      2 C2          9.9324    1.6032   -1.9474 C.2       1 <0>         0.3866
      3 N1         10.8080    2.5530   -1.5269 N.am      1 <0>        -0.6544
      4 H1         11.7018    2.5827   -1.9025 H         1 <0>         0.4157
      5 C3         10.4445    3.4586   -0.5889 C.2       1 <0>         0.5541
      6 O1         11.2187    4.3151   -0.2033 O.2       1 <0>        -0.5194
      7 C4          9.0777    3.3677   -0.0542 C.ar      1 <0>        -0.2041
      8 C5          8.6044    4.2514    0.9136 C.ar      1 <0>        -0.0276
      9 C6          7.3145    4.1207    1.3792 C.ar      1 <0>        -0.1286
     10 C7          6.4876    3.1147    0.8963 C.ar      1 <0>        -0.0507
     11 C8          6.9345    2.2343   -0.0630 C.ar      1 <0>        -0.0992
     12 C9          8.2378    2.3468   -0.5515 C.ar      1 <0>         0.1569
     13 N2          8.7202    1.4988   -1.4941 N.2       1 <0>        -0.5098
     14 C10         6.7981    5.0737    2.4262 C.3       1 <0>         0.1624
     15 N3          6.1861    6.2329    1.7721 N.pl3     1 <0>        -0.5801
     16 C11         6.9998    7.4090    1.4544 C.3       1 <0>         0.0999
     17 C12         4.8379    6.2170    1.4541 C.2       1 <0>         0.1191
     18 C13         4.0888    7.2017    0.8433 C.2       1 <0>        -0.2745
     19 C14         2.7578    6.9738    0.6212 C.2       1 <0>        -0.0340
     20 C15         2.2441    5.7510    1.0309 C.2       1 <0>        -0.2445
     21 S1          3.6794    4.9577    1.7328 S.3       1 <0>         0.1263
     22 C16         0.9186    5.2612    0.9245 C.2       1 <0>         0.6013
     23 O2          0.0538    5.9506    0.4145 O.2       1 <0>        -0.5485
     24 N4          0.6151    4.0324    1.3875 N.am      1 <0>        -0.6859
     25 C17        -0.7552    3.5260    1.2775 C.3       1 <0>         0.1006
     26 H2         -1.2033    3.8884    0.3523 H         1 <0>         0.0870
     27 C18        -0.7345    1.9962    1.2691 C.3       1 <0>        -0.0862
     28 C19        -0.0184    1.5028    0.0103 C.3       1 <0>        -0.1531
     29 C20         0.0021   -0.0041    0.0020 C.2       1 <0>         0.4619
     30 O3         -0.5042   -0.6201    0.9098 O.co2     1 <0>        -0.6390
     31 C21        -1.5658    4.0110    2.4518 C.2       1 <0>         0.4651
     32 O4         -1.0516    4.7080    3.2942 O.co2     1 <0>        -0.6388
     33 H3         10.8333   -0.2486   -2.5072 H         1 <0>         0.0972
     34 H4          9.5388    0.3061   -3.5957 H         1 <0>         0.1058
     35 H5         11.1341    1.0945   -3.6359 H         1 <0>         0.0837
     36 H6          9.2443    5.0328    1.2961 H         1 <0>         0.1350
     37 H7          5.4806    3.0240    1.2757 H         1 <0>         0.1416
     38 H8          6.2812    1.4583   -0.4338 H         1 <0>         0.1499
     39 H9          7.6246    5.4055    3.0547 H         1 <0>         0.0951
     40 H10         6.0536    4.5687    3.0417 H         1 <0>         0.0926
     41 H11         6.9800    8.1025    2.2951 H         1 <0>         0.0543
     42 H12         8.0272    7.0991    1.2632 H         1 <0>         0.0687
     43 H13         6.5977    7.9004    0.5685 H         1 <0>         0.0705
     44 H14         4.5442    8.1348    0.5463 H         1 <0>         0.1271
     45 H15         2.1325    7.7151    0.1461 H         1 <0>         0.1421
     46 H16         1.3039    3.4833    1.7937 H         1 <0>         0.3879
     47 H17        -1.7571    1.6189    1.2768 H         1 <0>         0.0849
     48 H18        -0.2073    1.6351    2.1522 H         1 <0>         0.0569
     49 H19         1.0042    1.8801    0.0026 H         1 <0>         0.0573
     50 H20        -0.5455    1.8639   -0.8728 H         1 <0>         0.0608
     51 O5          0.5827   -0.6618   -1.0138 O.co2     1 <0>        -0.7903
     52 O6         -2.8590    3.6685    2.5619 O.co2     1 <0>        -0.7696
@<TRIPOS>BOND
     1    1    2 1
     2    1   33 1
     3    1   34 1
     4    1   35 1
     5    2   13 2
     6    2    3 1
     7    3    4 1
     8    3    5 am
     9    5    6 2
    10    5    7 1
    11    7   12 ar
    12    7    8 ar
    13    8    9 ar
    14    8   36 1
    15    9   10 ar
    16    9   14 1
    17   10   11 ar
    18   10   37 1
    19   11   12 ar
    20   11   38 1
    21   12   13 1
    22   14   15 1
    23   14   39 1
    24   14   40 1
    25   15   16 1
    26   15   17 1
    27   16   41 1
    28   16   42 1
    29   16   43 1
    30   17   21 1
    31   17   18 2
    32   18   19 1
    33   18   44 1
    34   19   20 2
    35   19   45 1
    36   20   21 1
    37   20   22 1
    38   22   23 2
    39   22   24 am
    40   24   25 1
    41   24   46 1
    42   25   26 1
    43   25   27 1
    44   25   31 1
    45   27   28 1
    46   27   47 1
    47   27   48 1
    48   28   29 1
    49   28   49 1
    50   28   50 1
    51   29   30 2
    52   29   51 1
    53   31   32 2
    54   31   52 1
@<TRIPOS>MOLECULE
ZINC01540998
   50    52     0     0     0
SMALL
USER_CHARGES

@<TRIPOS>ATOM
      1 C1         -0.0167    1.3794    0.0096 C.ar      1 <0>        -0.1237
      2 C2          1.1667    2.0884    0.0021 C.ar      1 <0>        -0.0650
      3 C3          2.3848    1.4070   -0.0132 C.ar      1 <0>        -0.1108
      4 C4          2.3966    0.0113   -0.0208 C.ar      1 <0>        -0.0853
      5 C5          1.2061   -0.6856   -0.0132 C.ar      1 <0>        -0.1248
      6 C6          0.0021   -0.0041    0.0020 C.ar      1 <0>        -0.0756
      7 C7         -1.2946   -0.7719    0.0103 C.3       1 <0>        -0.0645
      8 C8         -1.7472   -1.0241   -1.4293 C.3       1 <0>        -0.0478
      9 C9         -3.0439   -1.7919   -1.4210 C.2       1 <0>        -0.0685
     10 C10        -3.1874   -3.1243   -1.5149 C.2       1 <0>        -0.0065
     11 N1         -4.5200   -3.4490   -1.4711 N.pl3     1 <0>        -0.5467
     12 H1         -4.8743   -4.3505   -1.5209 H         1 <0>         0.4184
     13 C11        -5.2735   -2.3187   -1.3465 C.2       1 <0>         0.3387
     14 C12        -4.3891   -1.2318   -1.3029 C.2       1 <0>        -0.3095
     15 C13        -4.9114    0.0734   -1.1699 C.2       1 <0>         0.5795
     16 O1         -4.1726    1.0423   -1.1322 O.2       1 <0>        -0.5172
     17 N2         -6.2532    0.2199   -1.0861 N.am      1 <0>        -0.6639
     18 H2         -6.6382    1.1055   -0.9942 H         1 <0>         0.4126
     19 C14        -7.0663   -0.8737   -1.1307 C.2       1 <0>         0.6511
     20 N3         -6.5926   -2.0916   -1.2621 N.2       1 <0>        -0.5927
     21 N4         -8.4242   -0.6953   -1.0434 N.pl3     1 <0>        -0.8265
     22 C15         3.6569    2.1603   -0.0218 C.2       1 <0>         0.5510
     23 O2          3.6435    3.3757   -0.0155 O.2       1 <0>        -0.5556
     24 N5          4.8314    1.4994   -0.0366 N.am      1 <0>        -0.6767
     25 C16         6.0919    2.2459   -0.0451 C.3       1 <0>         0.0726
     26 H3          5.9814    3.1523    0.5501 H         1 <0>         0.0776
     27 C17         7.2027    1.3778    0.5494 C.3       1 <0>        -0.0801
     28 C18         6.9032    1.1060    2.0250 C.3       1 <0>        -0.1779
     29 C19         7.9973    0.2510    2.6105 C.2       1 <0>         0.4911
     30 O3          8.9302   -0.1078    1.9123 O.co2     1 <0>        -0.6973
     31 O4          7.9496   -0.0820    3.7824 O.co2     1 <0>        -0.7205
     32 C20         6.4472    2.6155   -1.4622 C.2       1 <0>         0.4957
     33 O5          5.7154    2.2860   -2.3799 O.co2     1 <0>        -0.6965
     34 O6          7.4666    3.2441   -1.6909 O.co2     1 <0>        -0.7009
     35 H4         -0.9598    1.9054    0.0260 H         1 <0>         0.1238
     36 H5          1.1508    3.1682    0.0077 H         1 <0>         0.1319
     37 H6          3.3358   -0.5219   -0.0330 H         1 <0>         0.1274
     38 H7          1.2138   -1.7656   -0.0191 H         1 <0>         0.1227
     39 H8         -1.1489   -1.7256    0.5176 H         1 <0>         0.0683
     40 H9         -2.0557   -0.1941    0.5345 H         1 <0>         0.0708
     41 H10        -1.8929   -0.0704   -1.9367 H         1 <0>         0.0817
     42 H11        -0.9861   -1.6019   -1.9536 H         1 <0>         0.0745
     43 H12        -2.3774   -3.8322   -1.6109 H         1 <0>         0.1800
     44 H13        -8.7912    0.1979   -0.9515 H         1 <0>         0.4143
     45 H14        -9.0171   -1.4624   -1.0735 H         1 <0>         0.4255
     46 H15         4.8421    0.5294   -0.0416 H         1 <0>         0.3891
     47 H16         7.2537    0.4325    0.0090 H         1 <0>         0.0548
     48 H17         8.1565    1.8981    0.4621 H         1 <0>         0.0788
     49 H18         6.8522    2.0513    2.5654 H         1 <0>         0.0521
     50 H19         5.9494    0.5857    2.1123 H         1 <0>         0.0504
@<TRIPOS>BOND
     1    1    6 ar
     2    1    2 ar
     3    1   35 1
     4    2    3 ar
     5    2   36 1
     6    3    4 ar
     7    3   22 1
     8    4    5 ar
     9    4   37 1
    10    5    6 ar
    11    5   38 1
    12    6    7 1
    13    7    8 1
    14    7   39 1
    15    7   40 1
    16    8    9 1
    17    8   41 1
    18    8   42 1
    19    9   14 1
    20    9   10 2
    21   10   11 1
    22   10   43 1
    23   11   12 1
    24   11   13 1
    25   13   20 1
    26   13   14 2
    27   14   15 1
    28   15   16 2
    29   15   17 am
    30   17   18 1
    31   17   19 1
    32   19   20 2
    33   19   21 1
    34   21   44 1
    35   21   45 1
    36   22   23 2
    37   22   24 am
    38   24   25 1
    39   24   46 1
    40   25   26 1
    41   25   27 1
    42   25   32 1
    43   27   28 1
    44   27   47 1
    45   27   48 1
    46   28   29 1
    47   28   49 1
    48   28   50 1
    49   29   30 2
    50   29   31 1
    51   32   33 2
    52   32   34 1
@<TRIPOS>MOLECULE
ZINC01625751
   52    54     0     0     0
SMALL
USER_CHARGES
(2R)-2-[[5-[methyl-[(2-methyl-4-oxo-3H-quinazolin-6-yl)methyl]amino]thiophene-2-carbonyl]amino]pentanedioic acid
@<TRIPOS>ATOM
      1 C1         12.0478   -0.9290    4.2294 C.3       1 <0>        -0.1095
      2 C2         11.6249    0.3793    3.6125 C.2       1 <0>         0.3868
      3 N1         12.5917    1.2304    3.1805 N.am      1 <0>        -0.6544
      4 H1         13.5253    0.9848    3.2748 H         1 <0>         0.4159
      5 C3         12.2640    2.4177    2.6194 C.2       1 <0>         0.5539
      6 O1         13.1199    3.1896    2.2276 O.2       1 <0>        -0.5182
      7 C4         10.8339    2.7386    2.5009 C.ar      1 <0>        -0.2038
      8 C5         10.3907    3.9338    1.9383 C.ar      1 <0>        -0.0269
      9 C6          9.0385    4.1830    1.8518 C.ar      1 <0>        -0.1276
     10 C7          8.1179    3.2568    2.3247 C.ar      1 <0>        -0.0500
     11 C8          8.5350    2.0681    2.8799 C.ar      1 <0>        -0.1004
     12 C9          9.9004    1.7921    2.9779 C.ar      1 <0>         0.1561
     13 N2         10.3553    0.6352    3.5209 N.2       1 <0>        -0.5114
     14 C10         8.5543    5.4744    1.2446 C.3       1 <0>         0.1617
     15 N3          8.3670    5.2960   -0.1974 N.pl3     1 <0>        -0.5802
     16 C11         9.4744    5.5631   -1.1185 C.3       1 <0>         0.0999
     17 C12         7.1426    4.8747   -0.6900 C.2       1 <0>         0.1188
     18 C13         6.7763    4.6515   -2.0014 C.2       1 <0>        -0.2742
     19 C14         5.5007    4.2325   -2.2663 C.2       1 <0>        -0.0342
     20 C15         4.6499    4.0579   -1.1834 C.2       1 <0>        -0.2441
     21 S1          5.6955    4.5059    0.1907 S.3       1 <0>         0.1262
     22 C16         3.2966    3.6377   -1.1727 C.2       1 <0>         0.6012
     23 O2          2.7323    3.3749   -2.2195 O.2       1 <0>        -0.5484
     24 N4          2.6340    3.5287   -0.0041 N.am      1 <0>        -0.6858
     25 C17         1.2350    3.0943    0.0069 C.3       1 <0>         0.1006
     26 H2          0.7272    3.4820   -0.8762 H         1 <0>         0.0869
     27 C18         0.5460    3.6251    1.2656 C.3       1 <0>        -0.0862
     28 C19         0.4949    5.1534    1.2130 C.3       1 <0>        -0.1533
     29 C20        -0.1837    5.6762    2.4529 C.2       1 <0>         0.4618
     30 O3         -0.5853    4.9056    3.2924 O.co2     1 <0>        -0.6388
     31 C21         1.1765    1.5884   -0.0006 C.2       1 <0>         0.4653
     32 O4          2.1986    0.9442   -0.0139 O.co2     1 <0>        -0.6385
     33 H3         12.1727   -0.8003    5.3045 H         1 <0>         0.0971
     34 H4         11.2843   -1.6836    4.0401 H         1 <0>         0.1050
     35 H5         12.9923   -1.2495    3.7896 H         1 <0>         0.0839
     36 H6         11.1020    4.6597    1.5729 H         1 <0>         0.1355
     37 H7          7.0617    3.4704    2.2530 H         1 <0>         0.1420
     38 H8          7.8098    1.3538    3.2408 H         1 <0>         0.1477
     39 H9          9.2913    6.2577    1.4210 H         1 <0>         0.0956
     40 H10         7.6062    5.7579    1.7018 H         1 <0>         0.0933
     41 H11         9.4453    6.6076   -1.4285 H         1 <0>         0.0545
     42 H12        10.4208    5.3590   -0.6177 H         1 <0>         0.0685
     43 H13         9.3812    4.9213   -1.9946 H         1 <0>         0.0705
     44 H14         7.4827    4.8050   -2.8037 H         1 <0>         0.1271
     45 H15         5.1694    4.0450   -3.2770 H         1 <0>         0.1422
     46 H16         3.0835    3.7380    0.8296 H         1 <0>         0.3879
     47 H17        -0.4682    3.2293    1.3191 H         1 <0>         0.0850
     48 H18         1.1058    3.3104    2.1464 H         1 <0>         0.0569
     49 H19         1.5090    5.5492    1.1596 H         1 <0>         0.0574
     50 H20        -0.0649    5.4681    0.3323 H         1 <0>         0.0610
     51 O5         -0.3421    6.9980    2.6245 O.co2     1 <0>        -0.7909
     52 O6         -0.0110    0.9628    0.0073 O.co2     1 <0>        -0.7697
@<TRIPOS>BOND
     1    1    2 1
     2    1   33 1
     3    1   34 1
     4    1   35 1
     5    2   13 2
     6    2    3 1
     7    3    4 1
     8    3    5 am
     9    5    6 2
    10    5    7 1
    11    7   12 ar
    12    7    8 ar
    13    8    9 ar
    14    8   36 1
    15    9   10 ar
    16    9   14 1
    17   10   11 ar
    18   10   37 1
    19   11   12 ar
    20   11   38 1
    21   12   13 1
    22   14   15 1
    23   14   39 1
    24   14   40 1
    25   15   16 1
    26   15   17 1
    27   16   41 1
    28   16   42 1
    29   16   43 1
    30   17   21 1
    31   17   18 2
    32   18   19 1
    33   18   44 1
    34   19   20 2
    35   19   45 1
    36   20   21 1
    37   20   22 1
    38   22   23 2
    39   22   24 am
    40   24   25 1
    41   24   46 1
    42   25   26 1
    43   25   27 1
    44   25   31 1
    45   27   28 1
    46   27   47 1
    47   27   48 1
    48   28   29 1
    49   28   49 1
    50   28   50 1
    51   29   30 2
    52   29   51 1
    53   31   32 2
    54   31   52 1
@<TRIPOS>MOLECULE
ZINC01529898
   31    32     0     0     0
SMALL
USER_CHARGES
[5-(5-fluoro-2,4-dioxo-pyrimidin-1-yl)-3-hydroxy-tetrahydrofuran-2-yl]methoxyphosphonic acid
@<TRIPOS>ATOM
      1 C1          1.7875    2.3961    1.0364 C.2       1 <0>         0.1719
      2 C2          3.0477    2.8817    1.0262 C.2       1 <0>        -0.0939
      3 C3          3.8979    2.5693   -0.0641 C.2       1 <0>         0.5472
      4 O1          5.0384    2.9951   -0.0957 O.2       1 <0>        -0.5055
      5 N1          3.4324    1.7960   -1.0658 N.am      1 <0>        -0.6521
      6 H1          4.0250    1.5745   -1.8402 H         1 <0>         0.4420
      7 C4          2.1737    1.3209   -1.0281 C.2       1 <0>         0.7013
      8 O2          1.7701    0.6207   -1.9366 O.2       1 <0>        -0.5319
      9 N2          1.3539    1.6135   -0.0022 N.am      1 <0>        -0.5173
     10 C5         -0.0127    1.0858    0.0080 C.3       1 <0>         0.3007
     11 H2          0.0021   -0.0041    0.0020 H         1 <0>         0.1134
     12 C6         -0.8044    1.6196   -1.2064 C.3       1 <0>        -0.1862
     13 C7         -2.2297    1.8468   -0.6549 C.3       1 <0>         0.0765
     14 H3         -2.5068    2.8980   -0.7342 H         1 <0>         0.0851
     15 C8         -2.1306    1.4234    0.8274 C.3       1 <0>         0.0900
     16 H4         -2.4425    0.3859    0.9474 H         1 <0>         0.0981
     17 O3         -0.7310    1.5725    1.1626 O.3       1 <0>        -0.3457
     18 C9         -2.9878    2.3407    1.7018 C.3       1 <0>         0.1386
     19 O4         -2.9753    1.8632    3.0486 O.3       1 <0>        -0.7522
     20 P1         -3.7742    2.5883    4.2435 P.3       1 <0>         2.1304
     21 O5         -3.3688    4.0098    4.3167 O.2       1 <0>        -1.1631
     22 O6         -3.1716    1.0257   -1.3483 O.3       1 <0>        -0.5480
     23 F1          3.4918    3.6550    2.0411 F         1 <0>        -0.1014
     24 H5          1.1247    2.6235    1.8582 H         1 <0>         0.2054
     25 H6         -0.3768    2.5585   -1.5583 H         1 <0>         0.0850
     26 H7         -0.8182    0.8810   -2.0079 H         1 <0>         0.1046
     27 H8         -2.5843    3.3528    1.6714 H         1 <0>         0.0459
     28 H9         -4.0117    2.3464    1.3278 H         1 <0>         0.0601
     29 H10        -3.2299    1.2085   -2.2961 H         1 <0>         0.3772
     30 O7         -5.3572    2.4955    3.9646 O.3       1 <0>        -1.1991
     31 O8         -3.4314    1.8600    5.6378 O.3       1 <0>        -1.1771
@<TRIPOS>BOND
     1    1    9 1
     2    1    2 2
     3    1   24 1
     4    2    3 1
     5    2   23 1
     6    3    4 2
     7    3    5 am
     8    5    6 1
     9    5    7 am
    10    7    8 2
    11    7    9 am
    12    9   10 1
    13   10   11 1
    14   10   17 1
    15   10   12 1
    16   12   13 1
    17   12   25 1
    18   12   26 1
    19   13   14 1
    20   13   15 1
    21   13   22 1
    22   15   16 1
    23   15   17 1
    24   15   18 1
    25   18   19 1
    26   18   27 1
    27   18   28 1
    28   19   20 1
    29   20   21 2
    30   20   30 1
    31   20   31 1
    32   22   29 1
@<TRIPOS>MOLECULE
ZINC02043126
   31    32     0     0     0
SMALL
USER_CHARGES
[5-(5-fluoro-2,4-dioxo-pyrimidin-1-yl)-3-hydroxy-tetrahydrofuran-2-yl]methoxyphosphonic acid
@<TRIPOS>ATOM
      1 C1          1.1540    2.0551    0.0021 C.2       1 <0>         0.1669
      2 C2          2.3356    1.4011   -0.0128 C.2       1 <0>        -0.0889
      3 C3          2.3387   -0.0163   -0.0209 C.2       1 <0>         0.5490
      4 O1          3.3915   -0.6284   -0.0343 O.2       1 <0>        -0.5052
      5 N1          1.1654   -0.6806   -0.0132 N.am      1 <0>        -0.6524
      6 H1          1.1596   -1.6806   -0.0188 H         1 <0>         0.4422
      7 C4          0.0021   -0.0041    0.0020 C.2       1 <0>         0.7022
      8 O2         -1.0478   -0.6176    0.0088 O.2       1 <0>        -0.5316
      9 N2         -0.0162    1.3412    0.0094 N.am      1 <0>        -0.5193
     10 C5         -1.2985    2.0495    0.0193 C.3       1 <0>         0.2858
     11 H2         -2.1158    1.3360   -0.0859 H         1 <0>         0.1449
     12 C6         -1.4539    2.8329    1.3406 C.3       1 <0>        -0.1959
     13 C7         -2.1219    4.1518    0.8651 C.3       1 <0>         0.0778
     14 H3         -3.2023    4.0359    0.7785 H         1 <0>         0.0915
     15 C8         -1.4658    4.3285   -0.5274 C.3       1 <0>         0.0803
     16 H4         -0.4849    4.7932   -0.4272 H         1 <0>         0.0912
     17 O3         -1.3380    2.9980   -1.0534 O.3       1 <0>        -0.3356
     18 C9         -2.3629    5.1740   -1.4337 C.3       1 <0>         0.1361
     19 O4         -1.6912    5.4233   -2.6701 O.3       1 <0>        -0.7526
     20 P1         -2.3431    6.2843   -3.8641 P.3       1 <0>         2.1315
     21 O5         -3.6562    5.7071   -4.2286 O.2       1 <0>        -1.1640
     22 O6         -1.7908    5.2384    1.7321 O.3       1 <0>        -0.5404
     23 F1          3.4987    2.0885   -0.0203 F         1 <0>        -0.1036
     24 H5          1.1312    3.1349    0.0078 H         1 <0>         0.1891
     25 H6         -2.1021    2.2980    2.0347 H         1 <0>         0.1008
     26 H7         -0.4812    3.0310    1.7908 H         1 <0>         0.0950
     27 H8         -3.2923    4.6383   -1.6267 H         1 <0>         0.0451
     28 H9         -2.5849    6.1217   -0.9432 H         1 <0>         0.0593
     29 H10        -2.0896    5.1191    2.6440 H         1 <0>         0.3780
     30 O7         -2.5418    7.8072   -3.3810 O.3       1 <0>        -1.1992
     31 O8         -1.3679    6.2505   -5.1447 O.3       1 <0>        -1.1780
@<TRIPOS>BOND
     1    1    9 1
     2    1    2 2
     3    1   24 1
     4    2    3 1
     5    2   23 1
     6    3    4 2
     7    3    5 am
     8    5    6 1
     9    5    7 am
    10    7    8 2
    11    7    9 am
    12    9   10 1
    13   10   11 1
    14   10   17 1
    15   10   12 1
    16   12   13 1
    17   12   25 1
    18   12   26 1
    19   13   14 1
    20   13   15 1
    21   13   22 1
    22   15   16 1
    23   15   17 1
    24   15   18 1
    25   18   19 1
    26   18   27 1
    27   18   28 1
    28   19   20 1
    29   20   21 2
    30   20   30 1
    31   20   31 1
    32   22   29 1
@<TRIPOS>MOLECULE
ZINC03871118
   31    32     0     0     0
SMALL
USER_CHARGES
[5-(5-fluoro-2,4-dioxo-pyrimidin-1-yl)-3-hydroxy-tetrahydrofuran-2-yl]methoxyphosphonic acid
@<TRIPOS>ATOM
      1 C1         -2.6105    1.3245    7.6159 C.2       1 <0>         0.1640
      2 C2         -2.1991    0.5392    8.6349 C.2       1 <0>        -0.0953
      3 C3         -1.1337   -0.3700    8.4174 C.2       1 <0>         0.5470
      4 O1         -0.7417   -1.0850    9.3221 O.2       1 <0>        -0.5143
      5 N1         -0.5579   -0.4359    7.2000 N.am      1 <0>        -0.6544
      6 H1          0.1943   -1.0749    7.0391 H         1 <0>         0.4446
      7 C4         -0.9909    0.3545    6.2004 C.2       1 <0>         0.6678
      8 O2         -0.4617    0.2831    5.1080 O.2       1 <0>        -0.4406
      9 N2         -2.0011    1.2222    6.3922 N.am      1 <0>        -0.5215
     10 C5         -2.4500    2.0698    5.2848 C.3       1 <0>         0.2879
     11 H2         -2.3524    3.1229    5.5483 H         1 <0>         0.1059
     12 C6         -3.9134    1.7413    4.9151 C.3       1 <0>        -0.1991
     13 C7         -3.9501    1.8714    3.3760 C.3       1 <0>         0.0802
     14 H3         -4.6485    2.6523    3.0752 H         1 <0>         0.0806
     15 C8         -2.5045    2.2631    2.9978 C.3       1 <0>         0.0742
     16 H4         -2.4137    3.3457    2.9093 H         1 <0>         0.0918
     17 O3         -1.6931    1.7782    4.0898 O.3       1 <0>        -0.2982
     18 C9         -2.0945    1.5864    1.6883 C.3       1 <0>         0.1509
     19 O4         -0.7716    1.9950    1.3348 O.3       1 <0>        -0.7560
     20 P1         -0.0180    1.4758    0.0102 P.3       1 <0>         2.1381
     21 O5          0.0021   -0.0041    0.0020 O.2       1 <0>        -1.1654
     22 O6         -4.3039    0.6235    2.7763 O.3       1 <0>        -0.5354
     23 F1         -2.7915    0.6229    9.8462 F         1 <0>        -0.1097
     24 H5         -3.4178    2.0265    7.7633 H         1 <0>         0.1853
     25 H6         -4.1652    0.7251    5.2186 H         1 <0>         0.0931
     26 H7         -4.5939    2.4565    5.3773 H         1 <0>         0.0929
     27 H8         -2.7873    1.8749    0.8978 H         1 <0>         0.0491
     28 H9         -2.1187    0.5041    1.8155 H         1 <0>         0.0535
     29 H10        -5.2021    0.3294    2.9808 H         1 <0>         0.3691
     30 O7          1.4924    2.0330   -0.0013 O.3       1 <0>        -1.1822
     31 O8         -0.7967    2.0091   -1.2942 O.3       1 <0>        -1.2041
@<TRIPOS>BOND
     1    1    9 1
     2    1    2 2
     3    1   24 1
     4    2    3 1
     5    2   23 1
     6    3    4 2
     7    3    5 am
     8    5    6 1
     9    5    7 am
    10    7    8 2
    11    7    9 am
    12    9   10 1
    13   10   11 1
    14   10   17 1
    15   10   12 1
    16   12   13 1
    17   12   25 1
    18   12   26 1
    19   13   14 1
    20   13   15 1
    21   13   22 1
    22   15   16 1
    23   15   17 1
    24   15   18 1
    25   18   19 1
    26   18   27 1
    27   18   28 1
    28   19   20 1
    29   20   21 2
    30   20   30 1
    31   20   31 1
    32   22   29 1
@<TRIPOS>MOLECULE
ZINC03871119
   31    32     0     0     0
SMALL
USER_CHARGES
[5-(5-fluoro-2,4-dioxo-pyrimidin-1-yl)-3-hydroxy-tetrahydrofuran-2-yl]methoxyphosphonic acid
@<TRIPOS>ATOM
      1 C1          3.4173    4.2862   -1.8730 C.2       1 <0>         0.1564
      2 C2          4.5996    4.8796   -2.1459 C.2       1 <0>        -0.0873
      3 C3          5.4703    4.2794   -3.0896 C.2       1 <0>         0.5474
      4 O1          6.5397    4.7980   -3.3558 O.2       1 <0>        -0.5056
      5 N1          5.1037    3.1293   -3.6903 N.am      1 <0>        -0.6531
      6 H1          5.7129    2.6998   -4.3569 H         1 <0>         0.4405
      7 C4          3.9216    2.5567   -3.3968 C.2       1 <0>         0.7001
      8 O2          3.6050    1.5197   -3.9473 O.2       1 <0>        -0.5377
      9 N2          3.0853    3.1148   -2.5028 N.am      1 <0>        -0.5293
     10 C5          1.8052    2.4679   -2.2042 C.3       1 <0>         0.2913
     11 H2          1.3291    2.1397   -3.1282 H         1 <0>         0.1387
     12 C6          2.0328    1.2602   -1.2744 C.3       1 <0>        -0.1843
     13 C7          1.2591    1.6240    0.0162 C.3       1 <0>         0.0770
     14 H3          1.8259    1.3393    0.9027 H         1 <0>         0.0857
     15 C8          1.1452    3.1656   -0.0961 C.3       1 <0>         0.0677
     16 H4          2.0653    3.6440    0.2397 H         1 <0>         0.0922
     17 O3          0.9440    3.3856   -1.5097 O.3       1 <0>        -0.3222
     18 C9         -0.0533    3.6772    0.7057 C.3       1 <0>         0.1444
     19 O4         -0.0678    5.1059    0.6815 O.3       1 <0>        -0.7584
     20 P1         -1.1937    5.9841    1.4252 P.3       1 <0>         2.1329
     21 O5         -2.5346    5.5600    0.9640 O.2       1 <0>        -1.1635
     22 O6         -0.0342    1.0163    0.0239 O.3       1 <0>        -0.5355
     23 F1          4.9454    6.0319   -1.5312 F         1 <0>        -0.0994
     24 H5          2.7389    4.7303   -1.1596 H         1 <0>         0.2027
     25 H6          3.0947    1.1378   -1.0610 H         1 <0>         0.0881
     26 H7          1.6254    0.3531   -1.7206 H         1 <0>         0.1036
     27 H8         -0.9746    3.2969    0.2645 H         1 <0>         0.0589
     28 H9          0.0253    3.3320    1.7366 H         1 <0>         0.0544
     29 H10        -0.0145    0.0498    0.0476 H         1 <0>         0.3732
     30 O7         -1.0798    5.7664    3.0164 O.3       1 <0>        -1.2007
     31 O8         -0.9749    7.5412    1.0795 O.3       1 <0>        -1.1781
@<TRIPOS>BOND
     1    1    9 1
     2    1    2 2
     3    1   24 1
     4    2    3 1
     5    2   23 1
     6    3    4 2
     7    3    5 am
     8    5    6 1
     9    5    7 am
    10    7    8 2
    11    7    9 am
    12    9   10 1
    13   10   11 1
    14   10   17 1
    15   10   12 1
    16   12   13 1
    17   12   25 1
    18   12   26 1
    19   13   14 1
    20   13   15 1
    21   13   22 1
    22   15   16 1
    23   15   17 1
    24   15   18 1
    25   18   19 1
    26   18   27 1
    27   18   28 1
    28   19   20 1
    29   20   21 2
    30   20   30 1
    31   20   31 1
    32   22   29 1
@<TRIPOS>MOLECULE
ZINC00001457
   28    29     0     0     0
SMALL
USER_CHARGES

@<TRIPOS>ATOM
      1 C1         -0.0165    1.3666    0.0096 C.2       1 <0>         0.1540
      2 C2          1.1481    2.0506    0.0021 C.2       1 <0>        -0.0745
      3 C3          2.3695    1.3316   -0.0134 C.2       1 <0>         0.5407
      4 O1          3.4324    1.9260   -0.0200 O.2       1 <0>        -0.4871
      5 N1          2.3438   -0.0164   -0.0204 N.am      1 <0>        -0.6467
      6 H1          3.1758   -0.5151   -0.0307 H         1 <0>         0.4412
      7 C4          1.1691   -0.6733   -0.0127 C.2       1 <0>         0.7026
      8 O2          1.1625   -1.8892   -0.0192 O.2       1 <0>        -0.5243
      9 N2          0.0021   -0.0041    0.0020 N.am      1 <0>        -0.5232
     10 C5         -1.2605   -0.7471    0.0106 C.3       1 <0>         0.3138
     11 H2         -1.3282   -1.3764    0.8980 H         1 <0>         0.1197
     12 C6         -1.4003   -1.6005   -1.2757 C.3       1 <0>        -0.1937
     13 C7         -2.9356   -1.7606   -1.3934 C.3       1 <0>         0.0810
     14 H3         -3.2503   -1.6676   -2.4328 H         1 <0>         0.0871
     15 C8         -3.5019   -0.6001   -0.5525 C.3       1 <0>         0.0909
     16 H4         -4.0776   -0.9954    0.2845 H         1 <0>         0.1036
     17 O3         -2.3834    0.1579   -0.0578 O.3       1 <0>        -0.3596
     18 C9         -4.3934    0.2871   -1.4238 C.3       1 <0>         0.0800
     19 O4         -5.0057    1.2908   -0.6117 O.3       1 <0>        -0.5640
     20 O5         -3.3498   -3.0188   -0.8573 O.3       1 <0>        -0.5540
     21 F1          1.1488    3.4016    0.0089 F         1 <0>        -0.0995
     22 H5         -0.9573    1.8966    0.0259 H         1 <0>         0.1974
     23 H6         -0.9970   -1.0715   -2.1392 H         1 <0>         0.0948
     24 H7         -0.9163   -2.5696   -1.1540 H         1 <0>         0.1140
     25 H8         -3.7887    0.7632   -2.1956 H         1 <0>         0.0579
     26 H9         -5.1660   -0.3227   -1.8921 H         1 <0>         0.0696
     27 H10        -5.5863    1.8910   -1.0993 H         1 <0>         0.3867
     28 H11        -2.9750   -3.7839   -1.3149 H         1 <0>         0.3916
@<TRIPOS>BOND
     1    1    9 1
     2    1    2 2
     3    1   22 1
     4    2    3 1
     5    2   21 1
     6    3    4 2
     7    3    5 am
     8    5    6 1
     9    5    7 am
    10    7    8 2
    11    7    9 am
    12    9   10 1
    13   10   11 1
    14   10   17 1
    15   10   12 1
    16   12   13 1
    17   12   23 1
    18   12   24 1
    19   13   14 1
    20   13   15 1
    21   13   20 1
    22   15   16 1
    23   15   17 1
    24   15   18 1
    25   18   19 1
    26   18   25 1
    27   18   26 1
    28   19   27 1
    29   20   28 1
@<TRIPOS>MOLECULE
ZINC00388678
   28    29     0     0     0
SMALL
USER_CHARGES

@<TRIPOS>ATOM
      1 C1         -0.0165    1.3666    0.0096 C.2       1 <0>         0.1458
      2 C2          1.1481    2.0506    0.0021 C.2       1 <0>        -0.0673
      3 C3          2.3695    1.3316   -0.0134 C.2       1 <0>         0.5410
      4 O1          3.4324    1.9260   -0.0200 O.2       1 <0>        -0.4883
      5 N1          2.3438   -0.0164   -0.0204 N.am      1 <0>        -0.6498
      6 H1          3.1758   -0.5151   -0.0307 H         1 <0>         0.4394
      7 C4          1.1691   -0.6733   -0.0127 C.2       1 <0>         0.6963
      8 O2          1.1625   -1.8892   -0.0192 O.2       1 <0>        -0.5114
      9 N2          0.0021   -0.0041    0.0020 N.am      1 <0>        -0.5222
     10 C5         -1.2605   -0.7471    0.0106 C.3       1 <0>         0.3098
     11 H2         -2.1009   -0.0623    0.1242 H         1 <0>         0.1259
     12 C6         -1.4094   -1.5695   -1.2941 C.3       1 <0>        -0.1980
     13 C7         -2.3705   -2.6955   -0.8248 C.3       1 <0>         0.0825
     14 H3         -2.2194   -3.6031   -1.4092 H         1 <0>         0.0932
     15 C8         -1.9357   -2.9073    0.6413 C.3       1 <0>         0.1011
     16 H4         -1.2605   -3.7605    0.7072 H         1 <0>         0.1074
     17 O3         -1.2610   -1.7171    1.0700 O.3       1 <0>        -0.3515
     18 C9         -3.1661   -3.1505    1.5176 C.3       1 <0>         0.0759
     19 O4         -2.7491   -3.4605    2.8488 O.3       1 <0>        -0.5695
     20 O5         -3.7315   -2.2662   -0.8989 O.3       1 <0>        -0.5553
     21 F1          1.1488    3.4016    0.0089 F         1 <0>        -0.0992
     22 H5         -0.9573    1.8966    0.0259 H         1 <0>         0.1921
     23 H6         -1.8614   -0.9719   -2.0858 H         1 <0>         0.1018
     24 H7         -0.4505   -1.9787   -1.6122 H         1 <0>         0.1081
     25 H8         -3.7859   -2.2540    1.5305 H         1 <0>         0.0600
     26 H9         -3.7410   -3.9839    1.1136 H         1 <0>         0.0625
     27 H10        -3.4790   -3.6270    3.4609 H         1 <0>         0.3819
     28 H11        -4.0238   -2.0379   -1.7920 H         1 <0>         0.3880
@<TRIPOS>BOND
     1    1    9 1
     2    1    2 2
     3    1   22 1
     4    2    3 1
     5    2   21 1
     6    3    4 2
     7    3    5 am
     8    5    6 1
     9    5    7 am
    10    7    8 2
    11    7    9 am
    12    9   10 1
    13   10   11 1
    14   10   17 1
    15   10   12 1
    16   12   13 1
    17   12   23 1
    18   12   24 1
    19   13   14 1
    20   13   15 1
    21   13   20 1
    22   15   16 1
    23   15   17 1
    24   15   18 1
    25   18   19 1
    26   18   25 1
    27   18   26 1
    28   19   27 1
    29   20   28 1
@<TRIPOS>MOLECULE
ZINC00489135
   28    29     0     0     0
SMALL
USER_CHARGES

@<TRIPOS>ATOM
      1 C1         -0.0165    1.3666    0.0096 C.2       1 <0>         0.1446
      2 C2          1.1481    2.0506    0.0021 C.2       1 <0>        -0.0663
      3 C3          2.3695    1.3316   -0.0134 C.2       1 <0>         0.5408
      4 O1          3.4324    1.9260   -0.0200 O.2       1 <0>        -0.4882
      5 N1          2.3438   -0.0164   -0.0204 N.am      1 <0>        -0.6497
      6 H1          3.1758   -0.5151   -0.0307 H         1 <0>         0.4396
      7 C4          1.1691   -0.6733   -0.0127 C.2       1 <0>         0.6947
      8 O2          1.1625   -1.8892   -0.0192 O.2       1 <0>        -0.5063
      9 N2          0.0021   -0.0041    0.0020 N.am      1 <0>        -0.5218
     10 C5         -1.2605   -0.7471    0.0106 C.3       1 <0>         0.3067
     11 H2         -2.1009   -0.0623    0.1242 H         1 <0>         0.1260
     12 C6         -1.4094   -1.5695   -1.2941 C.3       1 <0>        -0.2027
     13 C7         -2.3705   -2.6955   -0.8248 C.3       1 <0>         0.0871
     14 H3         -3.4084   -2.3668   -0.8780 H         1 <0>         0.0847
     15 C8         -1.9357   -2.9073    0.6413 C.3       1 <0>         0.0947
     16 H4         -1.2605   -3.7605    0.7072 H         1 <0>         0.1084
     17 O3         -1.2610   -1.7171    1.0700 O.3       1 <0>        -0.3474
     18 C9         -3.1661   -3.1505    1.5176 C.3       1 <0>         0.0697
     19 O4         -2.7491   -3.4605    2.8488 O.3       1 <0>        -0.5626
     20 O5         -2.1757   -3.8839   -1.5940 O.3       1 <0>        -0.5465
     21 F1          1.1488    3.4016    0.0089 F         1 <0>        -0.0991
     22 H5         -0.9573    1.8966    0.0259 H         1 <0>         0.1923
     23 H6         -1.8614   -0.9719   -2.0858 H         1 <0>         0.1012
     24 H7         -0.4505   -1.9787   -1.6122 H         1 <0>         0.1100
     25 H8         -3.7859   -2.2540    1.5305 H         1 <0>         0.0523
     26 H9         -3.7410   -3.9839    1.1136 H         1 <0>         0.0657
     27 H10        -3.4790   -3.6270    3.4609 H         1 <0>         0.3831
     28 H11        -2.3534   -3.7748   -2.5383 H         1 <0>         0.3892
@<TRIPOS>BOND
     1    1    9 1
     2    1    2 2
     3    1   22 1
     4    2    3 1
     5    2   21 1
     6    3    4 2
     7    3    5 am
     8    5    6 1
     9    5    7 am
    10    7    8 2
    11    7    9 am
    12    9   10 1
    13   10   11 1
    14   10   17 1
    15   10   12 1
    16   12   13 1
    17   12   23 1
    18   12   24 1
    19   13   14 1
    20   13   15 1
    21   13   20 1
    22   15   16 1
    23   15   17 1
    24   15   18 1
    25   18   19 1
    26   18   25 1
    27   18   26 1
    28   19   27 1
    29   20   28 1
@<TRIPOS>MOLECULE
ZINC03830846
   28    29     0     0     0
SMALL
USER_CHARGES

@<TRIPOS>ATOM
      1 C1         -0.0165    1.3666    0.0096 C.2       1 <0>         0.1547
      2 C2          1.1481    2.0506    0.0021 C.2       1 <0>        -0.0743
      3 C3          2.3695    1.3316   -0.0134 C.2       1 <0>         0.5407
      4 O1          3.4324    1.9260   -0.0200 O.2       1 <0>        -0.4868
      5 N1          2.3438   -0.0164   -0.0204 N.am      1 <0>        -0.6466
      6 H1          3.1758   -0.5151   -0.0307 H         1 <0>         0.4412
      7 C4          1.1691   -0.6733   -0.0127 C.2       1 <0>         0.7032
      8 O2          1.1625   -1.8892   -0.0192 O.2       1 <0>        -0.5255
      9 N2          0.0021   -0.0041    0.0020 N.am      1 <0>        -0.5222
     10 C5         -1.2605   -0.7471    0.0106 C.3       1 <0>         0.3117
     11 H2         -1.3282   -1.3764    0.8980 H         1 <0>         0.1189
     12 C6         -1.4003   -1.6005   -1.2757 C.3       1 <0>        -0.1963
     13 C7         -2.9356   -1.7606   -1.3934 C.3       1 <0>         0.0820
     14 H3         -3.2518   -2.7194   -0.9824 H         1 <0>         0.0900
     15 C8         -3.5019   -0.6001   -0.5525 C.3       1 <0>         0.0916
     16 H4         -4.0776   -0.9954    0.2845 H         1 <0>         0.1008
     17 O3         -2.3834    0.1579   -0.0578 O.3       1 <0>        -0.3594
     18 C9         -4.3934    0.2871   -1.4238 C.3       1 <0>         0.0884
     19 O4         -5.0057    1.2908   -0.6117 O.3       1 <0>        -0.5725
     20 O5         -3.3478   -1.6417   -2.7565 O.3       1 <0>        -0.5530
     21 F1          1.1488    3.4016    0.0089 F         1 <0>        -0.0993
     22 H5         -0.9573    1.8966    0.0259 H         1 <0>         0.1975
     23 H6         -0.9970   -1.0715   -2.1392 H         1 <0>         0.0971
     24 H7         -0.9163   -2.5696   -1.1540 H         1 <0>         0.1115
     25 H8         -3.7887    0.7632   -2.1956 H         1 <0>         0.0598
     26 H9         -5.1660   -0.3227   -1.8921 H         1 <0>         0.0722
     27 H10        -5.5863    1.8910   -1.0993 H         1 <0>         0.3849
     28 H11        -2.9729   -2.3148   -3.3409 H         1 <0>         0.3895
@<TRIPOS>BOND
     1    1    9 1
     2    1    2 2
     3    1   22 1
     4    2    3 1
     5    2   21 1
     6    3    4 2
     7    3    5 am
     8    5    6 1
     9    5    7 am
    10    7    8 2
    11    7    9 am
    12    9   10 1
    13   10   11 1
    14   10   17 1
    15   10   12 1
    16   12   13 1
    17   12   23 1
    18   12   24 1
    19   13   14 1
    20   13   15 1
    21   13   20 1
    22   15   16 1
    23   15   17 1
    24   15   18 1
    25   18   19 1
    26   18   25 1
    27   18   26 1
    28   19   27 1
    29   20   28 1
@<TRIPOS>MOLECULE
ZINC03875881
   31    32     0     0     0
SMALL
USER_CHARGES
[5-(5-fluoro-2,4-dioxo-pyrimidin-1-yl)-3-hydroxy-tetrahydrofuran-2-yl]methoxyphosphonic acid
@<TRIPOS>ATOM
      1 C1          0.7243   -5.3469    3.2917 C.2       1 <0>         0.1644
      2 C2          0.7188   -5.6672    4.6038 C.2       1 <0>        -0.0923
      3 C3         -0.2114   -5.0320    5.4643 C.2       1 <0>         0.5477
      4 O1         -0.2360   -5.3045    6.6511 O.2       1 <0>        -0.5094
      5 N1         -1.0689   -4.1237    4.9569 N.am      1 <0>        -0.6529
      6 H1         -1.7252   -3.6684    5.5585 H         1 <0>         0.4441
      7 C4         -1.0456   -3.8270    3.6443 C.2       1 <0>         0.6875
      8 O2         -1.8288   -3.0092    3.2009 O.2       1 <0>        -0.4901
      9 N2         -0.1647   -4.4178    2.8168 N.am      1 <0>        -0.5184
     10 C5         -0.1596   -4.0695    1.3938 C.3       1 <0>         0.2949
     11 H2          0.6688   -4.5687    0.8910 H         1 <0>         0.1198
     12 C6         -1.4941   -4.4884    0.7470 C.3       1 <0>        -0.1891
     13 C7         -2.0698   -3.1693    0.1766 C.3       1 <0>         0.0795
     14 H3         -2.7949   -2.7324    0.8632 H         1 <0>         0.0912
     15 C8         -0.8037   -2.2815    0.0707 C.3       1 <0>         0.0954
     16 H4         -0.2474   -2.5089   -0.8386 H         1 <0>         0.0903
     17 O3         -0.0383   -2.6456    1.2395 O.3       1 <0>        -0.3326
     18 C9         -1.1801   -0.7991    0.1135 C.3       1 <0>         0.1407
     19 O4          0.0021   -0.0041    0.0020 O.3       1 <0>        -0.7539
     20 P1         -0.0198    1.6058    0.0109 P.3       1 <0>         2.1336
     21 O5         -0.7125    2.0831    1.2285 O.2       1 <0>        -1.1646
     22 O6         -2.6527   -3.3818   -1.1106 O.3       1 <0>        -0.5475
     23 F1          1.5881   -6.5803    5.0894 F         1 <0>        -0.1077
     24 H5          1.4258   -5.8198    2.6204 H         1 <0>         0.1894
     25 H6         -1.3208   -5.2069   -0.0542 H         1 <0>         0.0987
     26 H7         -2.1668   -4.9058    1.4962 H         1 <0>         0.0843
     27 H8         -1.6790   -0.5780    1.0570 H         1 <0>         0.0464
     28 H9         -1.8511   -0.5706   -0.7146 H         1 <0>         0.0566
     29 H10        -3.4480   -3.9318   -1.0963 H         1 <0>         0.3748
     30 O7          1.4907    2.1630   -0.0006 O.3       1 <0>        -1.1800
     31 O8         -0.7984    2.1391   -1.2935 O.3       1 <0>        -1.2007
@<TRIPOS>BOND
     1    1    9 1
     2    1    2 2
     3    1   24 1
     4    2    3 1
     5    2   23 1
     6    3    4 2
     7    3    5 am
     8    5    6 1
     9    5    7 am
    10    7    8 2
    11    7    9 am
    12    9   10 1
    13   10   11 1
    14   10   17 1
    15   10   12 1
    16   12   13 1
    17   12   25 1
    18   12   26 1
    19   13   14 1
    20   13   15 1
    21   13   22 1
    22   15   16 1
    23   15   17 1
    24   15   18 1
    25   18   19 1
    26   18   27 1
    27   18   28 1
    28   19   20 1
    29   20   21 2
    30   20   30 1
    31   20   31 1
    32   22   29 1
@<TRIPOS>MOLECULE
ZINC03813010
   28    29     0     0     0
SMALL
USER_CHARGES

@<TRIPOS>ATOM
      1 C1         -0.0165    1.3666    0.0096 C.2       1 <0>         0.1448
      2 C2          1.1481    2.0506    0.0021 C.2       1 <0>        -0.0653
      3 C3          2.3695    1.3316   -0.0134 C.2       1 <0>         0.5408
      4 O1          3.4324    1.9260   -0.0200 O.2       1 <0>        -0.4873
      5 N1          2.3438   -0.0164   -0.0204 N.am      1 <0>        -0.6497
      6 H1          3.1758   -0.5151   -0.0307 H         1 <0>         0.4397
      7 C4          1.1691   -0.6733   -0.0127 C.2       1 <0>         0.6963
      8 O2          1.1625   -1.8892   -0.0192 O.2       1 <0>        -0.5089
      9 N2          0.0021   -0.0041    0.0020 N.am      1 <0>        -0.5199
     10 C5         -1.2605   -0.7471    0.0106 C.3       1 <0>         0.3061
     11 H2         -2.1016   -0.0632    0.1241 H         1 <0>         0.1240
     12 C6         -1.4086   -1.5707   -1.2879 C.3       1 <0>        -0.1950
     13 C7         -2.0848   -2.8810   -0.8263 C.3       1 <0>         0.0850
     14 H3         -1.4411   -3.7362   -1.0325 H         1 <0>         0.0847
     15 C8         -2.2652   -2.6941    0.6965 C.3       1 <0>         0.0920
     16 H4         -3.2614   -2.3102    0.9163 H         1 <0>         0.0966
     17 O3         -1.2610   -1.7254    1.0730 O.3       1 <0>        -0.3452
     18 C9         -2.0327   -4.0182    1.4270 C.3       1 <0>         0.0846
     19 O4         -2.3174   -3.8515    2.8174 O.3       1 <0>        -0.5667
     20 O5         -3.3516   -3.0435   -1.4672 O.3       1 <0>        -0.5557
     21 F1          1.1488    3.4016    0.0089 F         1 <0>        -0.0984
     22 H5         -0.9573    1.8966    0.0259 H         1 <0>         0.1931
     23 H6         -2.0417   -1.0456   -2.0031 H         1 <0>         0.1023
     24 H7         -0.4306   -1.7780   -1.7223 H         1 <0>         0.0981
     25 H8         -2.6887   -4.7828    1.0109 H         1 <0>         0.0690
     26 H9         -0.9938   -4.3240    1.3029 H         1 <0>         0.0609
     27 H10        -2.1911   -4.6530    3.3435 H         1 <0>         0.3854
     28 H11        -3.2998   -3.1060   -2.4307 H         1 <0>         0.3888
@<TRIPOS>BOND
     1    1    9 1
     2    1    2 2
     3    1   22 1
     4    2    3 1
     5    2   21 1
     6    3    4 2
     7    3    5 am
     8    5    6 1
     9    5    7 am
    10    7    8 2
    11    7    9 am
    12    9   10 1
    13   10   11 1
    14   10   17 1
    15   10   12 1
    16   12   13 1
    17   12   23 1
    18   12   24 1
    19   13   14 1
    20   13   15 1
    21   13   20 1
    22   15   16 1
    23   15   17 1
    24   15   18 1
    25   18   19 1
    26   18   25 1
    27   18   26 1
    28   19   27 1
    29   20   28 1
