@<TRIPOS>MOLECULE
ZINC03875881
   31    32     0     0     0
SMALL
USER_CHARGES
[5-(5-fluoro-2,4-dioxo-pyrimidin-1-yl)-3-hydroxy-tetrahydrofuran-2-yl]methoxyphosphonic acid
@<TRIPOS>ATOM
      1 C1          0.7243   -5.3469    3.2917 C.2       1 <0>         0.1644
      2 C2          0.7188   -5.6672    4.6038 C.2       1 <0>        -0.0923
      3 C3         -0.2114   -5.0320    5.4643 C.2       1 <0>         0.5477
      4 O1         -0.2360   -5.3045    6.6511 O.2       1 <0>        -0.5094
      5 N1         -1.0689   -4.1237    4.9569 N.am      1 <0>        -0.6529
      6 H1         -1.7252   -3.6684    5.5585 H         1 <0>         0.4441
      7 C4         -1.0456   -3.8270    3.6443 C.2       1 <0>         0.6875
      8 O2         -1.8288   -3.0092    3.2009 O.2       1 <0>        -0.4901
      9 N2         -0.1647   -4.4178    2.8168 N.am      1 <0>        -0.5184
     10 C5         -0.1596   -4.0695    1.3938 C.3       1 <0>         0.2949
     11 H2          0.6688   -4.5687    0.8910 H         1 <0>         0.1198
     12 C6         -1.4941   -4.4884    0.7470 C.3       1 <0>        -0.1891
     13 C7         -2.0698   -3.1693    0.1766 C.3       1 <0>         0.0795
     14 H3         -2.7949   -2.7324    0.8632 H         1 <0>         0.0912
     15 C8         -0.8037   -2.2815    0.0707 C.3       1 <0>         0.0954
     16 H4         -0.2474   -2.5089   -0.8386 H         1 <0>         0.0903
     17 O3         -0.0383   -2.6456    1.2395 O.3       1 <0>        -0.3326
     18 C9         -1.1801   -0.7991    0.1135 C.3       1 <0>         0.1407
     19 O4          0.0021   -0.0041    0.0020 O.3       1 <0>        -0.7539
     20 P1         -0.0198    1.6058    0.0109 P.3       1 <0>         2.1336
     21 O5         -0.7125    2.0831    1.2285 O.2       1 <0>        -1.1646
     22 O6         -2.6527   -3.3818   -1.1106 O.3       1 <0>        -0.5475
     23 F1          1.5881   -6.5803    5.0894 F         1 <0>        -0.1077
     24 H5          1.4258   -5.8198    2.6204 H         1 <0>         0.1894
     25 H6         -1.3208   -5.2069   -0.0542 H         1 <0>         0.0987
     26 H7         -2.1668   -4.9058    1.4962 H         1 <0>         0.0843
     27 H8         -1.6790   -0.5780    1.0570 H         1 <0>         0.0464
     28 H9         -1.8511   -0.5706   -0.7146 H         1 <0>         0.0566
     29 H10        -3.4480   -3.9318   -1.0963 H         1 <0>         0.3748
     30 O7          1.4907    2.1630   -0.0006 O.3       1 <0>        -1.1800
     31 O8         -0.7984    2.1391   -1.2935 O.3       1 <0>        -1.2007
@<TRIPOS>BOND
     1    1    9 1
     2    1    2 2
     3    1   24 1
     4    2    3 1
     5    2   23 1
     6    3    4 2
     7    3    5 am
     8    5    6 1
     9    5    7 am
    10    7    8 2
    11    7    9 am
    12    9   10 1
    13   10   11 1
    14   10   17 1
    15   10   12 1
    16   12   13 1
    17   12   25 1
    18   12   26 1
    19   13   14 1
    20   13   15 1
    21   13   22 1
    22   15   16 1
    23   15   17 1
    24   15   18 1
    25   18   19 1
    26   18   27 1
    27   18   28 1
    28   19   20 1
    29   20   21 2
    30   20   30 1
    31   20   31 1
    32   22   29 1
