@<TRIPOS>MOLECULE
ZINC39047805
   28    30     0     0     0
SMALL
USER_CHARGES

@<TRIPOS>ATOM
      1 C1         -0.0184    1.5028    0.0103 C.3       1 <0>        -0.1304
      2 C2          0.0021   -0.0041    0.0020 C.ar      1 <0>         0.0004
      3 C3          0.0058   -0.6937   -1.2009 C.ar      1 <0>        -0.0938
      4 C4          0.0245   -2.0754   -1.2163 C.ar      1 <0>        -0.0846
      5 C5          0.0393   -2.7915   -0.0291 C.ar      1 <0>        -0.0438
      6 C6          0.0358   -2.1161    1.1804 C.ar      1 <0>        -0.1338
      7 C7          0.0229   -0.7060    1.1961 C.ar      1 <0>        -0.1471
      8 C8          0.0312   -0.3176    2.6221 C.2       1 <0>         0.5798
      9 O1          0.0194    0.8200    3.0469 O.2       1 <0>        -0.4413
     10 N1          0.0535   -1.4351    3.3707 N.am      1 <0>        -0.5211
     11 C9          0.0472   -2.5360    2.5974 C.2       1 <0>         0.5757
     12 O2          0.0640   -3.6828    2.9967 O.2       1 <0>        -0.4397
     13 C10         0.0670   -1.4505    4.7686 C.ar      1 <0>         0.1879
     14 C11         0.0519   -0.2618    5.4967 C.ar      1 <0>        -0.1901
     15 C12         0.0660   -0.3188    6.8746 C.ar      1 <0>         0.1443
     16 N2          0.0938   -1.4788    7.5038 N.ar      1 <0>        -0.4820
     17 C13         0.1088   -2.6261    6.8505 C.ar      1 <0>         0.1970
     18 C14         0.0900   -2.6539    5.4693 C.ar      1 <0>        -0.1783
     19 Cl1         0.1459   -4.1177    7.7378 Cl        1 <0>        -0.0145
     20 H1          1.0042    1.8801    0.0026 H         1 <0>         0.0854
     21 H2         -0.5455    1.8639   -0.8728 H         1 <0>         0.0793
     22 H3         -0.5286    1.8543    0.9071 H         1 <0>         0.0828
     23 H4         -0.0063   -0.1472   -2.1323 H         1 <0>         0.1471
     24 H5          0.0272   -2.6011   -2.1597 H         1 <0>         0.1481
     25 H6          0.0531   -3.8713   -0.0472 H         1 <0>         0.1471
     26 H7          0.0299    0.6909    4.9886 H         1 <0>         0.1727
     27 H8          0.0546    0.5975    7.4462 H         1 <0>         0.1782
     28 H9          0.0977   -3.5955    4.9403 H         1 <0>         0.1748
@<TRIPOS>BOND
     1    1    2 1
     2    1   20 1
     3    1   21 1
     4    1   22 1
     5    2    7 ar
     6    2    3 ar
     7    3    4 ar
     8    3   23 1
     9    4    5 ar
    10    4   24 1
    11    5    6 ar
    12    5   25 1
    13    6   11 1
    14    6    7 ar
    15    7    8 1
    16    8    9 2
    17    8   10 am
    18   10   11 am
    19   10   13 1
    20   11   12 2
    21   13   18 ar
    22   13   14 ar
    23   14   15 ar
    24   14   26 1
    25   15   16 ar
    26   15   27 1
    27   16   17 ar
    28   17   18 ar
    29   17   19 1
    30   18   28 1
@<TRIPOS>MOLECULE
ZINC03831317
   38    41     0     0     0
SMALL
USER_CHARGES

@<TRIPOS>ATOM
      1 C1         -0.0166    1.3756    0.0096 C.ar      1 <0>        -0.1205
      2 C2          1.1685    2.0902    0.0021 C.ar      1 <0>        -0.0738
      3 C3          2.3837    1.4259   -0.0135 C.ar      1 <0>        -0.1060
      4 C4          2.4141    0.0511   -0.0211 C.ar      1 <0>        -0.0809
      5 C5          1.2226   -0.6799   -0.0132 C.ar      1 <0>        -0.1884
      6 C6          0.0021   -0.0041    0.0020 C.ar      1 <0>        -0.0296
      7 C7          1.5769   -2.1110   -0.0238 C.2       1 <0>         0.5250
      8 O1          0.7785   -3.0264   -0.0207 O.2       1 <0>        -0.4400
      9 O2          2.9126   -2.2536   -0.0376 O.3       1 <0>        -0.2998
     10 C8          3.5293   -0.9632   -0.0371 C.3       1 <0>         0.2449
     11 C9          4.3892   -0.8032    1.1901 C.ar      1 <0>        -0.1042
     12 C10         4.5259    0.4399    1.7799 C.ar      1 <0>        -0.0908
     13 C11         5.3140    0.5892    2.9046 C.ar      1 <0>        -0.1433
     14 C12         5.9683   -0.5095    3.4425 C.ar      1 <0>         0.1182
     15 C13         5.8292   -1.7558    2.8492 C.ar      1 <0>        -0.1434
     16 C14         5.0357   -1.9009    1.7276 C.ar      1 <0>        -0.0715
     17 O3          6.7445   -0.3651    4.5487 O.3       1 <0>        -0.4984
     18 C15         4.3652   -0.7908   -1.2790 C.ar      1 <0>        -0.1048
     19 C16         4.4996    0.4602   -1.8523 C.ar      1 <0>        -0.0905
     20 C17         5.2650    0.6208   -2.9911 C.ar      1 <0>        -0.1433
     21 C18         5.8994   -0.4744   -3.5593 C.ar      1 <0>         0.1186
     22 C19         5.7632   -1.7285   -2.9819 C.ar      1 <0>        -0.1434
     23 C20         5.0010   -1.8829   -1.8401 C.ar      1 <0>        -0.0713
     24 O4          6.6525   -0.3191   -4.6798 O.3       1 <0>        -0.4982
     25 H1         -0.9605    1.9002    0.0259 H         1 <0>         0.1415
     26 H2          1.1457    3.1699    0.0081 H         1 <0>         0.1421
     27 H3          3.3064    1.9871   -0.0200 H         1 <0>         0.1416
     28 H4         -0.9246   -0.5588    0.0082 H         1 <0>         0.1404
     29 H5          4.0163    1.2949    1.3607 H         1 <0>         0.1355
     30 H6          5.4210    1.5605    3.3645 H         1 <0>         0.1348
     31 H7          6.3375   -2.6127    3.2661 H         1 <0>         0.1350
     32 H8          4.9236   -2.8717    1.2679 H         1 <0>         0.1350
     33 H9          6.2692   -0.4890    5.3816 H         1 <0>         0.3945
     34 H10         4.0056    1.3125   -1.4097 H         1 <0>         0.1352
     35 H11         5.3691    1.5981   -3.4389 H         1 <0>         0.1349
     36 H12         6.2561   -2.5826   -3.4223 H         1 <0>         0.1351
     37 H13         4.8983   -2.8582   -1.3877 H         1 <0>         0.1349
     38 H14         7.5825   -0.1209   -4.5042 H         1 <0>         0.3945
@<TRIPOS>BOND
     1    1    6 ar
     2    1    2 ar
     3    1   25 1
     4    2    3 ar
     5    2   26 1
     6    3    4 ar
     7    3   27 1
     8    4   10 1
     9    4    5 ar
    10    5    6 ar
    11    5    7 1
    12    6   28 1
    13    7    8 2
    14    7    9 1
    15    9   10 1
    16   10   11 1
    17   10   18 1
    18   11   16 ar
    19   11   12 ar
    20   12   13 ar
    21   12   29 1
    22   13   14 ar
    23   13   30 1
    24   14   15 ar
    25   14   17 1
    26   15   16 ar
    27   15   31 1
    28   16   32 1
    29   17   33 1
    30   18   23 ar
    31   18   19 ar
    32   19   20 ar
    33   19   34 1
    34   20   21 ar
    35   20   35 1
    36   21   22 ar
    37   21   24 1
    38   22   23 ar
    39   22   36 1
    40   23   37 1
    41   24   38 1
