@<TRIPOS>MOLECULE
ZINC00359756
   42    44     0     0     0
SMALL
USER_CHARGES

@<TRIPOS>ATOM
      1 C1         -0.0167    1.3781    0.0096 C.ar      1 <0>        -0.1077
      2 C2          1.1709    2.0855    0.0021 C.ar      1 <0>        -0.1226
      3 C3          2.3773    1.4107   -0.0130 C.ar      1 <0>        -0.0950
      4 C4          2.3960    0.0285   -0.0201 C.ar      1 <0>        -0.0982
      5 C5          1.2084   -0.6789   -0.0117 C.ar      1 <0>        -0.0937
      6 C6          0.0021   -0.0041    0.0020 C.ar      1 <0>        -0.1222
      7 C7          3.7112   -0.7071   -0.0376 C.3       1 <0>         0.1019
      8 O1          4.1410   -0.9464    1.3041 O.3       1 <0>        -0.3002
      9 C8          5.3186   -1.6049    1.4665 C.ar      1 <0>         0.1476
     10 C9          6.0484   -2.0075    0.3573 C.ar      1 <0>        -0.2133
     11 C10         7.2453   -2.6763    0.5250 C.ar      1 <0>        -0.0696
     12 C11         7.7163   -2.9447    1.7972 C.ar      1 <0>        -0.1595
     13 C12         6.9908   -2.5451    2.9040 C.ar      1 <0>        -0.0612
     14 C13         5.7958   -1.8708    2.7416 C.ar      1 <0>        -0.1430
     15 C14         5.0085   -1.4299    3.9486 C.3       1 <0>         0.1786
     16 N1          3.9220   -2.3807    4.1969 N.pl3     1 <0>        -0.7380
     17 C15         3.0494   -2.1807    5.2724 C.ar      1 <0>         0.2147
     18 C16         3.2093   -1.0780    6.1011 C.ar      1 <0>        -0.1832
     19 C17         2.3473   -0.8811    7.1620 C.ar      1 <0>        -0.0941
     20 C18         1.3220   -1.7845    7.3999 C.ar      1 <0>         0.0381
     21 C19         1.1618   -2.8864    6.5730 C.ar      1 <0>        -0.0943
     22 C20         2.0194   -3.0818    5.5082 C.ar      1 <0>        -0.1812
     23 O2          0.4736   -1.5898    8.4449 O.3       1 <0>        -0.4998
     24 H1         -0.9591    1.9053    0.0259 H         1 <0>         0.1251
     25 H2          1.1563    3.1654    0.0076 H         1 <0>         0.1259
     26 H3          3.3051    1.9634   -0.0196 H         1 <0>         0.1235
     27 H4          1.2231   -1.7588   -0.0176 H         1 <0>         0.1228
     28 H5         -0.9258   -0.5567    0.0082 H         1 <0>         0.1256
     29 H6          3.5884   -1.6586   -0.5549 H         1 <0>         0.0715
     30 H7          4.4573   -0.1052   -0.5563 H         1 <0>         0.0718
     31 H8          5.6809   -1.7984   -0.6365 H         1 <0>         0.1294
     32 H9          7.8135   -2.9902   -0.3381 H         1 <0>         0.1270
     33 H10         8.6523   -3.4678    1.9263 H         1 <0>         0.1269
     34 H11         7.3605   -2.7562    3.8966 H         1 <0>         0.1314
     35 H12         5.6655   -1.3938    4.8176 H         1 <0>         0.0664
     36 H13         4.5904   -0.4396    3.7678 H         1 <0>         0.0702
     37 H14         3.8076   -3.1490    3.6158 H         1 <0>         0.3992
     38 H15         4.0078   -0.3747    5.9162 H         1 <0>         0.1236
     39 H16         2.4718   -0.0237    7.8068 H         1 <0>         0.1258
     40 H17         0.3634   -3.5895    6.7591 H         1 <0>         0.1259
     41 H18         1.8915   -3.9373    4.8615 H         1 <0>         0.1222
     42 H19        -0.3071   -1.0634    8.2248 H         1 <0>         0.3817
@<TRIPOS>BOND
     1    1    6 ar
     2    1    2 ar
     3    1   24 1
     4    2    3 ar
     5    2   25 1
     6    3    4 ar
     7    3   26 1
     8    4    5 ar
     9    4    7 1
    10    5    6 ar
    11    5   27 1
    12    6   28 1
    13    7    8 1
    14    7   29 1
    15    7   30 1
    16    8    9 1
    17    9   14 ar
    18    9   10 ar
    19   10   11 ar
    20   10   31 1
    21   11   12 ar
    22   11   32 1
    23   12   13 ar
    24   12   33 1
    25   13   14 ar
    26   13   34 1
    27   14   15 1
    28   15   16 1
    29   15   35 1
    30   15   36 1
    31   16   17 1
    32   16   37 1
    33   17   22 ar
    34   17   18 ar
    35   18   19 ar
    36   18   38 1
    37   19   20 ar
    38   19   39 1
    39   20   21 ar
    40   20   23 1
    41   21   22 ar
    42   21   40 1
    43   22   41 1
    44   23   42 1
