@<TRIPOS>MOLECULE
ZINC13507607
   52    51     0     0     0
SMALL
USER_CHARGES

@<TRIPOS>ATOM
      1 C1         -0.0187    1.5258    0.0104 C.3       1 <0>        -0.1346
      2 C2          0.0021   -0.0041    0.0020 C.3       1 <0>        -0.1222
      3 C3         -1.4333   -0.5336    0.0129 C.3       1 <0>         0.1066
      4 H1         -1.9862   -0.1019   -0.8214 H         1 <0>         0.1290
      5 C4         -1.4159   -2.0348   -0.1192 C.2       1 <0>         0.3310
      6 O1         -1.6393   -2.7282    0.8439 O.2       1 <0>        -0.4048
      7 C5         -1.1198   -2.6704   -1.4531 C.3       1 <0>        -0.1009
      8 Cl1        -1.1719   -4.4651   -1.2884 Cl        1 <0>        -0.1289
      9 N1         -2.0815   -0.1618    1.2729 N.am      1 <0>        -0.7117
     10 C6         -3.4235   -0.0535    1.3341 C.2       1 <0>         0.5149
     11 O2         -4.0945   -0.2639    0.3460 O.2       1 <0>        -0.5199
     12 C7         -4.0903    0.3291    2.6303 C.3       1 <0>         0.1000
     13 N2         -5.5416    0.3788    2.4368 N.am      1 <0>        -0.6963
     14 C8         -6.3481    0.7019    3.4671 C.2       1 <0>         0.5154
     15 O3         -5.8724    0.9515    4.5545 O.2       1 <0>        -0.5292
     16 C9         -7.8411    0.7530    3.2681 C.3       1 <0>         0.0080
     17 H2         -8.1512   -0.0751    2.6309 H         1 <0>         0.1632
     18 C10        -8.2220    2.0778    2.6042 C.3       1 <0>        -0.1132
     19 C11        -9.7191    2.0782    2.2888 C.3       1 <0>        -0.2016
     20 C12       -10.0944    3.3831    1.6349 C.2       1 <0>         0.4888
     21 O4         -9.2432    4.2339    1.4393 O.co2     1 <0>        -0.6902
     22 O5        -11.2491    3.5881    1.3015 O.co2     1 <0>        -0.6795
     23 N3         -8.5126    0.6470    4.5703 N.4       1 <0>        -0.6192
     24 C13         1.4167    2.0553   -0.0004 C.3       1 <0>         0.0927
     25 N4          1.3968    3.5202    0.0076 N.pl3     1 <0>        -0.6964
     26 C14         2.5720    4.2202    0.0002 C.cat     1 <0>         0.7427
     27 N5          2.5540    5.5520    0.0075 N.pl3     1 <0>        -0.7929
     28 N6          3.7344    3.5700   -0.0144 N.pl3     1 <0>        -0.7931
     29 H3         -0.5459    1.8868   -0.8726 H         1 <0>         0.0911
     30 H4         -0.5289    1.8773    0.9072 H         1 <0>         0.0866
     31 H5          0.5123   -0.3556   -0.8948 H         1 <0>         0.1002
     32 H6          0.5293   -0.3651    0.8851 H         1 <0>         0.0895
     33 H7         -1.8649   -2.3506   -2.1814 H         1 <0>         0.1314
     34 H8         -0.1288   -2.3650   -1.7891 H         1 <0>         0.1278
     35 H9         -1.5448    0.0065    2.0632 H         1 <0>         0.4105
     36 H10        -3.8507   -0.4106    3.3943 H         1 <0>         0.1127
     37 H11        -3.7323    1.3084    2.9478 H         1 <0>         0.1111
     38 H12        -5.9221    0.1791    1.5672 H         1 <0>         0.4237
     39 H13        -7.9928    2.9019    3.2798 H         1 <0>         0.0967
     40 H14        -7.6560    2.1972    1.6804 H         1 <0>         0.1141
     41 H15        -9.9484    1.2542    1.6132 H         1 <0>         0.0775
     42 H16       -10.2851    1.9588    3.2127 H         1 <0>         0.0578
     43 H17        -9.5122    0.6812    4.4371 H         1 <0>         0.4452
     44 H18        -8.2614   -0.2267    5.0081 H         1 <0>         0.4334
     45 H19         1.9439    1.6943    0.8826 H         1 <0>         0.0943
     46 H20         1.9269    1.7038   -0.8972 H         1 <0>         0.0956
     47 H21         0.5503    3.9937    0.0183 H         1 <0>         0.4369
     48 H22         1.7074    6.0255    0.0181 H         1 <0>         0.4421
     49 H23         3.7475    2.6001   -0.0198 H         1 <0>         0.4394
     50 H24         4.5677    4.0664   -0.0197 H         1 <0>         0.4417
     51 H25         3.3873    6.0484    0.0022 H         1 <0>         0.4421
     52 H26        -8.2255    1.4136    5.1602 H         1 <0>         0.4408
@<TRIPOS>BOND
     1    1    2 1
     2    1   24 1
     3    1   29 1
     4    1   30 1
     5    2    3 1
     6    2   31 1
     7    2   32 1
     8    3    4 1
     9    3    5 1
    10    3    9 1
    11    5    6 2
    12    5    7 1
    13    7    8 1
    14    7   33 1
    15    7   34 1
    16    9   10 am
    17    9   35 1
    18   10   11 2
    19   10   12 1
    20   12   13 1
    21   12   36 1
    22   12   37 1
    23   13   14 am
    24   13   38 1
    25   14   15 2
    26   14   16 1
    27   16   17 1
    28   16   18 1
    29   16   23 1
    30   18   19 1
    31   18   39 1
    32   18   40 1
    33   19   20 1
    34   19   41 1
    35   19   42 1
    36   20   21 2
    37   20   22 1
    38   23   43 1
    39   23   44 1
    40   23   52 1
    41   24   25 1
    42   24   45 1
    43   24   46 1
    44   25   26 1
    45   25   47 1
    46   26   27 2
    47   26   28 1
    48   27   48 1
    49   27   51 1
    50   28   49 1
    51   28   50 1
