@<TRIPOS>MOLECULE
ZINC03964101
   61    63     0     0     0
SMALL
USER_CHARGES

@<TRIPOS>ATOM
      1 C1         -0.0178    1.4648    0.0101 C.3       1 <0>        -0.0550
      2 N1          0.0021   -0.0041    0.0020 N.4       1 <0>        -0.3861
      3 C2         -1.3761   -0.5125    0.0124 C.3       1 <0>        -0.0483
      4 C3          0.6897   -0.4778   -1.2066 C.3       1 <0>        -0.0066
      5 C4          2.1588   -0.0534   -1.1571 C.3       1 <0>        -0.1540
      6 C5          2.8749   -0.5468   -2.4159 C.3       1 <0>         0.0606
      7 O1          4.2470   -0.1503   -2.3696 O.3       1 <0>        -0.3055
      8 C6          5.0295   -0.5121   -3.4202 C.ar      1 <0>         0.1621
      9 C7          4.4865   -1.2289   -4.4766 C.ar      1 <0>        -0.2076
     10 C8          5.2839   -1.5951   -5.5436 C.ar      1 <0>        -0.0486
     11 C9          6.6223   -1.2482   -5.5590 C.ar      1 <0>        -0.1942
     12 C10         7.1660   -0.5343   -4.5071 C.ar      1 <0>        -0.0477
     13 C11         6.3714   -0.1604   -3.4407 C.ar      1 <0>        -0.1434
     14 C12         7.4900   -1.6494   -6.7240 C.3       1 <0>         0.0527
     15 N2          7.4572   -0.5940   -7.7453 N.4       1 <0>        -0.3935
     16 C13         6.1256   -0.5479   -8.4023 C.3       1 <0>        -0.0035
     17 C14         6.3836    0.1475   -9.7562 C.3       1 <0>        -0.1623
     18 C15         7.8789   -0.0911  -10.0508 C.3       1 <0>         0.1314
     19 H1          8.4080    0.8596  -10.1176 H         1 <0>         0.1289
     20 C16         8.3985   -0.9106   -8.8501 C.3       1 <0>        -0.0126
     21 N3          8.0379   -0.8494  -11.2941 N.am      1 <0>        -0.7277
     22 C17         8.0796   -0.2039  -12.4765 C.2       1 <0>         0.5745
     23 O2          7.9852    1.0075  -12.5113 O.2       1 <0>        -0.5086
     24 C18         8.2399   -0.9690  -13.7307 C.ar      1 <0>        -0.1356
     25 C19         8.3428   -2.3610  -13.6943 C.ar      1 <0>        -0.0711
     26 C20         8.4923   -3.0700  -14.8674 C.ar      1 <0>        -0.1038
     27 C21         8.5411   -2.4043  -16.0810 C.ar      1 <0>        -0.0014
     28 C22         8.4396   -1.0228  -16.1243 C.ar      1 <0>        -0.0402
     29 C23         8.2834   -0.3031  -14.9568 C.ar      1 <0>        -0.0339
     30 Cl1         8.5018   -0.1966  -17.6498 Cl        1 <0>        -0.0217
     31 Cl2         8.7307   -3.3039  -17.5536 Cl        1 <0>        -0.0211
     32 H2          1.0047    1.8421    0.0024 H         1 <0>         0.1243
     33 H3         -0.5450    1.8259   -0.8730 H         1 <0>         0.1241
     34 H4         -0.5280    1.8163    0.9069 H         1 <0>         0.1292
     35 H5         -1.9033   -0.1515   -0.8706 H         1 <0>         0.1236
     36 H6         -1.3613   -1.6024    0.0065 H         1 <0>         0.1253
     37 H7         -1.8863   -0.1610    0.9092 H         1 <0>         0.1292
     38 H8          0.6270   -1.5648   -1.2578 H         1 <0>         0.1353
     39 H9          0.2158   -0.0447   -2.0875 H         1 <0>         0.1338
     40 H10         2.2214    1.0336   -1.1059 H         1 <0>         0.1022
     41 H11         2.6326   -0.4865   -0.2761 H         1 <0>         0.1024
     42 H12         2.8123   -1.6338   -2.4670 H         1 <0>         0.0780
     43 H13         2.4011   -0.1137   -3.2968 H         1 <0>         0.0769
     44 H14         3.4413   -1.5007   -4.4647 H         1 <0>         0.1378
     45 H15         4.8617   -2.1531   -6.3662 H         1 <0>         0.1354
     46 H16         8.2117   -0.2648   -4.5213 H         1 <0>         0.1430
     47 H17         6.7955    0.4011   -2.6214 H         1 <0>         0.1460
     48 H18         8.5149   -1.7919   -6.3815 H         1 <0>         0.1398
     49 H19         7.1170   -2.5802   -7.1513 H         1 <0>         0.1362
     50 H20         5.7443   -1.5568   -8.5598 H         1 <0>         0.1327
     51 H21         5.4259    0.0346   -7.8029 H         1 <0>         0.1337
     52 H22         5.7679   -0.3011  -10.5357 H         1 <0>         0.1176
     53 H23         6.1788    1.2153   -9.6784 H         1 <0>         0.1100
     54 H24         9.4103   -0.6012   -8.5879 H         1 <0>         0.1488
     55 H25         8.3729   -1.9763   -9.0776 H         1 <0>         0.1394
     56 H26         8.1132   -1.8161  -11.2663 H         1 <0>         0.4072
     57 H27         8.3056   -2.8815  -12.7487 H         1 <0>         0.1382
     58 H28         8.5719   -4.1467  -14.8398 H         1 <0>         0.1545
     59 H29         8.1999    0.7731  -14.9914 H         1 <0>         0.1588
     60 H30         7.6817    0.3004   -7.3358 H         1 <0>         0.4308
     61 H31         0.4901   -0.3383    0.8195 H         1 <0>         0.4299
@<TRIPOS>BOND
     1    1    2 1
     2    1   32 1
     3    1   33 1
     4    1   34 1
     5    2    3 1
     6    2    4 1
     7    2   61 1
     8    3   35 1
     9    3   36 1
    10    3   37 1
    11    4    5 1
    12    4   38 1
    13    4   39 1
    14    5    6 1
    15    5   40 1
    16    5   41 1
    17    6    7 1
    18    6   42 1
    19    6   43 1
    20    7    8 1
    21    8   13 ar
    22    8    9 ar
    23    9   10 ar
    24    9   44 1
    25   10   11 ar
    26   10   45 1
    27   11   12 ar
    28   11   14 1
    29   12   13 ar
    30   12   46 1
    31   13   47 1
    32   14   15 1
    33   14   48 1
    34   14   49 1
    35   15   20 1
    36   15   16 1
    37   15   60 1
    38   16   17 1
    39   16   50 1
    40   16   51 1
    41   17   18 1
    42   17   52 1
    43   17   53 1
    44   18   19 1
    45   18   20 1
    46   18   21 1
    47   20   54 1
    48   20   55 1
    49   21   22 am
    50   21   56 1
    51   22   23 2
    52   22   24 1
    53   24   29 ar
    54   24   25 ar
    55   25   26 ar
    56   25   57 1
    57   26   27 ar
    58   26   58 1
    59   27   28 ar
    60   27   31 1
    61   28   29 ar
    62   28   30 1
    63   29   59 1
