@<TRIPOS>MOLECULE
ZINC03138910
   24    24     0     0     0
SMALL
USER_CHARGES
3-(4-bromophenyl)-1,1-dimethyl-thiourea
@<TRIPOS>ATOM
      1 C1          3.5510    1.6326    0.6287 C.3       1 <0>         0.0764
      2 N1          2.2979    0.9273    0.3485 N.pl3     1 <0>        -0.5677
      3 C2          2.3017   -0.5254    0.1587 C.3       1 <0>         0.0540
      4 C3          1.1417    1.6147    0.2652 C.2       1 <0>         0.5510
      5 S1          1.1373    3.3123    0.4869 S.2       1 <0>        -0.6134
      6 N2         -0.0111    0.9658    0.0074 N.pl3     1 <0>        -0.6353
      7 C4         -1.2257    1.6601    0.0335 C.ar      1 <0>         0.1432
      8 C5         -1.4750    2.5883    1.0359 C.ar      1 <0>        -0.0672
      9 C6         -2.6722    3.2766    1.0557 C.ar      1 <0>        -0.0806
     10 C7         -3.6275    3.0335    0.0848 C.ar      1 <0>        -0.0864
     11 C8         -3.3843    2.1047   -0.9115 C.ar      1 <0>        -0.0838
     12 C9         -2.1864    1.4180   -0.9397 C.ar      1 <0>        -0.1196
     13 Br1        -5.2685    3.9726    0.1194 Br        1 <0>        -0.0471
     14 H1          3.7107    1.6755    1.7061 H         1 <0>         0.0742
     15 H2          4.3794    1.1020    0.1595 H         1 <0>         0.0805
     16 H3          3.4952    2.6452    0.2291 H         1 <0>         0.1087
     17 H4          2.4537   -0.7536   -0.8962 H         1 <0>         0.0752
     18 H5          3.1074   -0.9664    0.7456 H         1 <0>         0.0953
     19 H6          1.3468   -0.9370    0.4855 H         1 <0>         0.0738
     20 H7          0.0016    0.0184   -0.2002 H         1 <0>         0.4077
     21 H8         -0.7314    2.7752    1.7965 H         1 <0>         0.1506
     22 H9         -2.8647    4.0021    1.8323 H         1 <0>         0.1390
     23 H10        -4.1318    1.9169   -1.6681 H         1 <0>         0.1384
     24 H11        -1.9968    0.6938   -1.7181 H         1 <0>         0.1331
@<TRIPOS>BOND
     1    1    2 1
     2    1   14 1
     3    1   15 1
     4    1   16 1
     5    2    3 1
     6    2    4 1
     7    3   17 1
     8    3   18 1
     9    3   19 1
    10    4    5 2
    11    4    6 1
    12    6    7 1
    13    6   20 1
    14    7   12 ar
    15    7    8 ar
    16    8    9 ar
    17    8   21 1
    18    9   10 ar
    19    9   22 1
    20   10   11 ar
    21   10   13 1
    22   11   12 ar
    23   11   23 1
    24   12   24 1
