@<TRIPOS>MOLECULE
ZINC13986675
   45    46     0     0     0
SMALL
USER_CHARGES

@<TRIPOS>ATOM
      1 C1          0.8656   -0.3580   -0.9926 C.3       1 <0>        -0.0537
      2 N1         -0.0118   -0.0050    0.1314 N.4       1 <0>        -0.3892
      3 C2         -0.0444    1.4554    0.2873 C.3       1 <0>        -0.0453
      4 C3         -1.3695   -0.4996   -0.1331 C.3       1 <0>        -0.0001
      5 C4         -1.3621   -2.0295   -0.1432 C.3       1 <0>         0.0246
      6 O1         -1.0224   -2.5127    1.1580 O.3       1 <0>        -0.3257
      7 C5         -0.9712   -3.8611    1.3216 C.ar      1 <0>         0.1612
      8 C6         -1.2366   -4.7001    0.2508 C.ar      1 <0>        -0.2578
      9 C7         -1.1831   -6.0765    0.4209 C.ar      1 <0>         0.3223
     10 C8         -0.8637   -6.6096    1.6637 C.ar      1 <0>        -0.2658
     11 C9         -0.5997   -5.7706    2.7289 C.ar      1 <0>        -0.0188
     12 C10        -0.6473   -4.3989    2.5601 C.ar      1 <0>        -0.1562
     13 Cl1        -0.3084   -3.3482    3.8998 Cl        1 <0>        -0.0985
     14 N2         -1.4506   -6.9253   -0.6564 N.2       1 <0>        -1.0751
     15 S1         -1.3865   -8.5675   -0.4524 S.o2      1 <0>         2.5993
     16 O2         -0.0298   -8.8902   -0.1797 O.2       1 <0>        -0.9945
     17 O3         -2.4436   -8.9082    0.4339 O.2       1 <0>        -0.9934
     18 C11        -1.7760   -9.3010   -2.0064 C.ar      1 <0>        -0.5926
     19 C12        -3.0905   -9.5925   -2.3239 C.ar      1 <0>         0.0562
     20 C13        -3.3957  -10.1686   -3.5442 C.ar      1 <0>        -0.0879
     21 C14        -2.3875  -10.4532   -4.4459 C.ar      1 <0>        -0.1242
     22 C15        -1.0740  -10.1621   -4.1293 C.ar      1 <0>        -0.0884
     23 C16        -0.7681   -9.5804   -2.9117 C.ar      1 <0>         0.0561
     24 Cl2         0.8809   -9.2078   -2.5174 Cl        1 <0>         0.0031
     25 C17        -2.7206  -11.0815   -5.7746 C.3       1 <0>         0.5140
     26 F1         -2.9614  -10.0771   -6.7182 F         1 <0>        -0.1691
     27 F2         -1.6471  -11.8721   -6.1987 F         1 <0>        -0.1698
     28 F3         -3.8624  -11.8787   -5.6403 F         1 <0>        -0.1695
     29 Cl3        -4.3567   -9.2363   -1.1910 Cl        1 <0>         0.0048
     30 H1          1.8730    0.0089   -0.7963 H         1 <0>         0.1236
     31 H2          0.8897   -1.4416   -1.1082 H         1 <0>         0.1264
     32 H3          0.4851    0.0966   -1.9073 H         1 <0>         0.1216
     33 H4         -0.6804    1.7164    1.1331 H         1 <0>         0.1224
     34 H5          0.9658    1.8244    0.4649 H         1 <0>         0.1220
     35 H6         -0.4425    1.9089   -0.6204 H         1 <0>         0.1199
     36 H7         -2.0438   -0.1446    0.6463 H         1 <0>         0.1394
     37 H8         -1.7080   -0.1315   -1.1017 H         1 <0>         0.1444
     38 H9         -2.3506   -2.3958   -0.4202 H         1 <0>         0.1092
     39 H10        -0.6274   -2.3845   -0.8658 H         1 <0>         0.0866
     40 H11        -1.4850   -4.2835   -0.7141 H         1 <0>         0.1267
     41 H12        -0.8222   -7.6805    1.7970 H         1 <0>         0.1128
     42 H13        -0.3516   -6.1867    3.6941 H         1 <0>         0.1267
     43 H14        -4.4219  -10.3963   -3.7922 H         1 <0>         0.1580
     44 H15        -0.2866  -10.3850   -4.8341 H         1 <0>         0.1577
     45 H16         0.3404   -0.4258    0.9781 H         1 <0>         0.4365
@<TRIPOS>BOND
     1    1    2 1
     2    1   30 1
     3    1   31 1
     4    1   32 1
     5    2    3 1
     6    2    4 1
     7    2   45 1
     8    3   33 1
     9    3   34 1
    10    3   35 1
    11    4    5 1
    12    4   36 1
    13    4   37 1
    14    5    6 1
    15    5   38 1
    16    5   39 1
    17    6    7 1
    18    7   12 ar
    19    7    8 ar
    20    8    9 ar
    21    8   40 1
    22    9   10 ar
    23    9   14 1
    24   10   11 ar
    25   10   41 1
    26   11   12 ar
    27   11   42 1
    28   12   13 1
    29   14   15 1
    30   15   16 2
    31   15   17 2
    32   15   18 1
    33   18   23 ar
    34   18   19 ar
    35   19   20 ar
    36   19   29 1
    37   20   21 ar
    38   20   43 1
    39   21   22 ar
    40   21   25 1
    41   22   23 ar
    42   22   44 1
    43   23   24 1
    44   25   26 1
    45   25   27 1
    46   25   28 1
