@<TRIPOS>MOLECULE
ZINC34375693
   63    66     0     0     0
SMALL
USER_CHARGES

@<TRIPOS>ATOM
      1 C1         -1.2806    1.1939    0.1734 C.3       1 <0>        -0.1527
      2 C2         -0.6070   -0.1509    0.0795 C.ar      1 <0>         0.2613
      3 C3         -0.6056   -0.8218   -1.1369 C.ar      1 <0>        -0.2032
      4 C4          0.0096   -2.0582   -1.2378 C.ar      1 <0>         0.3299
      5 C5          0.6193   -2.5910   -0.0775 C.ar      1 <0>        -0.1110
      6 C6          1.2629   -3.8364   -0.0978 C.ar      1 <0>        -0.0729
      7 C7          1.8387   -4.3156    1.0401 C.ar      1 <0>        -0.0921
      8 C8          1.7958   -3.5838    2.2244 C.ar      1 <0>        -0.0281
      9 C9          1.1787   -2.3717    2.2784 C.ar      1 <0>        -0.1369
     10 C10         0.5742   -1.8445    1.1241 C.ar      1 <0>         0.1632
     11 N1         -0.0335   -0.6529    1.1477 N.ar      1 <0>        -0.4818
     12 N2          0.0273   -2.7546   -2.4416 N.am      1 <0>        -0.6626
     13 C11        -0.0896   -2.0883   -3.6073 C.2       1 <0>         0.7138
     14 O1         -0.1063   -0.8727   -3.6136 O.2       1 <0>        -0.5386
     15 N3         -0.1879   -2.7696   -4.7660 N.am      1 <0>        -0.7274
     16 C12        -0.3149   -2.0454   -6.0331 C.3       1 <0>         0.1097
     17 C13        -0.4084   -3.0470   -7.1859 C.3       1 <0>        -0.0226
     18 N4         -0.5358   -2.3208   -8.4565 N.4       1 <0>        -0.3781
     19 C14         0.6876   -1.5475   -8.7011 C.3       1 <0>        -0.0110
     20 C15         0.5286   -0.7259   -9.9822 C.3       1 <0>        -0.1315
     21 C16         0.2761   -1.6712  -11.1603 C.3       1 <0>         0.1317
     22 C17        -0.9595   -2.5250  -10.8613 C.3       1 <0>        -0.1780
     23 C18        -0.7453   -3.2799   -9.5476 C.3       1 <0>        -0.0012
     24 C19         0.0373   -0.8528  -12.4308 C.3       1 <0>        -0.1057
     25 C20        -0.3317   -1.7776  -13.5620 C.ar      1 <0>        -0.1065
     26 C21         0.6564   -2.3155  -14.3653 C.ar      1 <0>        -0.1203
     27 C22         0.3179   -3.1638  -15.4030 C.ar      1 <0>        -0.1101
     28 C23        -1.0086   -3.4745  -15.6371 C.ar      1 <0>        -0.1111
     29 C24        -1.9965   -2.9372  -14.8333 C.ar      1 <0>        -0.1140
     30 C25        -1.6578   -2.0923  -13.7929 C.ar      1 <0>        -0.1206
     31 O2          1.4109   -2.5203  -11.3433 O.3       1 <0>        -0.5551
     32 H1         -0.5608    1.9780   -0.0614 H         1 <0>         0.1248
     33 H2         -2.1079    1.2360   -0.5350 H         1 <0>         0.1208
     34 H3         -1.6603    1.3402    1.1846 H         1 <0>         0.1048
     35 H4         -1.0826   -0.3812   -1.9999 H         1 <0>         0.1989
     36 H5          1.3017   -4.4128   -1.0104 H         1 <0>         0.1470
     37 H6          2.3344   -5.2751    1.0237 H         1 <0>         0.1566
     38 H7          2.2591   -3.9845    3.1139 H         1 <0>         0.1608
     39 H8          1.1536   -1.8172    3.2049 H         1 <0>         0.1620
     40 H9          0.1237   -3.7198   -2.4422 H         1 <0>         0.4276
     41 H10        -0.1745   -3.7395   -4.7610 H         1 <0>         0.4130
     42 H11        -1.2150   -1.4310   -6.0118 H         1 <0>         0.0991
     43 H12         0.5572   -1.4074   -6.1760 H         1 <0>         0.0991
     44 H13         0.4917   -3.6615   -7.2073 H         1 <0>         0.1405
     45 H14        -1.2805   -3.6851   -7.0430 H         1 <0>         0.1411
     46 H15         0.8676   -0.8776   -7.8604 H         1 <0>         0.1320
     47 H16         1.5318   -2.2285   -8.8092 H         1 <0>         0.1405
     48 H17        -0.3153   -0.0444   -9.8751 H         1 <0>         0.1037
     49 H18         1.4386   -0.1538  -10.1630 H         1 <0>         0.1241
     50 H19        -1.8342   -1.8808  -10.7725 H         1 <0>         0.0999
     51 H20        -1.1131   -3.2389  -11.6705 H         1 <0>         0.1229
     52 H21         0.1295   -3.9240   -9.6377 H         1 <0>         0.1362
     53 H22        -1.6231   -3.8890   -9.3319 H         1 <0>         0.1329
     54 H23        -0.7744   -0.1456  -12.2602 H         1 <0>         0.0882
     55 H24         0.9457   -0.3081  -12.6883 H         1 <0>         0.0937
     56 H25         1.6927   -2.0728  -14.1824 H         1 <0>         0.1266
     57 H26         1.0898   -3.5835  -16.0310 H         1 <0>         0.1287
     58 H27        -1.2730   -4.1366  -16.4483 H         1 <0>         0.1282
     59 H28        -3.0329   -3.1797  -15.0164 H         1 <0>         0.1267
     60 H29        -2.4294   -1.6755  -13.1626 H         1 <0>         0.1199
     61 H30         1.3198   -3.1463  -12.0746 H         1 <0>         0.3925
     62 H31        -1.3239   -1.6927   -8.4061 H         1 <0>         0.4239
     63 H32        -0.0543   -0.1491    1.9764 H         1 <0>         0.4468
@<TRIPOS>BOND
     1    1    2 1
     2    1   32 1
     3    1   33 1
     4    1   34 1
     5    2   11 ar
     6    2    3 ar
     7    3    4 ar
     8    3   35 1
     9    4    5 ar
    10    4   12 1
    11    5   10 ar
    12    5    6 ar
    13    6    7 ar
    14    6   36 1
    15    7    8 ar
    16    7   37 1
    17    8    9 ar
    18    8   38 1
    19    9   10 ar
    20    9   39 1
    21   10   11 ar
    22   11   63 1
    23   12   13 am
    24   12   40 1
    25   13   14 2
    26   13   15 am
    27   15   16 1
    28   15   41 1
    29   16   17 1
    30   16   42 1
    31   16   43 1
    32   17   18 1
    33   17   44 1
    34   17   45 1
    35   18   23 1
    36   18   19 1
    37   18   62 1
    38   19   20 1
    39   19   46 1
    40   19   47 1
    41   20   21 1
    42   20   48 1
    43   20   49 1
    44   21   22 1
    45   21   24 1
    46   21   31 1
    47   22   23 1
    48   22   50 1
    49   22   51 1
    50   23   52 1
    51   23   53 1
    52   24   25 1
    53   24   54 1
    54   24   55 1
    55   25   30 ar
    56   25   26 ar
    57   26   27 ar
    58   26   56 1
    59   27   28 ar
    60   27   57 1
    61   28   29 ar
    62   28   58 1
    63   29   30 ar
    64   29   59 1
    65   30   60 1
    66   31   61 1
@<TRIPOS>MOLECULE
ZINC34375693
   63    66     0     0     0
SMALL
USER_CHARGES

@<TRIPOS>ATOM
      1 C1         -2.8059   -3.4347    4.7830 C.3       1 <0>        -0.1524
      2 C2         -2.0415   -3.6238    3.4981 C.2       1 <0>         0.2922
      3 C3         -2.5484   -3.1054    2.3583 C.2       1 <0>        -0.2830
      4 C4         -1.8554   -3.2653    1.1374 C.2       1 <0>         0.3772
      5 C5         -0.5832   -4.0062    1.1620 C.ar      1 <0>        -0.1376
      6 C6          0.1645   -4.2090    0.0015 C.ar      1 <0>        -0.0598
      7 C7          1.3407   -4.9020    0.0670 C.ar      1 <0>        -0.1029
      8 C8          1.7969   -5.4052    1.2780 C.ar      1 <0>        -0.0203
      9 C9          1.0743   -5.2162    2.4355 C.ar      1 <0>        -0.1418
     10 C10        -0.1265   -4.5133    2.3919 C.ar      1 <0>         0.1864
     11 N1         -0.8698   -4.3022    3.5310 N.pl3     1 <0>        -0.5435
     12 N2         -2.3387   -2.7612   -0.0017 N.am      1 <0>        -0.6424
     13 C11        -3.5459   -2.1899   -0.0201 C.2       1 <0>         0.7059
     14 O1         -3.6451   -0.9763   -0.0722 O.2       1 <0>        -0.4791
     15 N3         -4.6544   -2.9555    0.0190 N.am      1 <0>        -0.7177
     16 C12        -5.9785   -2.3290   -0.0011 C.3       1 <0>         0.0984
     17 C13        -7.0567   -3.4133    0.0517 C.3       1 <0>        -0.0219
     18 N4         -8.3844   -2.7850    0.0314 N.4       1 <0>        -0.3782
     19 C14        -8.5781   -2.0950   -1.2495 C.3       1 <0>        -0.0118
     20 C15        -9.9261   -1.3710   -1.2445 C.3       1 <0>        -0.1318
     21 C16       -11.0476   -2.3933   -1.0389 C.3       1 <0>         0.1317
     22 C17       -10.7950   -3.1585    0.2633 C.3       1 <0>        -0.1779
     23 C18        -9.4147   -3.8163    0.2024 C.3       1 <0>        -0.0011
     24 C19       -12.3920   -1.6678   -0.9533 C.3       1 <0>        -0.1060
     25 C20       -13.4787   -2.6602   -0.6290 C.ar      1 <0>        -0.1065
     26 C21       -14.1496   -3.3085   -1.6490 C.ar      1 <0>        -0.1201
     27 C22       -15.1464   -4.2188   -1.3515 C.ar      1 <0>        -0.1099
     28 C23       -15.4720   -4.4812   -0.0339 C.ar      1 <0>        -0.1110
     29 C24       -14.8005   -3.8335    0.9862 C.ar      1 <0>        -0.1142
     30 C25       -13.8007   -2.9264    0.6887 C.ar      1 <0>        -0.1208
     31 O2        -11.0662   -3.3093   -2.1355 O.3       1 <0>        -0.5549
     32 H1         -2.2621   -3.9055    5.6020 H         1 <0>         0.0994
     33 H2         -2.9176   -2.3696    4.9860 H         1 <0>         0.1220
     34 H3         -3.7909   -3.8923    4.6905 H         1 <0>         0.1184
     35 H4         -3.4851   -2.5683    2.3802 H         1 <0>         0.1721
     36 H5         -0.1847   -3.8207   -0.9439 H         1 <0>         0.1465
     37 H6          1.9200   -5.0599   -0.8307 H         1 <0>         0.1577
     38 H7          2.7283   -5.9509    1.3128 H         1 <0>         0.1609
     39 H8          1.4376   -5.6118    3.3724 H         1 <0>         0.1602
     40 H9         -4.5755   -3.9214    0.0605 H         1 <0>         0.4150
     41 H10        -6.0823   -1.6711    0.8617 H         1 <0>         0.1028
     42 H11        -6.0917   -1.7482   -0.9165 H         1 <0>         0.1044
     43 H12        -6.9528   -4.0712   -0.8112 H         1 <0>         0.1416
     44 H13        -6.9434   -3.9940    0.9671 H         1 <0>         0.1404
     45 H14        -7.7774   -1.3700   -1.3959 H         1 <0>         0.1325
     46 H15        -8.5603   -2.8233   -2.0603 H         1 <0>         0.1413
     47 H16        -9.9449   -0.6422   -0.4342 H         1 <0>         0.1042
     48 H17       -10.0688   -0.8608   -2.1971 H         1 <0>         0.1251
     49 H18       -10.8318   -2.4669    1.1050 H         1 <0>         0.1000
     50 H19       -11.5587   -3.9261    0.3885 H         1 <0>         0.1231
     51 H20        -9.3791   -4.5079   -0.6393 H         1 <0>         0.1364
     52 H21        -9.2317   -4.3622    1.1280 H         1 <0>         0.1323
     53 H22       -12.3467   -0.9099   -0.1712 H         1 <0>         0.0883
     54 H23       -12.6089   -1.1909   -1.9092 H         1 <0>         0.0941
     55 H24       -13.8951   -3.1035   -2.6784 H         1 <0>         0.1268
     56 H25       -15.6710   -4.7248   -2.1485 H         1 <0>         0.1289
     57 H26       -16.2513   -5.1919    0.1985 H         1 <0>         0.1283
     58 H27       -15.0551   -4.0383    2.0155 H         1 <0>         0.1266
     59 H28       -13.2735   -2.4232    1.4857 H         1 <0>         0.1197
     60 H29       -11.7537   -3.9863   -2.0709 H         1 <0>         0.3926
     61 H30        -8.4506   -2.1167    0.7845 H         1 <0>         0.4239
     62 H31        -0.5484   -4.6508    4.3772 H         1 <0>         0.4438
     63 H32        -1.8128   -2.8101   -0.8153 H         1 <0>         0.4455
@<TRIPOS>BOND
     1    1    2 1
     2    1   32 1
     3    1   33 1
     4    1   34 1
     5    2   11 1
     6    2    3 2
     7    3    4 1
     8    3   35 1
     9    4    5 1
    10    4   12 2
    11    5   10 ar
    12    5    6 ar
    13    6    7 ar
    14    6   36 1
    15    7    8 ar
    16    7   37 1
    17    8    9 ar
    18    8   38 1
    19    9   10 ar
    20    9   39 1
    21   10   11 1
    22   11   62 1
    23   12   13 am
    24   12   63 1
    25   13   14 2
    26   13   15 am
    27   15   16 1
    28   15   40 1
    29   16   17 1
    30   16   41 1
    31   16   42 1
    32   17   18 1
    33   17   43 1
    34   17   44 1
    35   18   23 1
    36   18   19 1
    37   18   61 1
    38   19   20 1
    39   19   45 1
    40   19   46 1
    41   20   21 1
    42   20   47 1
    43   20   48 1
    44   21   22 1
    45   21   24 1
    46   21   31 1
    47   22   23 1
    48   22   49 1
    49   22   50 1
    50   23   51 1
    51   23   52 1
    52   24   25 1
    53   24   53 1
    54   24   54 1
    55   25   30 ar
    56   25   26 ar
    57   26   27 ar
    58   26   55 1
    59   27   28 ar
    60   27   56 1
    61   28   29 ar
    62   28   57 1
    63   29   30 ar
    64   29   58 1
    65   30   59 1
    66   31   60 1
