@<TRIPOS>MOLECULE
ZINC00359757
   45    47     0     0     0
SMALL
USER_CHARGES

@<TRIPOS>ATOM
      1 C1         -0.0166    1.3781    0.0209 C.ar      1 <0>        -0.1100
      2 C2          1.1712    2.0853    0.0286 C.ar      1 <0>        -0.1129
      3 C3          2.3775    1.4105    0.0150 C.ar      1 <0>        -0.1099
      4 C4          2.3962    0.0284   -0.0059 C.ar      1 <0>        -0.0968
      5 C5          1.2085   -0.6788   -0.0127 C.ar      1 <0>        -0.1164
      6 C6          0.0021   -0.0040   -0.0005 C.ar      1 <0>        -0.1144
      7 C7          3.7113   -0.7072   -0.0218 C.3       1 <0>        -0.0531
      8 C8          3.7971   -1.5757   -1.2802 C.3       1 <0>        -0.1373
      9 C9          5.0987   -2.3798   -1.2505 C.3       1 <0>        -0.0148
     10 N1          5.1211   -3.2377   -0.0597 N.4       1 <0>        -0.3775
     11 C10         5.1115   -2.4087    1.1516 C.3       1 <0>        -0.0096
     12 C11         3.8104   -1.6057    1.2144 C.3       1 <0>        -0.1387
     13 C12         6.3355   -4.0641   -0.0761 C.3       1 <0>         0.0362
     14 H1          6.4046   -4.6269    0.8548 H         1 <0>         0.1424
     15 C13         7.5636   -3.1630   -0.2197 C.3       1 <0>        -0.1415
     16 C14         8.8285   -4.0237   -0.2368 C.3       1 <0>        -0.1204
     17 C15         8.7681   -4.9955   -1.4170 C.3       1 <0>        -0.1286
     18 C16         7.5400   -5.8966   -1.2734 C.3       1 <0>        -0.1509
     19 C17         6.2752   -5.0359   -1.2563 C.3       1 <0>         0.0885
     20 H2          6.2061   -4.4731   -2.1872 H         1 <0>         0.0791
     21 O1          5.1281   -5.8774   -1.1222 O.3       1 <0>        -0.5751
     22 H3         -0.9590    1.9052    0.0361 H         1 <0>         0.1276
     23 H4          1.1566    3.1651    0.0449 H         1 <0>         0.1278
     24 H5          3.3054    1.9631    0.0203 H         1 <0>         0.1235
     25 H6          1.2230   -1.7586   -0.0294 H         1 <0>         0.1179
     26 H7         -0.9258   -0.5565   -0.0062 H         1 <0>         0.1264
     27 H8          4.5310    0.0113   -0.0167 H         1 <0>         0.0954
     28 H9          2.9480   -2.2585   -1.3098 H         1 <0>         0.0900
     29 H10         3.7833   -0.9381   -2.1641 H         1 <0>         0.1134
     30 H11         5.1631   -2.9991   -2.1452 H         1 <0>         0.1288
     31 H12         5.9471   -1.6961   -1.2212 H         1 <0>         0.1313
     32 H13         5.1853   -3.0494    2.0303 H         1 <0>         0.1312
     33 H14         5.9596   -1.7244    1.1297 H         1 <0>         0.1297
     34 H15         3.8060   -0.9896    2.1135 H         1 <0>         0.1145
     35 H16         2.9616   -2.2892    1.2366 H         1 <0>         0.0901
     36 H17         7.4945   -2.6002   -1.1506 H         1 <0>         0.0904
     37 H18         7.6066   -2.4707    0.6211 H         1 <0>         0.0943
     38 H19         9.7034   -3.3817   -0.3391 H         1 <0>         0.0885
     39 H20         8.8976   -4.5865    0.6941 H         1 <0>         0.0770
     40 H21         8.6990   -4.4327   -2.3479 H         1 <0>         0.0718
     41 H22         9.6692   -5.6087   -1.4292 H         1 <0>         0.0841
     42 H23         7.4970   -6.5889   -2.1142 H         1 <0>         0.0873
     43 H24         7.6091   -6.4594   -0.3425 H         1 <0>         0.0837
     44 H25         5.0261   -6.5203   -1.8374 H         1 <0>         0.4073
     45 H26         4.3091   -3.8366   -0.0626 H         1 <0>         0.4297
@<TRIPOS>BOND
     1    1    6 ar
     2    1    2 ar
     3    1   22 1
     4    2    3 ar
     5    2   23 1
     6    3    4 ar
     7    3   24 1
     8    4    5 ar
     9    4    7 1
    10    5    6 ar
    11    5   25 1
    12    6   26 1
    13    7   12 1
    14    7    8 1
    15    7   27 1
    16    8    9 1
    17    8   28 1
    18    8   29 1
    19    9   10 1
    20    9   30 1
    21    9   31 1
    22   10   11 1
    23   10   13 1
    24   10   45 1
    25   11   12 1
    26   11   32 1
    27   11   33 1
    28   12   34 1
    29   12   35 1
    30   13   14 1
    31   13   19 1
    32   13   15 1
    33   15   16 1
    34   15   36 1
    35   15   37 1
    36   16   17 1
    37   16   38 1
    38   16   39 1
    39   17   18 1
    40   17   40 1
    41   17   41 1
    42   18   19 1
    43   18   42 1
    44   18   43 1
    45   19   20 1
    46   19   21 1
    47   21   44 1
@<TRIPOS>MOLECULE
ZINC03173766
   45    47     0     0     0
SMALL
USER_CHARGES

@<TRIPOS>ATOM
      1 C1         -0.0167    1.3781    0.0096 C.ar      1 <0>        -0.1101
      2 C2          1.1709    2.0855    0.0021 C.ar      1 <0>        -0.1129
      3 C3          2.3773    1.4107   -0.0130 C.ar      1 <0>        -0.1100
      4 C4          2.3960    0.0285   -0.0201 C.ar      1 <0>        -0.0968
      5 C5          1.2084   -0.6789   -0.0117 C.ar      1 <0>        -0.1164
      6 C6          0.0021   -0.0041    0.0020 C.ar      1 <0>        -0.1144
      7 C7          3.7112   -0.7071   -0.0376 C.3       1 <0>        -0.0534
      8 C8          3.7885   -1.5882   -1.2877 C.3       1 <0>        -0.1374
      9 C9          5.0904   -2.3918   -1.2589 C.3       1 <0>        -0.0102
     10 N1          5.1211   -3.2377   -0.0597 N.4       1 <0>        -0.3783
     11 C10         5.1196   -2.3966    1.1432 C.3       1 <0>        -0.0121
     12 C11         3.8189   -1.5931    1.2068 C.3       1 <0>        -0.1384
     13 C12         6.3355   -4.0641   -0.0761 C.3       1 <0>         0.0361
     14 H1          7.2139   -3.4188   -0.0889 H         1 <0>         0.1440
     15 C13         6.3689   -4.9464    1.1734 C.3       1 <0>        -0.1382
     16 C14         7.6337   -5.8071    1.1563 C.3       1 <0>        -0.1167
     17 C15         7.6322   -6.6912   -0.0924 C.3       1 <0>        -0.1264
     18 C16         7.5988   -5.8089   -1.3419 C.3       1 <0>        -0.1514
     19 C17         6.3339   -4.9482   -1.3248 C.3       1 <0>         0.0884
     20 H2          6.3101   -4.3196   -2.2150 H         1 <0>         0.0794
     21 O1          5.1823   -5.7941   -1.3081 O.3       1 <0>        -0.5695
     22 H3         -0.9591    1.9053    0.0259 H         1 <0>         0.1276
     23 H4          1.1563    3.1654    0.0076 H         1 <0>         0.1278
     24 H5          3.3051    1.9634   -0.0196 H         1 <0>         0.1235
     25 H6          1.2231   -1.7588   -0.0176 H         1 <0>         0.1178
     26 H7         -0.9258   -0.5567    0.0082 H         1 <0>         0.1264
     27 H8          4.5307    0.0115   -0.0454 H         1 <0>         0.0954
     28 H9          2.9394   -2.2714   -1.3046 H         1 <0>         0.0901
     29 H10         3.7685   -0.9595   -2.1779 H         1 <0>         0.1135
     30 H11         5.1488   -3.0201   -2.1477 H         1 <0>         0.1301
     31 H12         5.9388   -1.7078   -1.2423 H         1 <0>         0.1280
     32 H13         5.1996   -3.0283    2.0278 H         1 <0>         0.1337
     33 H14         5.9674   -1.7124    1.1086 H         1 <0>         0.1288
     34 H15         3.8205   -0.9680    2.0997 H         1 <0>         0.1143
     35 H16         2.9704   -2.2764    1.2417 H         1 <0>         0.0898
     36 H17         6.3700   -4.3165    2.0630 H         1 <0>         0.0867
     37 H18         5.4905   -5.5916    1.1862 H         1 <0>         0.0951
     38 H19         8.5121   -5.1618    1.1435 H         1 <0>         0.0726
     39 H20         7.6575   -6.4356    2.0465 H         1 <0>         0.0856
     40 H21         8.5332   -7.3043   -0.1046 H         1 <0>         0.0782
     41 H22         6.7537   -7.3364   -0.0796 H         1 <0>         0.0769
     42 H23         8.4772   -5.1636   -1.3547 H         1 <0>         0.0830
     43 H24         7.5976   -6.4387   -2.2315 H         1 <0>         0.0869
     44 H25         5.1161   -6.3834   -2.0719 H         1 <0>         0.4051
     45 H26         4.3092   -3.8367   -0.0510 H         1 <0>         0.4278
@<TRIPOS>BOND
     1    1    6 ar
     2    1    2 ar
     3    1   22 1
     4    2    3 ar
     5    2   23 1
     6    3    4 ar
     7    3   24 1
     8    4    5 ar
     9    4    7 1
    10    5    6 ar
    11    5   25 1
    12    6   26 1
    13    7   12 1
    14    7    8 1
    15    7   27 1
    16    8    9 1
    17    8   28 1
    18    8   29 1
    19    9   10 1
    20    9   30 1
    21    9   31 1
    22   10   11 1
    23   10   13 1
    24   10   45 1
    25   11   12 1
    26   11   32 1
    27   11   33 1
    28   12   34 1
    29   12   35 1
    30   13   14 1
    31   13   19 1
    32   13   15 1
    33   15   16 1
    34   15   36 1
    35   15   37 1
    36   16   17 1
    37   16   38 1
    38   16   39 1
    39   17   18 1
    40   17   40 1
    41   17   41 1
    42   18   19 1
    43   18   42 1
    44   18   43 1
    45   19   20 1
    46   19   21 1
    47   21   44 1
