@<TRIPOS>MOLECULE
ZINC06579217
   56    59     0     0     0
SMALL
USER_CHARGES

@<TRIPOS>ATOM
      1 C1         -0.8254    0.2051   -0.7628 C.ar      1 <0>        -0.1105
      2 C2         -0.7284   -0.6693   -1.8291 C.ar      1 <0>        -0.1131
      3 C3          0.3730   -1.4963   -1.9469 C.ar      1 <0>        -0.1099
      4 C4          1.3776   -1.4486   -0.9986 C.ar      1 <0>        -0.0957
      5 C5          1.2811   -0.5736    0.0673 C.ar      1 <0>        -0.1162
      6 C6          0.1791    0.2524    0.1858 C.ar      1 <0>        -0.1146
      7 C7          2.5779   -2.3509   -1.1264 C.3       1 <0>        -0.0540
      8 C8          2.6766   -3.2500    0.1094 C.3       1 <0>        -0.1358
      9 C9          3.9404   -4.1070    0.0103 C.3       1 <0>        -0.0152
     10 N1          5.1211   -3.2377   -0.0597 N.4       1 <0>        -0.3735
     11 C10         5.0685   -2.4236   -1.2799 C.3       1 <0>        -0.0120
     12 C11         3.8481   -1.5019   -1.2305 C.3       1 <0>        -0.1376
     13 C12         6.3355   -4.0641   -0.0761 C.3       1 <0>         0.0381
     14 H1          7.2128   -3.4253   -0.1783 H         1 <0>         0.1462
     15 C13         6.2744   -5.0452   -1.2451 C.3       1 <0>        -0.0848
     16 C14         7.3947   -6.0479   -1.1539 C.ar      1 <0>        -0.1233
     17 C15         8.0929   -6.2752    0.0099 C.ar      1 <0>        -0.0439
     18 C16         9.1104   -7.2208    0.0288 C.ar      1 <0>        -0.1486
     19 C17         9.4325   -7.9309   -1.1098 C.ar      1 <0>        -0.0617
     20 C18         8.7378   -7.7027   -2.2817 C.ar      1 <0>        -0.2028
     21 C19         7.7203   -6.7636   -2.3045 C.ar      1 <0>         0.1424
     22 O1          7.0351   -6.5385   -3.4563 O.3       1 <0>        -0.3128
     23 C20         7.4183   -7.3053   -4.5996 C.3       1 <0>         0.0232
     24 C21         6.5416   -6.9163   -5.7917 C.3       1 <0>         0.0662
     25 F1          6.7909   -5.5842   -6.1389 F         1 <0>        -0.2097
     26 C22         7.8068   -5.5276    1.2859 C.3       1 <0>        -0.1099
     27 C23         6.4308   -4.8680    1.2260 C.3       1 <0>         0.0923
     28 H2          5.6561   -5.6346    1.2417 H         1 <0>         0.0871
     29 O2          6.2663   -3.9938    2.3444 O.3       1 <0>        -0.5723
     30 H3         -1.6837    0.8544   -0.6732 H         1 <0>         0.1271
     31 H4         -1.5133   -0.7065   -2.5700 H         1 <0>         0.1274
     32 H5          0.4484   -2.1799   -2.7796 H         1 <0>         0.1235
     33 H6          2.0659   -0.5367    0.8083 H         1 <0>         0.1182
     34 H7          0.1035    0.9357    1.0187 H         1 <0>         0.1261
     35 H8          2.4771   -2.9672   -2.0198 H         1 <0>         0.0956
     36 H9          2.7251   -2.6322    1.0060 H         1 <0>         0.0908
     37 H10         1.8010   -3.8973    0.1594 H         1 <0>         0.1131
     38 H11         4.0137   -4.7485    0.8885 H         1 <0>         0.1301
     39 H12         3.8908   -4.7245   -0.8865 H         1 <0>         0.1307
     40 H13         5.9746   -1.8222   -1.3543 H         1 <0>         0.1321
     41 H14         4.9948   -3.0770   -2.1493 H         1 <0>         0.1310
     42 H15         3.8099   -0.8995   -2.1382 H         1 <0>         0.1147
     43 H16         3.9209   -0.8478   -0.3616 H         1 <0>         0.0903
     44 H17         5.3194   -5.5703   -1.2242 H         1 <0>         0.0980
     45 H18         6.3605   -4.4942   -2.1817 H         1 <0>         0.1076
     46 H19         9.6551   -7.4017    0.9436 H         1 <0>         0.1314
     47 H20        10.2260   -8.6631   -1.0848 H         1 <0>         0.1353
     48 H21         8.9872   -8.2540   -3.1762 H         1 <0>         0.1359
     49 H22         8.4634   -7.1063   -4.8369 H         1 <0>         0.0805
     50 H23         7.2900   -8.3662   -4.3851 H         1 <0>         0.0866
     51 H24         6.7730   -7.5620   -6.6388 H         1 <0>         0.1038
     52 H25         5.4915   -7.0314   -5.5233 H         1 <0>         0.0872
     53 H26         7.8356   -6.2235    2.1244 H         1 <0>         0.1022
     54 H27         8.5667   -4.7597    1.4307 H         1 <0>         0.1018
     55 H28         6.3157   -4.4384    3.2017 H         1 <0>         0.4094
     56 H29         5.1398   -2.6319    0.7470 H         1 <0>         0.4318
@<TRIPOS>BOND
     1    1    6 ar
     2    1    2 ar
     3    1   30 1
     4    2    3 ar
     5    2   31 1
     6    3    4 ar
     7    3   32 1
     8    4    5 ar
     9    4    7 1
    10    5    6 ar
    11    5   33 1
    12    6   34 1
    13    7   12 1
    14    7    8 1
    15    7   35 1
    16    8    9 1
    17    8   36 1
    18    8   37 1
    19    9   10 1
    20    9   38 1
    21    9   39 1
    22   10   11 1
    23   10   13 1
    24   10   56 1
    25   11   12 1
    26   11   40 1
    27   11   41 1
    28   12   42 1
    29   12   43 1
    30   13   14 1
    31   13   27 1
    32   13   15 1
    33   15   16 1
    34   15   44 1
    35   15   45 1
    36   16   21 ar
    37   16   17 ar
    38   17   18 ar
    39   17   26 1
    40   18   19 ar
    41   18   46 1
    42   19   20 ar
    43   19   47 1
    44   20   21 ar
    45   20   48 1
    46   21   22 1
    47   22   23 1
    48   23   24 1
    49   23   49 1
    50   23   50 1
    51   24   25 1
    52   24   51 1
    53   24   52 1
    54   26   27 1
    55   26   53 1
    56   26   54 1
    57   27   28 1
    58   27   29 1
    59   29   55 1
