@<TRIPOS>MOLECULE
ZINC29043262
   70    74     0     0     0
SMALL
USER_CHARGES
2-[(1R)-1-[4-[2-(4-chlorophenoxy)acetyl]piperazin-1-yl]ethyl]-3-(2-ethoxyphenyl)quinazolin-4-one
@<TRIPOS>ATOM
      1 C1          8.9094   13.0971   -3.2086 C.3       1 <0>        -0.1548
      2 C2          8.2319   12.9108   -1.8495 C.3       1 <0>         0.0526
      3 O1          8.2214   11.5231   -1.5087 O.3       1 <0>        -0.3130
      4 C3          7.6511   11.1832   -0.3224 C.ar      1 <0>         0.1462
      5 C4          7.1136   12.1638    0.4962 C.ar      1 <0>        -0.2068
      6 C5          6.5341   11.8165    1.7021 C.ar      1 <0>        -0.0596
      7 C6          6.4885   10.4915    2.0956 C.ar      1 <0>        -0.1497
      8 C7          7.0182    9.5073    1.2833 C.ar      1 <0>        -0.0255
      9 C8          7.6059    9.8484    0.0737 C.ar      1 <0>         0.0733
     10 N1          8.1474    8.8521   -0.7504 N.am      1 <0>        -0.4771
     11 C9          9.4398    8.4817   -0.5941 C.2       1 <0>         0.5506
     12 O2         10.1476    8.9975    0.2515 O.2       1 <0>        -0.4972
     13 C10         9.9558    7.4327   -1.4854 C.ar      1 <0>        -0.1946
     14 C11        11.2713    6.9797   -1.4062 C.ar      1 <0>        -0.0406
     15 C12        11.7025    5.9937   -2.2661 C.ar      1 <0>        -0.1378
     16 C13        10.8383    5.4499   -3.2077 C.ar      1 <0>        -0.0724
     17 C14         9.5352    5.8833   -3.3024 C.ar      1 <0>        -0.1103
     18 C15         9.0742    6.8822   -2.4421 C.ar      1 <0>         0.1545
     19 N2          7.7968    7.3348   -2.4975 N.2       1 <0>        -0.5147
     20 C16         7.3696    8.2665   -1.7001 C.2       1 <0>         0.4198
     21 C17         5.9375    8.7174   -1.8295 C.3       1 <0>         0.1306
     22 H1          5.8851    9.8135   -1.7539 H         1 <0>         0.1093
     23 C18         5.3688    8.2327   -3.1646 C.3       1 <0>        -0.1693
     24 N3          5.1457    8.1555   -0.7271 N.3       1 <0>        -0.5237
     25 C19         3.7695    8.6688   -0.7525 C.3       1 <0>         0.0416
     26 C20         3.0317    8.2053    0.5081 C.3       1 <0>         0.1194
     27 N4          3.1481    6.7424    0.6064 N.am      1 <0>        -0.6101
     28 C21         4.4875    6.1428    0.5079 C.3       1 <0>         0.1089
     29 C22         5.1673    6.6870   -0.7586 C.3       1 <0>         0.0330
     30 C23         2.0570    5.9722    0.7874 C.2       1 <0>         0.5210
     31 O3          0.9607    6.4840    0.8715 O.2       1 <0>        -0.5113
     32 C24         2.1993    4.4752    0.8854 C.3       1 <0>         0.0376
     33 O4          0.9114    3.8857    1.0748 O.3       1 <0>        -0.2853
     34 C25         0.8624    2.5317    1.1833 C.ar      1 <0>         0.1341
     35 C26        -0.3553    1.8934    1.3685 C.ar      1 <0>        -0.1341
     36 C27        -0.4031    0.5172    1.4781 C.ar      1 <0>        -0.0678
     37 C28         0.7625   -0.2246    1.4033 C.ar      1 <0>        -0.0723
     38 C29         1.9781    0.4103    1.2191 C.ar      1 <0>        -0.0678
     39 C30         2.0300    1.7863    1.1095 C.ar      1 <0>        -0.1994
     40 Cl1         0.6999   -1.9540    1.5414 Cl        1 <0>        -0.0677
     41 H2          8.9175   14.1653   -3.4709 H         1 <0>         0.0828
     42 H3          8.3548   12.5356   -3.9748 H         1 <0>         0.0667
     43 H4          9.9430   12.7243   -3.1572 H         1 <0>         0.0666
     44 H5          8.7865   13.4723   -1.0833 H         1 <0>         0.0659
     45 H6          7.1983   13.2836   -1.9009 H         1 <0>         0.0664
     46 H7          7.1473   13.1994    0.1918 H         1 <0>         0.1346
     47 H8          6.1155   12.5820    2.3386 H         1 <0>         0.1311
     48 H9          6.0341   10.2250    3.0384 H         1 <0>         0.1317
     49 H10         6.9775    8.4729    1.5913 H         1 <0>         0.1304
     50 H11        11.9479    7.3987   -0.6761 H         1 <0>         0.1372
     51 H12        12.7213    5.6402   -2.2075 H         1 <0>         0.1340
     52 H13        11.1932    4.6776   -3.8740 H         1 <0>         0.1349
     53 H14         8.8723    5.4527   -4.0384 H         1 <0>         0.1393
     54 H15         4.3235    8.5619   -3.2590 H         1 <0>         0.0646
     55 H16         5.4124    7.1343   -3.2046 H         1 <0>         0.0783
     56 H17         5.9617    8.6535   -3.9901 H         1 <0>         0.0709
     57 H18         3.7888    9.7682   -0.7842 H         1 <0>         0.0936
     58 H19         3.2515    8.2853   -1.6439 H         1 <0>         0.0510
     59 H20         3.4841    8.6779    1.3924 H         1 <0>         0.0815
     60 H21         1.9724    8.4936    0.4399 H         1 <0>         0.1017
     61 H22         5.0760    6.4119    1.3974 H         1 <0>         0.0830
     62 H23         4.3957    5.0484    0.4464 H         1 <0>         0.0877
     63 H24         4.6274    6.3314   -1.6486 H         1 <0>         0.0558
     64 H25         6.2092    6.3363   -0.7974 H         1 <0>         0.0887
     65 H26         2.6471    4.0880   -0.0417 H         1 <0>         0.0959
     66 H27         2.8468    4.2235    1.7383 H         1 <0>         0.0966
     67 H28        -1.2658    2.4717    1.4225 H         1 <0>         0.1436
     68 H29        -1.3508    0.0199    1.6227 H         1 <0>         0.1427
     69 H30         2.8869   -0.1704    1.1613 H         1 <0>         0.1378
     70 H31         2.9790    2.2815    0.9657 H         1 <0>         0.1359
@<TRIPOS>BOND
     1    1    2 1
     2    1   41 1
     3    1   42 1
     4    1   43 1
     5    2    3 1
     6    2   44 1
     7    2   45 1
     8    3    4 1
     9    4    9 ar
    10    4    5 ar
    11    5    6 ar
    12    5   46 1
    13    6    7 ar
    14    6   47 1
    15    7    8 ar
    16    7   48 1
    17    8    9 ar
    18    8   49 1
    19    9   10 1
    20   10   20 1
    21   10   11 am
    22   11   12 2
    23   11   13 1
    24   13   18 ar
    25   13   14 ar
    26   14   15 ar
    27   14   50 1
    28   15   16 ar
    29   15   51 1
    30   16   17 ar
    31   16   52 1
    32   17   18 ar
    33   17   53 1
    34   18   19 1
    35   19   20 2
    36   20   21 1
    37   21   22 1
    38   21   23 1
    39   21   24 1
    40   23   54 1
    41   23   55 1
    42   23   56 1
    43   24   29 1
    44   24   25 1
    45   25   26 1
    46   25   57 1
    47   25   58 1
    48   26   27 1
    49   26   59 1
    50   26   60 1
    51   27   28 1
    52   27   30 am
    53   28   29 1
    54   28   61 1
    55   28   62 1
    56   29   63 1
    57   29   64 1
    58   30   31 2
    59   30   32 1
    60   32   33 1
    61   32   65 1
    62   32   66 1
    63   33   34 1
    64   34   39 ar
    65   34   35 ar
    66   35   36 ar
    67   35   67 1
    68   36   37 ar
    69   36   68 1
    70   37   38 ar
    71   37   40 1
    72   38   39 ar
    73   38   69 1
    74   39   70 1
@<TRIPOS>MOLECULE
ZINC29043262
   71    75     0     0     0
SMALL
USER_CHARGES
2-[(1R)-1-[4-[2-(4-chlorophenoxy)acetyl]piperazin-1-yl]ethyl]-3-(2-ethoxyphenyl)quinazolin-4-one
@<TRIPOS>ATOM
      1 C1          8.9094   13.0971   -3.2086 C.3       1 <0>        -0.1573
      2 C2          8.2319   12.9108   -1.8495 C.3       1 <0>         0.0482
      3 O1          8.2214   11.5231   -1.5087 O.3       1 <0>        -0.3074
      4 C3          7.6511   11.1832   -0.3224 C.ar      1 <0>         0.1565
      5 C4          7.1136   12.1638    0.4962 C.ar      1 <0>        -0.1852
      6 C5          6.5341   11.8165    1.7021 C.ar      1 <0>        -0.0486
      7 C6          6.4885   10.4915    2.0956 C.ar      1 <0>        -0.1328
      8 C7          7.0182    9.5073    1.2833 C.ar      1 <0>        -0.1138
      9 C8          7.6059    9.8484    0.0737 C.ar      1 <0>         0.0367
     10 N1          8.1474    8.8521   -0.7504 N.am      1 <0>        -0.4884
     11 C9          9.4398    8.4817   -0.5941 C.2       1 <0>         0.5525
     12 O2         10.1476    8.9975    0.2515 O.2       1 <0>        -0.4722
     13 C10         9.9558    7.4327   -1.4854 C.ar      1 <0>        -0.1707
     14 C11        11.2713    6.9797   -1.4062 C.ar      1 <0>        -0.0455
     15 C12        11.7025    5.9937   -2.2661 C.ar      1 <0>        -0.1074
     16 C13        10.8383    5.4499   -3.2077 C.ar      1 <0>        -0.0719
     17 C14         9.5352    5.8833   -3.3024 C.ar      1 <0>        -0.0868
     18 C15         9.0742    6.8822   -2.4421 C.ar      1 <0>         0.1198
     19 N2          7.7968    7.3348   -2.4975 N.2       1 <0>        -0.4582
     20 C16         7.3696    8.2665   -1.7001 C.2       1 <0>         0.3382
     21 C17         5.9375    8.7174   -1.8295 C.3       1 <0>         0.0948
     22 H1          5.8851    9.8135   -1.7539 H         1 <0>         0.1533
     23 C18         5.3688    8.2327   -3.1646 C.3       1 <0>        -0.1660
     24 N3          5.1457    8.1555   -0.7271 N.4       1 <0>        -0.4054
     25 C19         3.7695    8.6688   -0.7525 C.3       1 <0>        -0.0230
     26 C20         3.0317    8.2053    0.5081 C.3       1 <0>         0.0899
     27 N4          3.1481    6.7424    0.6064 N.am      1 <0>        -0.6299
     28 C21         4.4875    6.1428    0.5079 C.3       1 <0>         0.0819
     29 C22         5.1673    6.6870   -0.7586 C.3       1 <0>        -0.0297
     30 C23         2.0570    5.9722    0.7874 C.2       1 <0>         0.5278
     31 O3          0.9607    6.4840    0.8715 O.2       1 <0>        -0.4793
     32 C24         2.1993    4.4752    0.8854 C.3       1 <0>         0.0356
     33 O4          0.9114    3.8857    1.0748 O.3       1 <0>        -0.2854
     34 C25         0.8624    2.5317    1.1833 C.ar      1 <0>         0.1259
     35 C26        -0.3553    1.8934    1.3685 C.ar      1 <0>        -0.1289
     36 C27        -0.4031    0.5172    1.4781 C.ar      1 <0>        -0.0657
     37 C28         0.7625   -0.2246    1.4033 C.ar      1 <0>        -0.0668
     38 C29         1.9781    0.4103    1.2191 C.ar      1 <0>        -0.0689
     39 C30         2.0300    1.7863    1.1095 C.ar      1 <0>        -0.1990
     40 Cl1         0.6999   -1.9540    1.5414 Cl        1 <0>        -0.0587
     41 H2          8.9175   14.1653   -3.4709 H         1 <0>         0.0903
     42 H3          8.3548   12.5356   -3.9748 H         1 <0>         0.0680
     43 H4          9.9430   12.7243   -3.1572 H         1 <0>         0.0699
     44 H5          8.7865   13.4723   -1.0833 H         1 <0>         0.0736
     45 H6          7.1983   13.2836   -1.9009 H         1 <0>         0.0723
     46 H7          7.1473   13.1994    0.1918 H         1 <0>         0.1492
     47 H8          6.1155   12.5820    2.3386 H         1 <0>         0.1473
     48 H9          6.0341   10.2250    3.0384 H         1 <0>         0.1477
     49 H10         6.9775    8.4729    1.5913 H         1 <0>         0.1384
     50 H11        11.9479    7.3987   -0.6761 H         1 <0>         0.1454
     51 H12        12.7213    5.6402   -2.2075 H         1 <0>         0.1446
     52 H13        11.1932    4.6776   -3.8740 H         1 <0>         0.1453
     53 H14         8.8723    5.4527   -4.0384 H         1 <0>         0.1471
     54 H15         4.3235    8.5619   -3.2590 H         1 <0>         0.0892
     55 H16         5.4124    7.1343   -3.2046 H         1 <0>         0.0991
     56 H17         5.9617    8.6535   -3.9901 H         1 <0>         0.1125
     57 H18         3.7888    9.7682   -0.7842 H         1 <0>         0.1481
     58 H19         3.2515    8.2853   -1.6439 H         1 <0>         0.1430
     59 H20         3.4841    8.6779    1.3924 H         1 <0>         0.0998
     60 H21         1.9724    8.4936    0.4399 H         1 <0>         0.1453
     61 H22         5.0760    6.4119    1.3974 H         1 <0>         0.1018
     62 H23         4.3957    5.0484    0.4464 H         1 <0>         0.1331
     63 H24         4.6274    6.3314   -1.6486 H         1 <0>         0.1472
     64 H25         6.2092    6.3363   -0.7974 H         1 <0>         0.1404
     65 H26         2.6471    4.0880   -0.0417 H         1 <0>         0.0998
     66 H27         2.8468    4.2235    1.7383 H         1 <0>         0.1016
     67 H28        -1.2658    2.4717    1.4225 H         1 <0>         0.1451
     68 H29        -1.3508    0.0199    1.6227 H         1 <0>         0.1462
     69 H30         2.8869   -0.1704    1.1613 H         1 <0>         0.1396
     70 H31         2.9790    2.2815    0.9657 H         1 <0>         0.1329
     71 H32         5.6052    8.4766    0.2194 H         1 <0>         0.4277
@<TRIPOS>BOND
     1    1    2 1
     2    1   41 1
     3    1   42 1
     4    1   43 1
     5    2    3 1
     6    2   44 1
     7    2   45 1
     8    3    4 1
     9    4    9 ar
    10    4    5 ar
    11    5    6 ar
    12    5   46 1
    13    6    7 ar
    14    6   47 1
    15    7    8 ar
    16    7   48 1
    17    8    9 ar
    18    8   49 1
    19    9   10 1
    20   10   20 1
    21   10   11 am
    22   11   12 2
    23   11   13 1
    24   13   18 ar
    25   13   14 ar
    26   14   15 ar
    27   14   50 1
    28   15   16 ar
    29   15   51 1
    30   16   17 ar
    31   16   52 1
    32   17   18 ar
    33   17   53 1
    34   18   19 1
    35   19   20 2
    36   20   21 1
    37   21   22 1
    38   21   23 1
    39   21   24 1
    40   23   54 1
    41   23   55 1
    42   23   56 1
    43   24   29 1
    44   24   25 1
    45   24   71 1
    46   25   26 1
    47   25   57 1
    48   25   58 1
    49   26   27 1
    50   26   59 1
    51   26   60 1
    52   27   28 1
    53   27   30 am
    54   28   29 1
    55   28   61 1
    56   28   62 1
    57   29   63 1
    58   29   64 1
    59   30   31 2
    60   30   32 1
    61   32   33 1
    62   32   65 1
    63   32   66 1
    64   33   34 1
    65   34   39 ar
    66   34   35 ar
    67   35   36 ar
    68   35   67 1
    69   36   37 ar
    70   36   68 1
    71   37   38 ar
    72   37   40 1
    73   38   39 ar
    74   38   69 1
    75   39   70 1
@<TRIPOS>MOLECULE
ZINC29043264
   70    74     0     0     0
SMALL
USER_CHARGES
2-[(1S)-1-[4-[2-(4-chlorophenoxy)acetyl]piperazin-1-yl]ethyl]-3-(2-ethoxyphenyl)quinazolin-4-one
@<TRIPOS>ATOM
      1 C1         -0.0831   -3.3226    1.7537 C.3       1 <0>        -0.1548
      2 C2         -0.8330   -4.2367    0.7826 C.3       1 <0>         0.0509
      3 O1         -2.0854   -3.6408    0.4383 O.3       1 <0>        -0.3076
      4 C3         -2.8807   -4.3296   -0.4226 C.ar      1 <0>         0.1555
      5 C4         -2.4650   -5.5524   -0.9252 C.ar      1 <0>        -0.2005
      6 C5         -3.2749   -6.2516   -1.8002 C.ar      1 <0>        -0.0593
      7 C6         -4.5011   -5.7346   -2.1767 C.ar      1 <0>        -0.1465
      8 C7         -4.9229   -4.5160   -1.6805 C.ar      1 <0>        -0.0662
      9 C8         -4.1180   -3.8108   -0.7974 C.ar      1 <0>         0.0654
     10 N1         -4.5466   -2.5774   -0.2874 N.am      1 <0>        -0.4869
     11 C9         -5.1609   -2.5268    0.9176 C.2       1 <0>         0.5530
     12 O2         -5.3518   -3.5349    1.5728 O.2       1 <0>        -0.4973
     13 C10        -5.5891   -1.2075    1.4042 C.ar      1 <0>        -0.1952
     14 C11        -6.2295   -1.0468    2.6315 C.ar      1 <0>        -0.0418
     15 C12        -6.6092    0.2131    3.0391 C.ar      1 <0>        -0.1370
     16 C13        -6.3591    1.3200    2.2382 C.ar      1 <0>        -0.0733
     17 C14        -5.7283    1.1829    1.0224 C.ar      1 <0>        -0.1061
     18 C15        -5.3331   -0.0838    0.5871 C.ar      1 <0>         0.1502
     19 N2         -4.7082   -0.2641   -0.6031 N.2       1 <0>        -0.4835
     20 C16        -4.3363   -1.4415   -1.0053 C.2       1 <0>         0.4038
     21 C17        -3.6423   -1.5559   -2.3381 C.3       1 <0>         0.1354
     22 H1         -3.8014   -2.5615   -2.7546 H         1 <0>         0.0692
     23 C18        -2.1504   -1.2654   -2.1628 C.3       1 <0>        -0.1457
     24 N3         -4.2228   -0.5869   -3.2772 N.3       1 <0>        -0.5110
     25 C19        -5.6651   -0.8122   -3.4416 C.3       1 <0>         0.0389
     26 C20        -6.2635    0.3220   -4.2805 C.3       1 <0>         0.1113
     27 N4         -5.5033    0.4263   -5.5353 N.am      1 <0>        -0.6104
     28 C21        -4.0375    0.5169   -5.4554 C.3       1 <0>         0.1193
     29 C22        -3.5267   -0.6249   -4.5702 C.3       1 <0>         0.0372
     30 C23        -6.1332    0.4379   -6.7268 C.2       1 <0>         0.5203
     31 O3         -5.4905    0.5241   -7.7516 O.2       1 <0>        -0.5125
     32 C24        -7.6361    0.3440   -6.7855 C.3       1 <0>         0.0378
     33 O4         -8.0625    0.3763   -8.1490 O.3       1 <0>        -0.2852
     34 C25        -9.3999    0.3005   -8.3794 C.ar      1 <0>         0.1343
     35 C26       -10.2828    0.1913   -7.3150 C.ar      1 <0>        -0.1997
     36 C27       -11.6420    0.1192   -7.5509 C.ar      1 <0>        -0.0679
     37 C28       -12.1223    0.1451   -8.8482 C.ar      1 <0>        -0.0725
     38 C29       -11.2429    0.2486   -9.9114 C.ar      1 <0>        -0.0678
     39 C30        -9.8833    0.3263   -9.6794 C.ar      1 <0>        -0.1342
     40 Cl1       -13.8305    0.0483   -9.1424 Cl        1 <0>        -0.0679
     41 H2          0.8809   -3.7813    2.0187 H         1 <0>         0.0835
     42 H3         -0.6848   -3.1821    2.6637 H         1 <0>         0.0672
     43 H4          0.0937   -2.3473    1.2768 H         1 <0>         0.0677
     44 H5         -0.2313   -4.3772   -0.1274 H         1 <0>         0.0675
     45 H6         -1.0098   -5.2121    1.2595 H         1 <0>         0.0667
     46 H7         -1.5082   -5.9591   -0.6330 H         1 <0>         0.1388
     47 H8         -2.9495   -7.2045   -2.1906 H         1 <0>         0.1354
     48 H9         -5.1309   -6.2849   -2.8600 H         1 <0>         0.1358
     49 H10        -5.8811   -4.1148   -1.9760 H         1 <0>         0.1317
     50 H11        -6.4269   -1.9038    3.2583 H         1 <0>         0.1365
     51 H12        -7.1053    0.3413    3.9898 H         1 <0>         0.1339
     52 H13        -6.6637    2.3004    2.5735 H         1 <0>         0.1351
     53 H14        -5.5398    2.0510    0.4080 H         1 <0>         0.1411
     54 H15        -1.6438   -1.3489   -3.1356 H         1 <0>         0.0750
     55 H16        -1.7157   -1.9910   -1.4596 H         1 <0>         0.0672
     56 H17        -2.0191   -0.2474   -1.7672 H         1 <0>         0.0815
     57 H18        -5.8304   -1.7731   -3.9509 H         1 <0>         0.0389
     58 H19        -6.1479   -0.8331   -2.4535 H         1 <0>         0.0880
     59 H20        -7.3185    0.0996   -4.4984 H         1 <0>         0.0854
     60 H21        -6.1959    1.2668   -3.7212 H         1 <0>         0.0906
     61 H22        -3.6092    0.4295   -6.4648 H         1 <0>         0.1014
     62 H23        -3.7532    1.4858   -5.0191 H         1 <0>         0.0835
     63 H24        -2.4450   -0.5087   -4.4078 H         1 <0>         0.1006
     64 H25        -3.7220   -1.5884   -5.0636 H         1 <0>         0.0427
     65 H26        -7.9630   -0.5982   -6.3213 H         1 <0>         0.0948
     66 H27        -8.0780    1.1927   -6.2429 H         1 <0>         0.0974
     67 H28        -9.9081    0.1670   -6.3024 H         1 <0>         0.1360
     68 H29       -12.3300    0.0384   -6.7223 H         1 <0>         0.1376
     69 H30       -11.6196    0.2691  -10.9234 H         1 <0>         0.1427
     70 H31        -9.1972    0.4074  -10.5095 H         1 <0>         0.1437
@<TRIPOS>BOND
     1    1    2 1
     2    1   41 1
     3    1   42 1
     4    1   43 1
     5    2    3 1
     6    2   44 1
     7    2   45 1
     8    3    4 1
     9    4    9 ar
    10    4    5 ar
    11    5    6 ar
    12    5   46 1
    13    6    7 ar
    14    6   47 1
    15    7    8 ar
    16    7   48 1
    17    8    9 ar
    18    8   49 1
    19    9   10 1
    20   10   20 1
    21   10   11 am
    22   11   12 2
    23   11   13 1
    24   13   18 ar
    25   13   14 ar
    26   14   15 ar
    27   14   50 1
    28   15   16 ar
    29   15   51 1
    30   16   17 ar
    31   16   52 1
    32   17   18 ar
    33   17   53 1
    34   18   19 1
    35   19   20 2
    36   20   21 1
    37   21   22 1
    38   21   23 1
    39   21   24 1
    40   23   54 1
    41   23   55 1
    42   23   56 1
    43   24   29 1
    44   24   25 1
    45   25   26 1
    46   25   57 1
    47   25   58 1
    48   26   27 1
    49   26   59 1
    50   26   60 1
    51   27   28 1
    52   27   30 am
    53   28   29 1
    54   28   61 1
    55   28   62 1
    56   29   63 1
    57   29   64 1
    58   30   31 2
    59   30   32 1
    60   32   33 1
    61   32   65 1
    62   32   66 1
    63   33   34 1
    64   34   39 ar
    65   34   35 ar
    66   35   36 ar
    67   35   67 1
    68   36   37 ar
    69   36   68 1
    70   37   38 ar
    71   37   40 1
    72   38   39 ar
    73   38   69 1
    74   39   70 1
@<TRIPOS>MOLECULE
ZINC29043264
   71    75     0     0     0
SMALL
USER_CHARGES
2-[(1S)-1-[4-[2-(4-chlorophenoxy)acetyl]piperazin-1-yl]ethyl]-3-(2-ethoxyphenyl)quinazolin-4-one
@<TRIPOS>ATOM
      1 C1         -0.0831   -3.3226    1.7537 C.3       1 <0>        -0.1561
      2 C2         -0.8330   -4.2367    0.7826 C.3       1 <0>         0.0490
      3 O1         -2.0854   -3.6408    0.4383 O.3       1 <0>        -0.3111
      4 C3         -2.8807   -4.3296   -0.4226 C.ar      1 <0>         0.1587
      5 C4         -2.4650   -5.5524   -0.9252 C.ar      1 <0>        -0.1959
      6 C5         -3.2749   -6.2516   -1.8002 C.ar      1 <0>        -0.0476
      7 C6         -4.5011   -5.7346   -2.1767 C.ar      1 <0>        -0.1428
      8 C7         -4.9229   -4.5160   -1.6805 C.ar      1 <0>        -0.0722
      9 C8         -4.1180   -3.8108   -0.7974 C.ar      1 <0>         0.0341
     10 N1         -4.5466   -2.5774   -0.2874 N.am      1 <0>        -0.4725
     11 C9         -5.1609   -2.5268    0.9176 C.2       1 <0>         0.5524
     12 O2         -5.3518   -3.5349    1.5728 O.2       1 <0>        -0.4695
     13 C10        -5.5891   -1.2075    1.4042 C.ar      1 <0>        -0.1744
     14 C11        -6.2295   -1.0468    2.6315 C.ar      1 <0>        -0.0420
     15 C12        -6.6092    0.2131    3.0391 C.ar      1 <0>        -0.1127
     16 C13        -6.3591    1.3200    2.2382 C.ar      1 <0>        -0.0695
     17 C14        -5.7283    1.1829    1.0224 C.ar      1 <0>        -0.0965
     18 C15        -5.3331   -0.0838    0.5871 C.ar      1 <0>         0.1325
     19 N2         -4.7082   -0.2641   -0.6031 N.2       1 <0>        -0.5133
     20 C16        -4.3363   -1.4415   -1.0053 C.2       1 <0>         0.3648
     21 C17        -3.6423   -1.5559   -2.3381 C.3       1 <0>         0.0915
     22 H1         -3.8014   -2.5615   -2.7546 H         1 <0>         0.1548
     23 C18        -2.1504   -1.2654   -2.1628 C.3       1 <0>        -0.1811
     24 N3         -4.2228   -0.5869   -3.2772 N.4       1 <0>        -0.3931
     25 C19        -5.6651   -0.8122   -3.4416 C.3       1 <0>        -0.0232
     26 C20        -6.2635    0.3220   -4.2805 C.3       1 <0>         0.0856
     27 N4         -5.5033    0.4263   -5.5353 N.am      1 <0>        -0.6307
     28 C21        -4.0375    0.5169   -5.4554 C.3       1 <0>         0.0908
     29 C22        -3.5267   -0.6249   -4.5702 C.3       1 <0>        -0.0232
     30 C23        -6.1332    0.4379   -6.7268 C.2       1 <0>         0.5271
     31 O3         -5.4905    0.5241   -7.7516 O.2       1 <0>        -0.4808
     32 C24        -7.6361    0.3440   -6.7855 C.3       1 <0>         0.0362
     33 O4         -8.0625    0.3763   -8.1490 O.3       1 <0>        -0.2858
     34 C25        -9.3999    0.3005   -8.3794 C.ar      1 <0>         0.1261
     35 C26       -10.2828    0.1913   -7.3150 C.ar      1 <0>        -0.1991
     36 C27       -11.6420    0.1192   -7.5509 C.ar      1 <0>        -0.0690
     37 C28       -12.1223    0.1451   -8.8482 C.ar      1 <0>        -0.0668
     38 C29       -11.2429    0.2486   -9.9114 C.ar      1 <0>        -0.0657
     39 C30        -9.8833    0.3263   -9.6794 C.ar      1 <0>        -0.1290
     40 Cl1       -13.8305    0.0483   -9.1424 Cl        1 <0>        -0.0587
     41 H2          0.8809   -3.7813    2.0187 H         1 <0>         0.0887
     42 H3         -0.6848   -3.1821    2.6637 H         1 <0>         0.0691
     43 H4          0.0937   -2.3473    1.2768 H         1 <0>         0.0662
     44 H5         -0.2313   -4.3772   -0.1274 H         1 <0>         0.0707
     45 H6         -1.0098   -5.2121    1.2595 H         1 <0>         0.0720
     46 H7         -1.5082   -5.9591   -0.6330 H         1 <0>         0.1444
     47 H8         -2.9495   -7.2045   -2.1906 H         1 <0>         0.1419
     48 H9         -5.1309   -6.2849   -2.8600 H         1 <0>         0.1416
     49 H10        -5.8811   -4.1148   -1.9760 H         1 <0>         0.1342
     50 H11        -6.4269   -1.9038    3.2583 H         1 <0>         0.1448
     51 H12        -7.1053    0.3413    3.9898 H         1 <0>         0.1436
     52 H13        -6.6637    2.3004    2.5735 H         1 <0>         0.1438
     53 H14        -5.5398    2.0510    0.4080 H         1 <0>         0.1442
     54 H15        -1.6438   -1.3489   -3.1356 H         1 <0>         0.1010
     55 H16        -1.7157   -1.9910   -1.4596 H         1 <0>         0.1113
     56 H17        -2.0191   -0.2474   -1.7672 H         1 <0>         0.0983
     57 H18        -5.8304   -1.7731   -3.9509 H         1 <0>         0.1334
     58 H19        -6.1479   -0.8331   -2.4535 H         1 <0>         0.1400
     59 H20        -7.3185    0.0996   -4.4984 H         1 <0>         0.1286
     60 H21        -6.1959    1.2668   -3.7212 H         1 <0>         0.1090
     61 H22        -3.6092    0.4295   -6.4648 H         1 <0>         0.1426
     62 H23        -3.7532    1.4858   -5.0191 H         1 <0>         0.1029
     63 H24        -2.4450   -0.5087   -4.4078 H         1 <0>         0.1528
     64 H25        -3.7220   -1.5884   -5.0636 H         1 <0>         0.1360
     65 H26        -7.9630   -0.5982   -6.3213 H         1 <0>         0.0980
     66 H27        -8.0780    1.1927   -6.2429 H         1 <0>         0.1019
     67 H28        -9.9081    0.1670   -6.3024 H         1 <0>         0.1328
     68 H29       -12.3300    0.0384   -6.7223 H         1 <0>         0.1395
     69 H30       -11.6196    0.2691  -10.9234 H         1 <0>         0.1462
     70 H31        -9.1972    0.4074  -10.5095 H         1 <0>         0.1452
     71 H32        -4.0875    0.4194   -2.8540 H         1 <0>         0.4536
@<TRIPOS>BOND
     1    1    2 1
     2    1   41 1
     3    1   42 1
     4    1   43 1
     5    2    3 1
     6    2   44 1
     7    2   45 1
     8    3    4 1
     9    4    9 ar
    10    4    5 ar
    11    5    6 ar
    12    5   46 1
    13    6    7 ar
    14    6   47 1
    15    7    8 ar
    16    7   48 1
    17    8    9 ar
    18    8   49 1
    19    9   10 1
    20   10   20 1
    21   10   11 am
    22   11   12 2
    23   11   13 1
    24   13   18 ar
    25   13   14 ar
    26   14   15 ar
    27   14   50 1
    28   15   16 ar
    29   15   51 1
    30   16   17 ar
    31   16   52 1
    32   17   18 ar
    33   17   53 1
    34   18   19 1
    35   19   20 2
    36   20   21 1
    37   21   22 1
    38   21   23 1
    39   21   24 1
    40   23   54 1
    41   23   55 1
    42   23   56 1
    43   24   29 1
    44   24   25 1
    45   24   71 1
    46   25   26 1
    47   25   57 1
    48   25   58 1
    49   26   27 1
    50   26   59 1
    51   26   60 1
    52   27   28 1
    53   27   30 am
    54   28   29 1
    55   28   61 1
    56   28   62 1
    57   29   63 1
    58   29   64 1
    59   30   31 2
    60   30   32 1
    61   32   33 1
    62   32   65 1
    63   32   66 1
    64   33   34 1
    65   34   39 ar
    66   34   35 ar
    67   35   36 ar
    68   35   67 1
    69   36   37 ar
    70   36   68 1
    71   37   38 ar
    72   37   40 1
    73   38   39 ar
    74   38   69 1
    75   39   70 1
