@<TRIPOS>MOLECULE
ZINC03600392
   30    31     0     0     0
SMALL
USER_CHARGES
2-(4-phenylphenyl)sulfonylacetic acid
@<TRIPOS>ATOM
      1 C1          0.0396   -2.7722   -0.0142 C.ar      1 <0>        -0.1168
      2 C2         -1.1689   -2.0996    0.0015 C.ar      1 <0>        -0.1196
      3 C3         -1.1935   -0.7196    0.0096 C.ar      1 <0>        -0.1054
      4 C4          0.0021   -0.0041    0.0020 C.ar      1 <0>        -0.0522
      5 C5          1.2166   -0.6868   -0.0191 C.ar      1 <0>        -0.1053
      6 C6          1.2295   -2.0669   -0.0217 C.ar      1 <0>        -0.1196
      7 C7         -0.0180    1.4797    0.0102 C.ar      1 <0>        -0.0035
      8 C8         -1.2326    2.1624    0.0196 C.ar      1 <0>        -0.1340
      9 C9         -1.2455    3.5425    0.0316 C.ar      1 <0>        -0.0211
     10 C10        -0.0556    4.2478    0.0244 C.ar      1 <0>        -0.6603
     11 C11         1.1530    3.5752    0.0098 C.ar      1 <0>        -0.0211
     12 C12         1.1775    2.1952    0.0026 C.ar      1 <0>        -0.1340
     13 S1         -0.0795    6.0097    0.0335 S.o2      1 <0>         2.5193
     14 O1         -1.3132    6.3524    0.6497 O.2       1 <0>        -0.9375
     15 O2          1.1557    6.3860    0.6268 O.2       1 <0>        -0.9375
     16 C13        -0.1022    6.4846   -1.7171 C.3       1 <0>        -0.6389
     17 C14        -0.1237    7.9872   -1.8296 C.2       1 <0>         0.4886
     18 O3         -0.1237    8.6679   -0.8314 O.co2     1 <0>        -0.6215
     19 H1          0.0542   -3.8521   -0.0208 H         1 <0>         0.1228
     20 H2         -2.0950   -2.6552    0.0070 H         1 <0>         0.1250
     21 H3         -2.1377   -0.1954    0.0214 H         1 <0>         0.1281
     22 H4          2.1461   -0.1370   -0.0291 H         1 <0>         0.1281
     23 H5          2.1703   -2.5971   -0.0336 H         1 <0>         0.1250
     24 H6         -2.1623    1.6127    0.0213 H         1 <0>         0.1332
     25 H7         -2.1863    4.0728    0.0423 H         1 <0>         0.1452
     26 H8          2.0790    4.1308    0.0036 H         1 <0>         0.1452
     27 H9          2.1217    1.6710   -0.0092 H         1 <0>         0.1332
     28 H10         0.7886    6.0960   -2.2105 H         1 <0>         0.1357
     29 H11        -0.9911    6.0717   -2.1940 H         1 <0>         0.1357
     30 O4         -0.1428    8.5694   -3.0389 O.co2     1 <0>        -0.7368
@<TRIPOS>BOND
     1    1    6 ar
     2    1    2 ar
     3    1   19 1
     4    2    3 ar
     5    2   20 1
     6    3    4 ar
     7    3   21 1
     8    4    5 ar
     9    4    7 1
    10    5    6 ar
    11    5   22 1
    12    6   23 1
    13    7   12 ar
    14    7    8 ar
    15    8    9 ar
    16    8   24 1
    17    9   10 ar
    18    9   25 1
    19   10   11 ar
    20   10   13 1
    21   11   12 ar
    22   11   26 1
    23   12   27 1
    24   13   14 2
    25   13   15 2
    26   13   16 1
    27   16   17 1
    28   16   28 1
    29   16   29 1
    30   17   18 2
    31   17   30 1
