@<TRIPOS>MOLECULE
ZINC03989259
   57    59     0     0     0
SMALL
USER_CHARGES

@<TRIPOS>ATOM
      1 C1          4.7940    1.4748   -1.9580 C.3       1 <0>        -0.1866
      2 C2          5.1782    0.4845   -0.8568 C.3       1 <0>        -0.0173
      3 C3          6.5990    2.1351    0.2012 C.3       1 <0>        -0.0111
      4 C4          7.8882    1.3271    0.0399 C.3       1 <0>        -0.1890
      5 C5          4.2763    1.9385    0.8563 C.3       1 <0>        -0.0230
      6 C6          3.2014    0.9315    1.2703 C.3       1 <0>         0.0949
      7 N1          2.0151    1.6500    1.7424 N.am      1 <0>        -0.7291
      8 C7          0.9338    0.9632    2.1616 C.2       1 <0>         0.6111
      9 O1          0.9429   -0.2527    2.1478 O.2       1 <0>        -0.5184
     10 C8         -0.2621    1.6862    2.6309 C.2       1 <0>        -0.2417
     11 C9         -1.3491    2.1107    1.8372 C.2       1 <0>        -0.0585
     12 C10        -2.2403    2.7399    2.6838 C.2       1 <0>        -0.0067
     13 N2         -1.7112    2.7111    3.9576 N.pl3     1 <0>        -0.4914
     14 H1         -2.1295    3.0867    4.7480 H         1 <0>         0.4268
     15 C11        -0.5253    2.0803    3.9303 C.2       1 <0>         0.1152
     16 C12         0.3697    1.8413    5.1189 C.3       1 <0>        -0.0999
     17 C13        -3.4736    3.3170    2.3103 C.2       1 <0>         0.0707
     18 C14        -3.9268    4.4526    2.9516 C.2       1 <0>        -0.1866
     19 C15        -5.2445    5.1082    2.7974 C.ar      1 <0>        -0.0906
     20 C16        -6.3711    4.8169    2.0348 C.ar      1 <0>        -0.0550
     21 C17        -7.4810    5.6350    2.1130 C.ar      1 <0>        -0.0537
     22 C18        -7.4734    6.7373    2.9534 C.ar      1 <0>        -0.0704
     23 C19        -6.3632    7.0298    3.7190 C.ar      1 <0>        -0.1195
     24 C20        -5.2361    6.2179    3.6532 C.ar      1 <0>         0.1435
     25 N3         -4.0089    6.2840    4.3026 N.am      1 <0>        -0.6473
     26 C21        -3.2028    5.2754    3.9301 C.2       1 <0>         0.5595
     27 O2         -2.0702    5.0781    4.3329 O.2       1 <0>        -0.5145
     28 Cl1        -8.8870    5.2828    1.1575 Cl        1 <0>        -0.0549
     29 C22        -1.5083    1.9123    0.3518 C.3       1 <0>        -0.0928
     30 H2          3.9159    2.0409   -1.6474 H         1 <0>         0.0796
     31 H3          5.6233    2.1594   -2.1365 H         1 <0>         0.0812
     32 H4          4.5692    0.9296   -2.8747 H         1 <0>         0.1075
     33 H5          6.0634   -0.0734   -1.1625 H         1 <0>         0.1329
     34 H6          4.3535   -0.2075   -0.6865 H         1 <0>         0.1314
     35 H7          6.4364    2.7416   -0.6898 H         1 <0>         0.1338
     36 H8          6.6840    2.7848    1.0723 H         1 <0>         0.1297
     37 H9          8.0650    0.7412    0.9418 H         1 <0>         0.0813
     38 H10         7.7929    0.6579   -0.8152 H         1 <0>         0.0804
     39 H11         8.7250    2.0065   -0.1219 H         1 <0>         0.1070
     40 H12         3.8925    2.5714    0.0562 H         1 <0>         0.1399
     41 H13         4.5434    2.5576    1.7128 H         1 <0>         0.1368
     42 H14         3.5853    0.2986    2.0704 H         1 <0>         0.0887
     43 H15         2.9343    0.3125    0.4138 H         1 <0>         0.0889
     44 H16         2.0079    2.6199    1.7534 H         1 <0>         0.4098
     45 H17         1.0581    2.6790    5.2297 H         1 <0>         0.0839
     46 H18        -0.2383    1.7492    6.0189 H         1 <0>         0.0780
     47 H19         0.9366    0.9226    4.9679 H         1 <0>         0.0839
     48 H20        -4.0625    2.8701    1.5230 H         1 <0>         0.1587
     49 H21        -6.3755    3.9579    1.3801 H         1 <0>         0.1412
     50 H22        -8.3447    7.3730    3.0099 H         1 <0>         0.1461
     51 H23        -6.3695    7.8913    4.3703 H         1 <0>         0.1406
     52 H24        -3.7653    6.9709    4.9427 H         1 <0>         0.4218
     53 H25        -2.0209    0.9688    0.1641 H         1 <0>         0.0783
     54 H26        -2.0935    2.7326   -0.0637 H         1 <0>         0.0725
     55 H27        -0.5256    1.8919   -0.1194 H         1 <0>         0.0632
     56 N4          5.4731    1.1989    0.4030 N.4       1 <0>        -0.3919
     57 H28         5.7338    0.5137    1.1218 H         1 <0>         0.4310
@<TRIPOS>BOND
     1    1    2 1
     2    1   30 1
     3    1   31 1
     4    1   32 1
     5    2   33 1
     6    2   34 1
     7    2   56 1
     8    3    4 1
     9    3   35 1
    10    3   36 1
    11    3   56 1
    12    4   37 1
    13    4   38 1
    14    4   39 1
    15    5    6 1
    16    5   40 1
    17    5   41 1
    18    5   56 1
    19    6    7 1
    20    6   42 1
    21    6   43 1
    22    7    8 am
    23    7   44 1
    24    8    9 2
    25    8   10 1
    26   10   15 2
    27   10   11 1
    28   11   12 2
    29   11   29 1
    30   12   13 1
    31   12   17 1
    32   13   14 1
    33   13   15 1
    34   15   16 1
    35   16   45 1
    36   16   46 1
    37   16   47 1
    38   17   18 2
    39   17   48 1
    40   18   26 1
    41   18   19 1
    42   19   24 ar
    43   19   20 ar
    44   20   21 ar
    45   20   49 1
    46   21   22 ar
    47   21   28 1
    48   22   23 ar
    49   22   50 1
    50   23   24 ar
    51   23   51 1
    52   24   25 1
    53   25   26 am
    54   25   52 1
    55   26   27 2
    56   29   53 1
    57   29   54 1
    58   29   55 1
    59   56   57 1
@<TRIPOS>MOLECULE
ZINC03989258
   55    58     0     0     0
SMALL
USER_CHARGES

@<TRIPOS>ATOM
      1 C1         -0.3067    1.0920    0.1581 C.3       1 <0>        -0.0934
      2 C2         -0.8831    1.4012    1.5157 C.2       1 <0>        -0.0571
      3 C3         -0.1735    1.6789    2.6674 C.2       1 <0>        -0.0079
      4 N1         -1.0799    1.9046    3.6827 N.pl3     1 <0>        -0.4909
      5 H1         -0.8527    2.1216    4.6004 H         1 <0>         0.4272
      6 C4         -2.3269    1.7762    3.1996 C.2       1 <0>         0.1158
      7 C5         -2.2518    1.4687    1.8531 C.2       1 <0>        -0.2424
      8 C6         -3.3892    1.2494    0.9413 C.2       1 <0>         0.6114
      9 O1         -3.8505    0.1329    0.8022 O.2       1 <0>        -0.5184
     10 N2         -3.9178    2.2864    0.2618 N.am      1 <0>        -0.7297
     11 C7         -5.0481    2.0685   -0.6443 C.3       1 <0>         0.0951
     12 C8         -5.4523    3.3981   -1.2844 C.3       1 <0>        -0.0120
     13 C9         -7.6910    2.4660   -1.5034 C.3       1 <0>        -0.0137
     14 C10        -8.9249    2.7895   -2.3827 C.3       1 <0>        -0.1471
     15 C11        -8.6747    4.2559   -2.8035 C.3       1 <0>        -0.1471
     16 C12        -7.1573    4.4661   -2.6464 C.3       1 <0>        -0.0091
     17 C13        -3.5975    1.9461    3.9920 C.3       1 <0>        -0.0997
     18 C14         1.2328    1.7236    2.7853 C.2       1 <0>         0.0735
     19 C15         1.8245    2.6161    3.6568 C.2       1 <0>        -0.1898
     20 C16         3.2552    2.6996    4.0258 C.ar      1 <0>        -0.0734
     21 C17         4.3824    1.9800    3.6416 C.ar      1 <0>        -0.1002
     22 C18         5.6168    2.3074    4.1699 C.ar      1 <0>         0.0862
     23 C19         5.7298    3.3529    5.0743 C.ar      1 <0>        -0.1140
     24 C20         4.6177    4.0755    5.4555 C.ar      1 <0>        -0.1020
     25 C21         3.3675    3.7601    4.9347 C.ar      1 <0>         0.1280
     26 N3          2.1101    4.3150    5.1462 N.am      1 <0>        -0.6464
     27 C22         1.1689    3.6844    4.4233 C.2       1 <0>         0.5597
     28 O2         -0.0194    3.9517    4.4065 O.2       1 <0>        -0.5162
     29 F1          6.7139    1.6084    3.8055 F         1 <0>        -0.1317
     30 H2         -0.1553    0.0167    0.0639 H         1 <0>         0.0787
     31 H3          0.6483    1.6048    0.0434 H         1 <0>         0.0727
     32 H4         -0.9962    1.4309   -0.6151 H         1 <0>         0.0637
     33 H5         -3.5499    3.1770    0.3728 H         1 <0>         0.4097
     34 H6         -4.7585    1.3634   -1.4234 H         1 <0>         0.0889
     35 H7         -5.8908    1.6642   -0.0834 H         1 <0>         0.0894
     36 H8         -5.7420    4.1032   -0.5053 H         1 <0>         0.1343
     37 H9         -4.6097    3.8023   -1.8453 H         1 <0>         0.1385
     38 H10        -7.5030    1.3925   -1.4842 H         1 <0>         0.1407
     39 H11        -7.8267    2.8520   -0.4931 H         1 <0>         0.1352
     40 H12        -9.8442    2.7061   -1.8030 H         1 <0>         0.1167
     41 H13        -8.9578    2.1379   -3.2559 H         1 <0>         0.0994
     42 H14        -9.2206    4.9356   -2.1493 H         1 <0>         0.1035
     43 H15        -8.9722    4.4078   -3.8411 H         1 <0>         0.1056
     44 H16        -6.9647    5.2403   -1.9037 H         1 <0>         0.1315
     45 H17        -6.7206    4.7496   -3.6040 H         1 <0>         0.1349
     46 H18        -3.9158    2.9877    3.9492 H         1 <0>         0.0838
     47 H19        -4.3763    1.3106    3.5705 H         1 <0>         0.0838
     48 H20        -3.4193    1.6629    5.0294 H         1 <0>         0.0782
     49 H21         1.8457    1.0596    2.1938 H         1 <0>         0.1590
     50 H22         4.2923    1.1660    2.9375 H         1 <0>         0.1437
     51 H23         6.6971    3.6040    5.4837 H         1 <0>         0.1485
     52 H24         4.7184    4.8877    6.1602 H         1 <0>         0.1415
     53 H25         1.9347    5.0620    5.7397 H         1 <0>         0.4217
     54 N4         -6.6121    3.1829   -2.2012 N.4       1 <0>        -0.3913
     55 H26        -6.3020    2.6373   -3.0138 H         1 <0>         0.4332
@<TRIPOS>BOND
     1    1    2 1
     2    1   30 1
     3    1   31 1
     4    1   32 1
     5    2    7 1
     6    2    3 2
     7    3    4 1
     8    3   18 1
     9    4    5 1
    10    4    6 1
    11    6    7 2
    12    6   17 1
    13    7    8 1
    14    8    9 2
    15    8   10 am
    16   10   11 1
    17   10   33 1
    18   11   12 1
    19   11   34 1
    20   11   35 1
    21   12   36 1
    22   12   37 1
    23   12   54 1
    24   13   14 1
    25   13   38 1
    26   13   39 1
    27   13   54 1
    28   14   15 1
    29   14   40 1
    30   14   41 1
    31   15   16 1
    32   15   42 1
    33   15   43 1
    34   16   44 1
    35   16   45 1
    36   16   54 1
    37   17   46 1
    38   17   47 1
    39   17   48 1
    40   18   19 2
    41   18   49 1
    42   19   27 1
    43   19   20 1
    44   20   25 ar
    45   20   21 ar
    46   21   22 ar
    47   21   50 1
    48   22   23 ar
    49   22   29 1
    50   23   24 ar
    51   23   51 1
    52   24   25 ar
    53   24   52 1
    54   25   26 1
    55   26   27 am
    56   26   53 1
    57   27   28 2
    58   54   55 1
@<TRIPOS>MOLECULE
ZINC13493833
   51    53     0     0     0
SMALL
USER_CHARGES
N-(2-dimethylaminoethyl)-5-[(Z)-(5-fluoro-2-oxo-indolin-3-ylidene)methyl]-2,4-dimethyl-1H-pyrrole-3-carboxamide
@<TRIPOS>ATOM
      1 C1         -1.4553    2.4940   -2.4659 C.3       1 <0>        -0.0932
      2 C2         -1.9834    2.4657   -1.0547 C.2       1 <0>        -0.0579
      3 C3         -3.2047    2.9443   -0.6230 C.2       1 <0>        -0.0071
      4 N1         -3.2905    2.7289    0.7369 N.pl3     1 <0>        -0.4911
      5 H1         -4.0437    2.9723    1.2976 H         1 <0>         0.4270
      6 C4         -2.1665    2.1282    1.1619 C.2       1 <0>         0.1155
      7 C5         -1.3262    1.9420    0.0792 C.2       1 <0>        -0.2422
      8 C6          0.0094    1.3186    0.1057 C.2       1 <0>         0.6113
      9 O1          0.1241    0.1194   -0.0604 O.2       1 <0>        -0.5183
     10 N2          1.1039    2.0786    0.3085 N.am      1 <0>        -0.7296
     11 C7          2.4317    1.4599    0.3288 C.3       1 <0>         0.0929
     12 C8          3.4917    2.5354    0.5749 C.3       1 <0>        -0.0185
     13 C9          5.8796    2.9358    0.5916 C.3       1 <0>        -0.0418
     14 C10         4.9663    1.0135    1.7462 C.3       1 <0>        -0.0499
     15 C11        -1.8705    1.7234    2.5830 C.3       1 <0>        -0.0998
     16 C12        -4.1899    3.5533   -1.4306 C.2       1 <0>         0.0727
     17 C13        -4.9714    4.5694   -0.9180 C.2       1 <0>        -0.1886
     18 C14        -6.1373    5.2184   -1.5579 C.ar      1 <0>        -0.0738
     19 C15        -6.7856    5.0283   -2.7742 C.ar      1 <0>        -0.1000
     20 C16        -7.8825    5.8056   -3.0945 C.ar      1 <0>         0.0862
     21 C17        -8.3367    6.7664   -2.2032 C.ar      1 <0>        -0.1138
     22 C18        -7.7031    6.9568   -0.9922 C.ar      1 <0>        -0.1021
     23 C19        -6.5980    6.1839   -0.6529 C.ar      1 <0>         0.1282
     24 N3         -5.7903    6.1706    0.4791 N.am      1 <0>        -0.6466
     25 C20        -4.8216    5.2447    0.3783 C.2       1 <0>         0.5595
     26 O2         -3.9685    5.0073    1.2147 O.2       1 <0>        -0.5156
     27 F1         -8.5124    5.6299   -4.2767 F         1 <0>        -0.1317
     28 H2         -1.7536    1.5823   -2.9837 H         1 <0>         0.0785
     29 H3         -1.8630    3.3589   -2.9891 H         1 <0>         0.0727
     30 H4         -0.3676    2.5610   -2.4455 H         1 <0>         0.0635
     31 H5          1.0124    3.0351    0.4409 H         1 <0>         0.4101
     32 H6          2.4748    0.7181    1.1263 H         1 <0>         0.0892
     33 H7          2.6214    0.9752   -0.6289 H         1 <0>         0.0889
     34 H8          3.4487    3.2772   -0.2226 H         1 <0>         0.1369
     35 H9          3.3020    3.0201    1.5326 H         1 <0>         0.1386
     36 H10         5.7757    3.5694    1.4724 H         1 <0>         0.1243
     37 H11         6.8549    2.4493    0.6070 H         1 <0>         0.1259
     38 H12         5.7921    3.5460   -0.3073 H         1 <0>         0.1230
     39 H13         4.2148    0.2262    1.6867 H         1 <0>         0.1243
     40 H14         5.9610    0.5677    1.7371 H         1 <0>         0.1264
     41 H15         4.8293    1.5775    2.6688 H         1 <0>         0.1253
     42 H16        -1.3727    2.5447    3.0986 H         1 <0>         0.0839
     43 H17        -2.8030    1.4852    3.0947 H         1 <0>         0.0782
     44 H18        -1.2217    0.8476    2.5837 H         1 <0>         0.0838
     45 H19        -4.3321    3.2242   -2.4494 H         1 <0>         0.1589
     46 H20        -6.4300    4.2802   -3.4673 H         1 <0>         0.1437
     47 H21        -9.1944    7.3708   -2.4591 H         1 <0>         0.1485
     48 H22        -8.0661    7.7080   -0.3064 H         1 <0>         0.1415
     49 H23        -5.9107    6.7552    1.2437 H         1 <0>         0.4217
     50 N4          4.8260    1.8994    0.5714 N.4       1 <0>        -0.3942
     51 H24         4.9260    1.3387   -0.2829 H         1 <0>         0.4344
@<TRIPOS>BOND
     1    1    2 1
     2    1   28 1
     3    1   29 1
     4    1   30 1
     5    2    7 1
     6    2    3 2
     7    3    4 1
     8    3   16 1
     9    4    5 1
    10    4    6 1
    11    6    7 2
    12    6   15 1
    13    7    8 1
    14    8    9 2
    15    8   10 am
    16   10   11 1
    17   10   31 1
    18   11   12 1
    19   11   32 1
    20   11   33 1
    21   12   34 1
    22   12   35 1
    23   12   50 1
    24   13   36 1
    25   13   37 1
    26   13   38 1
    27   13   50 1
    28   14   39 1
    29   14   40 1
    30   14   41 1
    31   14   50 1
    32   15   42 1
    33   15   43 1
    34   15   44 1
    35   16   17 2
    36   16   45 1
    37   17   25 1
    38   17   18 1
    39   18   23 ar
    40   18   19 ar
    41   19   20 ar
    42   19   46 1
    43   20   21 ar
    44   20   27 1
    45   21   22 ar
    46   21   47 1
    47   22   23 ar
    48   22   48 1
    49   23   24 1
    50   24   25 am
    51   24   49 1
    52   25   26 2
    53   50   51 1
@<TRIPOS>MOLECULE
ZINC03814434
   62    69     0     0     0
SMALL
USER_CHARGES

@<TRIPOS>ATOM
      1 C1         -0.1295    1.5952   -0.2973 C.3       1 <0>        -0.1687
      2 C2         -0.0862    0.0696   -0.1900 C.3       1 <0>         0.3342
      3 C3          0.5692   -0.4501   -1.4637 C.3       1 <0>         0.0405
      4 H1          1.4796    0.1159   -1.6612 H         1 <0>         0.1372
      5 C4          0.9167   -1.9328   -1.2889 C.3       1 <0>        -0.0061
      6 H2          1.3963   -2.3075   -2.1932 H         1 <0>         0.1555
      7 C5          1.8785   -2.0596   -0.1021 C.3       1 <0>        -0.1827
      8 C6          1.2061   -1.5198    1.1541 C.3       1 <0>         0.2999
      9 H3          1.9797   -1.4243    1.9161 H         1 <0>         0.1550
     10 O1          0.6555   -0.2442    0.9666 O.3       1 <0>        -0.3234
     11 N1          0.2189   -2.4746    1.6600 N.pl3     1 <0>        -0.5366
     12 C7          0.4705   -3.5508    2.4739 C.ar      1 <0>         0.1469
     13 C8          1.6649   -4.0152    3.0240 C.ar      1 <0>        -0.1522
     14 C9          1.5948   -5.1456    3.8201 C.ar      1 <0>        -0.0582
     15 C10         0.4006   -5.7997    4.0696 C.ar      1 <0>        -0.1457
     16 C11        -0.7984   -5.3597    3.5358 C.ar      1 <0>        -0.0280
     17 C12        -0.7487   -4.2198    2.7307 C.ar      1 <0>        -0.1131
     18 C13        -1.7893   -3.4830    2.0197 C.ar      1 <0>         0.0276
     19 C14        -1.1442   -2.4197    1.3841 C.ar      1 <0>         0.0376
     20 C15        -1.8806   -1.5095    0.6175 C.ar      1 <0>         0.0894
     21 N2         -1.4718   -0.3951   -0.1095 N.pl3     1 <0>        -0.5183
     22 C16        -2.5611    0.1913   -0.7090 C.ar      1 <0>         0.1618
     23 C17        -2.6521    1.3277   -1.5118 C.ar      1 <0>        -0.1305
     24 C18        -3.9109    1.6745   -1.9733 C.ar      1 <0>        -0.0737
     25 C19        -5.0393    0.9368   -1.6616 C.ar      1 <0>        -0.1358
     26 C20        -4.9745   -0.1955   -0.8662 C.ar      1 <0>        -0.0503
     27 C21        -3.7147   -0.5596   -0.3919 C.ar      1 <0>        -0.1042
     28 C22        -3.2693   -1.6660    0.4845 C.ar      1 <0>        -0.0360
     29 C23        -3.9084   -2.7313    1.1102 C.ar      1 <0>        -0.0288
     30 C24        -3.1873   -3.6421    1.8754 C.ar      1 <0>        -0.1255
     31 C25        -4.1221   -4.6480    2.4030 C.2       1 <0>         0.5632
     32 O2         -3.8062   -5.5851    3.1110 O.2       1 <0>        -0.5106
     33 N3         -5.3744   -4.3851    1.9926 N.am      1 <0>        -0.7162
     34 C26        -5.3495   -3.1771    1.1601 C.3       1 <0>         0.1358
     35 N4         -0.3067   -2.7008   -1.0216 N.4       1 <0>        -0.5252
     36 C27         0.0145   -4.1336   -0.9773 C.3       1 <0>        -0.0497
     37 O3         -0.3340   -0.2979   -2.5607 O.3       1 <0>        -0.3614
     38 C28         0.3101   -0.0933   -3.8198 C.3       1 <0>         0.0162
     39 H4          0.8261    2.0094    0.0240 H         1 <0>         0.0984
     40 H5         -0.3202    1.8814   -1.3317 H         1 <0>         0.1036
     41 H6         -0.9255    1.9818    0.3392 H         1 <0>         0.0921
     42 H7          2.1370   -3.1081    0.0458 H         1 <0>         0.1233
     43 H8          2.7835   -1.4869   -0.3048 H         1 <0>         0.1455
     44 H9          2.6036   -3.5149    2.8368 H         1 <0>         0.1365
     45 H10         2.5026   -5.5304    4.2610 H         1 <0>         0.1359
     46 H11         0.4045   -6.6780    4.6980 H         1 <0>         0.1352
     47 H12        -1.7278   -5.8736    3.7323 H         1 <0>         0.1600
     48 H13        -1.7792    1.9122   -1.7624 H         1 <0>         0.1440
     49 H14        -4.0153    2.5500   -2.5970 H         1 <0>         0.1336
     50 H15        -5.9967    1.2527   -2.0488 H         1 <0>         0.1332
     51 H16        -5.8575   -0.7687   -0.6249 H         1 <0>         0.1415
     52 H17        -6.1628   -4.9065    2.2103 H         1 <0>         0.4348
     53 H18        -5.9671   -2.3994    1.6094 H         1 <0>         0.1115
     54 H19        -5.7060   -3.4063    0.1559 H         1 <0>         0.1103
     55 H20        -0.6958   -2.4158   -0.1353 H         1 <0>         0.4186
     56 H21         0.4349   -4.4415   -1.9347 H         1 <0>         0.1256
     57 H22         0.7403   -4.3189   -0.1854 H         1 <0>         0.1191
     58 H23        -0.8932   -4.7035   -0.7789 H         1 <0>         0.1256
     59 H24         0.9168    0.8112   -3.7748 H         1 <0>         0.0633
     60 H25         0.9482   -0.9479   -4.0446 H         1 <0>         0.0514
     61 H26        -0.4433    0.0130   -4.6003 H         1 <0>         0.1100
     62 H27        -0.9785   -2.5293   -1.7546 H         1 <0>         0.4274
@<TRIPOS>BOND
     1    1    2 1
     2    1   39 1
     3    1   40 1
     4    1   41 1
     5    2   10 1
     6    2   21 1
     7    2    3 1
     8    3    4 1
     9    3    5 1
    10    3   37 1
    11    5    6 1
    12    5    7 1
    13    5   35 1
    14    7    8 1
    15    7   42 1
    16    7   43 1
    17    8    9 1
    18    8   10 1
    19    8   11 1
    20   11   19 1
    21   11   12 1
    22   12   17 ar
    23   12   13 ar
    24   13   14 ar
    25   13   44 1
    26   14   15 ar
    27   14   45 1
    28   15   16 ar
    29   15   46 1
    30   16   17 ar
    31   16   47 1
    32   17   18 1
    33   18   30 ar
    34   18   19 ar
    35   19   20 ar
    36   20   28 ar
    37   20   21 1
    38   21   22 1
    39   22   27 ar
    40   22   23 ar
    41   23   24 ar
    42   23   48 1
    43   24   25 ar
    44   24   49 1
    45   25   26 ar
    46   25   50 1
    47   26   27 ar
    48   26   51 1
    49   27   28 1
    50   28   29 ar
    51   29   34 1
    52   29   30 ar
    53   30   31 1
    54   31   32 2
    55   31   33 am
    56   33   34 1
    57   33   52 1
    58   34   53 1
    59   34   54 1
    60   35   36 1
    61   35   55 1
    62   35   62 1
    63   36   56 1
    64   36   57 1
    65   36   58 1
    66   37   38 1
    67   38   59 1
    68   38   60 1
    69   38   61 1
@<TRIPOS>MOLECULE
ZINC03834032
   40    42     0     0     0
SMALL
USER_CHARGES
3-[2,4-dimethyl-5-[(2-oxoindolin-3-ylidene)methyl]-1H-pyrrol-3-yl]propanoic acid
@<TRIPOS>ATOM
      1 C1          2.3355    2.0608   -0.1114 C.3       1 <0>        -0.0903
      2 C2          0.8597    2.3235   -0.2670 C.2       1 <0>        -0.0813
      3 C3          0.2566    3.5618   -0.4946 C.2       1 <0>        -0.1584
      4 C4         -1.0833    3.3665   -0.5730 C.2       1 <0>         0.0723
      5 N1         -1.3469    2.0457   -0.4087 N.pl3     1 <0>        -0.5120
      6 H1         -2.2268    1.6378   -0.4247 H         1 <0>         0.4155
      7 C5         -0.1556    1.3809   -0.2113 C.2       1 <0>        -0.0360
      8 C6          0.0021   -0.0041    0.0020 C.2       1 <0>         0.1041
      9 C7         -0.9659   -0.7120    0.6886 C.2       1 <0>        -0.2329
     10 C8         -1.0457   -2.1775    0.8763 C.ar      1 <0>        -0.0833
     11 C9         -0.2455   -3.2373    0.4616 C.ar      1 <0>        -0.0729
     12 C10        -0.5899   -4.5293    0.8035 C.ar      1 <0>        -0.1392
     13 C11        -1.7274   -4.7687    1.5567 C.ar      1 <0>        -0.0940
     14 C12        -2.5279   -3.7246    1.9729 C.ar      1 <0>        -0.1371
     15 C13        -2.1978   -2.4158    1.6381 C.ar      1 <0>         0.1338
     16 N2         -2.8154   -1.2041    1.9219 N.am      1 <0>        -0.6544
     17 C14        -2.1345   -0.1721    1.3953 C.2       1 <0>         0.5549
     18 O1         -2.4356    1.0049    1.4857 O.2       1 <0>        -0.5122
     19 C15        -2.1123    4.4415   -0.8108 C.3       1 <0>        -0.0923
     20 C16         0.9690    4.8829   -0.6298 C.3       1 <0>        -0.0291
     21 C17         1.3229    5.1235   -2.0987 C.3       1 <0>        -0.1463
     22 C18         2.0353    6.4446   -2.2339 C.2       1 <0>         0.4582
     23 O2          2.2389    7.1240   -1.2557 O.co2     1 <0>        -0.6425
     24 H2          2.7719    1.8501   -1.0877 H         1 <0>         0.0707
     25 H3          2.8171    2.9382    0.3202 H         1 <0>         0.0733
     26 H4          2.4847    1.2042    0.5458 H         1 <0>         0.0583
     27 H5          0.8793   -0.5115   -0.3712 H         1 <0>         0.1497
     28 H6          0.6417   -3.0498   -0.1250 H         1 <0>         0.1280
     29 H7          0.0287   -5.3548    0.4836 H         1 <0>         0.1276
     30 H8         -1.9907   -5.7824    1.8204 H         1 <0>         0.1279
     31 H9         -3.4123   -3.9241    2.5598 H         1 <0>         0.1238
     32 H10        -3.6320   -1.1141    2.4377 H         1 <0>         0.4139
     33 H11        -2.2796    4.5537   -1.8820 H         1 <0>         0.0757
     34 H12        -3.0472    4.1636   -0.3242 H         1 <0>         0.0629
     35 H13        -1.7543    5.3847   -0.3982 H         1 <0>         0.0887
     36 H14         0.3193    5.6838   -0.2767 H         1 <0>         0.0653
     37 H15         1.8817    4.8662   -0.0341 H         1 <0>         0.0677
     38 H16         1.9726    4.3226   -2.4518 H         1 <0>         0.0616
     39 H17         0.4102    5.1402   -2.6943 H         1 <0>         0.0597
     40 O3          2.4435    6.8666   -3.4410 O.co2     1 <0>        -0.7797
@<TRIPOS>BOND
     1    1    2 1
     2    1   24 1
     3    1   25 1
     4    1   26 1
     5    2    7 2
     6    2    3 1
     7    3    4 2
     8    3   20 1
     9    4    5 1
    10    4   19 1
    11    5    6 1
    12    5    7 1
    13    7    8 1
    14    8    9 2
    15    8   27 1
    16    9   17 1
    17    9   10 1
    18   10   15 ar
    19   10   11 ar
    20   11   12 ar
    21   11   28 1
    22   12   13 ar
    23   12   29 1
    24   13   14 ar
    25   13   30 1
    26   14   15 ar
    27   14   31 1
    28   15   16 1
    29   16   17 am
    30   16   32 1
    31   17   18 2
    32   19   33 1
    33   19   34 1
    34   19   35 1
    35   20   21 1
    36   20   36 1
    37   20   37 1
    38   21   22 1
    39   21   38 1
    40   21   39 1
    41   22   23 2
    42   22   40 1
@<TRIPOS>MOLECULE
ZINC12410091
   32    34     0     0     0
SMALL
USER_CHARGES

@<TRIPOS>ATOM
      1 C1         -1.1178    0.9648   -0.0829 C.3       1 <0>        -0.0893
      2 C2         -0.2110   -0.2369   -0.0149 C.2       1 <0>        -0.0965
      3 C3          0.2945   -0.9575   -1.0985 C.2       1 <0>        -0.2107
      4 C4          1.0666   -1.9603   -0.6105 C.2       1 <0>         0.0646
      5 N1          1.0661   -1.8976    0.7449 N.pl3     1 <0>        -0.5091
      6 H1          1.5402   -2.4998    1.3395 H         1 <0>         0.4188
      7 C5          0.2839   -0.8320    1.1355 C.2       1 <0>        -0.0205
      8 C6          0.0313   -0.4237    2.4614 C.2       1 <0>         0.0819
      9 C7         -0.0507   -1.3643    3.4702 C.2       1 <0>        -0.2071
     10 C8         -0.1650   -1.1166    4.9246 C.ar      1 <0>        -0.0949
     11 C9         -0.2226    0.0414    5.6934 C.ar      1 <0>        -0.0678
     12 C10        -0.3314   -0.0533    7.0660 C.ar      1 <0>        -0.1377
     13 C11        -0.3826   -1.2965    7.6746 C.ar      1 <0>        -0.0864
     14 C12        -0.3261   -2.4512    6.9211 C.ar      1 <0>        -0.1351
     15 C13        -0.2169   -2.3764    5.5367 C.ar      1 <0>         0.1361
     16 N2         -0.1424   -3.3615    4.5598 N.am      1 <0>        -0.6521
     17 C14        -0.0496   -2.8262    3.3306 C.2       1 <0>         0.5558
     18 O1          0.0255   -3.4453    2.2841 O.2       1 <0>        -0.5142
     19 C15         1.8050   -2.9793   -1.4395 C.3       1 <0>        -0.0930
     20 H2         -0.5157    1.8720   -0.1329 H         1 <0>         0.0696
     21 H3         -1.7460    0.8961   -0.9710 H         1 <0>         0.0689
     22 H4         -1.7478    0.9953    0.8062 H         1 <0>         0.0623
     23 H5          0.1040   -0.7529   -2.1417 H         1 <0>         0.1407
     24 H6         -0.0981    0.6243    2.6883 H         1 <0>         0.1527
     25 H7         -0.1820    1.0104    5.2182 H         1 <0>         0.1289
     26 H8         -0.3765    0.8433    7.6664 H         1 <0>         0.1307
     27 H9         -0.4670   -1.3628    8.7493 H         1 <0>         0.1317
     28 H10        -0.3669   -3.4147    7.4073 H         1 <0>         0.1271
     29 H11        -0.1589   -4.3141    4.7415 H         1 <0>         0.4170
     30 H12         2.8038   -2.6073   -1.6677 H         1 <0>         0.0754
     31 H13         1.8835   -3.9129   -0.8824 H         1 <0>         0.0673
     32 H14         1.2618   -3.1548   -2.3681 H         1 <0>         0.0848
@<TRIPOS>BOND
     1    1    2 1
     2    1   20 1
     3    1   21 1
     4    1   22 1
     5    2    7 2
     6    2    3 1
     7    3    4 2
     8    3   23 1
     9    4    5 1
    10    4   19 1
    11    5    6 1
    12    5    7 1
    13    7    8 1
    14    8    9 2
    15    8   24 1
    16    9   17 1
    17    9   10 1
    18   10   15 ar
    19   10   11 ar
    20   11   12 ar
    21   11   25 1
    22   12   13 ar
    23   12   26 1
    24   13   14 ar
    25   13   27 1
    26   14   15 ar
    27   14   28 1
    28   15   16 1
    29   16   17 am
    30   16   29 1
    31   17   18 2
    32   19   30 1
    33   19   31 1
    34   19   32 1
@<TRIPOS>MOLECULE
ZINC02939076
   29    31     0     0     0
SMALL
USER_CHARGES
3-[(4-hydroxyphenyl)methylene]indolin-2-one
@<TRIPOS>ATOM
      1 C1          9.0004    5.5411    0.9127 C.ar      1 <0>        -0.1406
      2 C2          9.1811    5.6951    2.2772 C.ar      1 <0>        -0.0808
      3 C3          8.2478    5.2078    3.1694 C.ar      1 <0>        -0.1379
      4 C4          7.1114    4.5552    2.7039 C.ar      1 <0>         0.1451
      5 C5          6.9322    4.4019    1.3229 C.ar      1 <0>        -0.1074
      6 C6          7.8787    4.8962    0.4318 C.ar      1 <0>        -0.0619
      7 C7          5.6514    3.6804    1.1455 C.2       1 <0>        -0.1667
      8 C8          5.0638    3.3071   -0.0285 C.2       1 <0>         0.0356
      9 C9          3.8753    2.4493   -0.0131 C.ar      1 <0>        -0.1103
     10 C10         3.7820    1.3929    0.9035 C.ar      1 <0>        -0.0284
     11 C11         2.6680    0.5936    0.9130 C.ar      1 <0>        -0.1538
     12 C12         1.6322    0.8289    0.0153 C.ar      1 <0>         0.1272
     13 C13         1.7216    1.8720   -0.9003 C.ar      1 <0>        -0.1585
     14 C14         2.8279    2.6819   -0.9151 C.ar      1 <0>        -0.0707
     15 O1          0.5322    0.0341    0.0290 O.3       1 <0>        -0.5000
     16 C15         5.1462    3.4586    2.5109 C.2       1 <0>         0.5556
     17 O2          4.1071    2.8977    2.8076 O.2       1 <0>        -0.4926
     18 N1          6.0361    3.9810    3.3718 N.am      1 <0>        -0.6555
     19 H1          9.7380    5.9261    0.2242 H         1 <0>         0.1314
     20 H2         10.0609    6.2011    2.6465 H         1 <0>         0.1326
     21 H3          8.4001    5.3338    4.2312 H         1 <0>         0.1285
     22 H4          7.7366    4.7762   -0.6320 H         1 <0>         0.1294
     23 H5          5.4745    3.6439   -0.9689 H         1 <0>         0.1462
     24 H6          4.5858    1.2092    1.6011 H         1 <0>         0.1264
     25 H7          2.5950   -0.2207    1.6187 H         1 <0>         0.1305
     26 H8          0.9161    2.0471   -1.5982 H         1 <0>         0.1322
     27 H9          2.8943    3.4944   -1.6235 H         1 <0>         0.1316
     28 H10        -0.1699    0.3444    0.6171 H         1 <0>         0.3945
     29 H11         5.9383    3.9636    4.3367 H         1 <0>         0.4181
@<TRIPOS>BOND
     1    1    6 ar
     2    1    2 ar
     3    1   19 1
     4    2    3 ar
     5    2   20 1
     6    3    4 ar
     7    3   21 1
     8    4   18 1
     9    4    5 ar
    10    5    6 ar
    11    5    7 1
    12    6   22 1
    13    7    8 2
    14    7   16 1
    15    8    9 1
    16    8   23 1
    17    9   14 ar
    18    9   10 ar
    19   10   11 ar
    20   10   24 1
    21   11   12 ar
    22   11   25 1
    23   12   13 ar
    24   12   15 1
    25   13   14 ar
    26   13   26 1
    27   14   27 1
    28   15   28 1
    29   16   17 2
    30   16   18 am
    31   18   29 1
@<TRIPOS>MOLECULE
ZINC12832813
   44    47     0     0     0
SMALL
USER_CHARGES
4-[4-[(Z)-(2-oxoindolin-3-ylidene)methyl]phenyl]piperazine-1-carbaldehyde
@<TRIPOS>ATOM
      1 C1         -0.7213   -2.2739   -0.5879 C.ar      1 <0>        -0.1404
      2 C2          0.2170   -2.5765   -1.5606 C.ar      1 <0>        -0.0822
      3 C3          0.9024   -1.5720   -2.2130 C.ar      1 <0>        -0.1379
      4 C4          0.6557   -0.2401   -1.8978 C.ar      1 <0>         0.1437
      5 C5         -0.2942    0.0617   -0.9132 C.ar      1 <0>        -0.1049
      6 C6         -0.9797   -0.9579   -0.2615 C.ar      1 <0>        -0.0635
      7 C7         -0.3308    1.5381   -0.8070 C.2       1 <0>        -0.1744
      8 C8         -1.1128    2.2928    0.0201 C.2       1 <0>         0.0427
      9 C9         -0.8888    3.7367    0.1237 C.ar      1 <0>        -0.1290
     10 C10         0.4169    4.2482    0.1181 C.ar      1 <0>        -0.0134
     11 C11         0.6203    5.5954    0.2096 C.ar      1 <0>        -0.1802
     12 C12        -0.4662    6.4603    0.3197 C.ar      1 <0>         0.1352
     13 C13        -1.7650    5.9567    0.3311 C.ar      1 <0>        -0.1537
     14 C14        -1.9791    4.6116    0.2348 C.ar      1 <0>        -0.0587
     15 N1         -0.2536    7.8306    0.4181 N.pl3     1 <0>        -0.4878
     16 C15        -0.9802    8.5529   -0.6346 C.3       1 <0>         0.0443
     17 C16        -0.8689   10.0608   -0.3850 C.3       1 <0>         0.1097
     18 N2          0.5544   10.4098   -0.2601 N.am      1 <0>        -0.6256
     19 C17         1.3811    9.6354    0.6781 C.3       1 <0>         0.1147
     20 C18         1.1811    8.1443    0.3866 C.3       1 <0>         0.0318
     21 C19         1.0871   11.4124   -0.9864 C.2       1 <0>         0.4951
     22 O1          0.3907   12.0406   -1.7553 O.2       1 <0>        -0.5508
     23 C20         0.6542    2.0160   -1.7910 C.2       1 <0>         0.5560
     24 O2          0.9310    3.1794   -2.0200 O.2       1 <0>        -0.4945
     25 N3          1.1938    0.9421   -2.3924 N.am      1 <0>        -0.6560
     26 H1         -1.2512   -3.0686   -0.0839 H         1 <0>         0.1309
     27 H2          0.4144   -3.6084   -1.8107 H         1 <0>         0.1320
     28 H3          1.6315   -1.8206   -2.9700 H         1 <0>         0.1279
     29 H4         -1.7110   -0.7209    0.4972 H         1 <0>         0.1290
     30 H5         -1.8964    1.8250    0.5977 H         1 <0>         0.1436
     31 H6          1.2601    3.5781    0.0373 H         1 <0>         0.1223
     32 H7          1.6253    5.9906    0.2013 H         1 <0>         0.1280
     33 H8         -2.6041    6.6313    0.4166 H         1 <0>         0.1285
     34 H9         -2.9864    4.2221    0.2437 H         1 <0>         0.1289
     35 H10        -0.5479    8.3122   -1.6058 H         1 <0>         0.0519
     36 H11        -2.0296    8.2584   -0.6200 H         1 <0>         0.0968
     37 H12        -1.3914   10.3190    0.5361 H         1 <0>         0.0781
     38 H13        -1.3070   10.6039   -1.2224 H         1 <0>         0.1010
     39 H14         1.0748    9.8527    1.7014 H         1 <0>         0.0820
     40 H15         2.4306    9.8973    0.5436 H         1 <0>         0.0948
     41 H16         1.6993    7.5534    1.1418 H         1 <0>         0.0991
     42 H17         1.5835    7.9088   -0.5987 H         1 <0>         0.0553
     43 H18         2.1342   11.6564   -0.8837 H         1 <0>         0.1326
     44 H19         1.8731    0.9864   -3.0834 H         1 <0>         0.4173
@<TRIPOS>BOND
     1    1    6 ar
     2    1    2 ar
     3    1   26 1
     4    2    3 ar
     5    2   27 1
     6    3    4 ar
     7    3   28 1
     8    4   25 1
     9    4    5 ar
    10    5    6 ar
    11    5    7 1
    12    6   29 1
    13    7    8 2
    14    7   23 1
    15    8    9 1
    16    8   30 1
    17    9   14 ar
    18    9   10 ar
    19   10   11 ar
    20   10   31 1
    21   11   12 ar
    22   11   32 1
    23   12   13 ar
    24   12   15 1
    25   13   14 ar
    26   13   33 1
    27   14   34 1
    28   15   20 1
    29   15   16 1
    30   16   17 1
    31   16   35 1
    32   16   36 1
    33   17   18 1
    34   17   37 1
    35   17   38 1
    36   18   19 1
    37   18   21 am
    38   19   20 1
    39   19   39 1
    40   19   40 1
    41   20   41 1
    42   20   42 1
    43   21   22 2
    44   21   43 1
    45   23   24 2
    46   23   25 am
    47   25   44 1
@<TRIPOS>MOLECULE
ZINC12339625
   36    38     0     0     0
SMALL
USER_CHARGES

@<TRIPOS>ATOM
      1 C1          1.2339    1.8626   -0.5442 C.3       1 <0>         0.0879
      2 N1          0.9071    0.4447   -0.3743 N.pl3     1 <0>        -0.6311
      3 C2          0.8183   -0.1307    0.9700 C.3       1 <0>         0.0920
      4 C3          0.6811   -0.3549   -1.4889 C.ar      1 <0>         0.2389
      5 C4          0.3648   -1.7016   -1.3245 C.ar      1 <0>        -0.2114
      6 C5          0.1419   -2.4911   -2.4161 C.ar      1 <0>        -0.0340
      7 C6          0.2319   -1.9441   -3.7042 C.ar      1 <0>        -0.1690
      8 C7          0.5505   -0.5879   -3.8643 C.ar      1 <0>         0.0090
      9 C8          0.7660    0.1946   -2.7662 C.ar      1 <0>        -0.2084
     10 C9         -0.0058   -2.7867   -4.8786 C.2       1 <0>         0.0566
     11 C10        -0.6965   -2.2900   -5.9469 C.2       1 <0>        -0.1877
     12 C11        -0.9003   -2.9319   -7.2656 C.ar      1 <0>        -0.1003
     13 C12        -0.4922   -4.1458   -7.8079 C.ar      1 <0>        -0.0665
     14 C13        -0.8488   -4.4723   -9.1008 C.ar      1 <0>        -0.1408
     15 C14        -1.6094   -3.5936   -9.8540 C.ar      1 <0>        -0.0853
     16 C15        -2.0189   -2.3865   -9.3251 C.ar      1 <0>        -0.1384
     17 C16        -1.6702   -2.0404   -8.0241 C.ar      1 <0>         0.1422
     18 N2         -1.9455   -0.9108   -7.2625 N.am      1 <0>        -0.6570
     19 C17        -1.4055   -1.0030   -6.0353 C.2       1 <0>         0.5562
     20 O1         -1.4865   -0.1680   -5.1528 O.2       1 <0>        -0.4948
     21 H1          2.3149    1.9796   -0.6207 H         1 <0>         0.0513
     22 H2          0.7626    2.2379   -1.4526 H         1 <0>         0.0716
     23 H3          0.8675    2.4253    0.3144 H         1 <0>         0.0687
     24 H4          1.0252    0.6422    1.7104 H         1 <0>         0.0747
     25 H5         -0.1841   -0.5279    1.1298 H         1 <0>         0.0565
     26 H6          1.5479   -0.9343    1.0702 H         1 <0>         0.0570
     27 H7          0.2961   -2.1220   -0.3320 H         1 <0>         0.1235
     28 H8         -0.1029   -3.5351   -2.2876 H         1 <0>         0.1247
     29 H9          0.6213   -0.1620   -4.8543 H         1 <0>         0.1202
     30 H10         1.0069    1.2403   -2.8882 H         1 <0>         0.1232
     31 H11         0.3652   -3.8008   -4.8996 H         1 <0>         0.1394
     32 H12         0.1016   -4.8301   -7.2200 H         1 <0>         0.1280
     33 H13        -0.5339   -5.4140   -9.5256 H         1 <0>         0.1297
     34 H14        -1.8845   -3.8554  -10.8651 H         1 <0>         0.1308
     35 H15        -2.6112   -1.7093   -9.9227 H         1 <0>         0.1267
     36 H16        -2.4648   -0.1537   -7.5756 H         1 <0>         0.4160
@<TRIPOS>BOND
     1    1    2 1
     2    1   21 1
     3    1   22 1
     4    1   23 1
     5    2    3 1
     6    2    4 1
     7    3   24 1
     8    3   25 1
     9    3   26 1
    10    4    9 ar
    11    4    5 ar
    12    5    6 ar
    13    5   27 1
    14    6    7 ar
    15    6   28 1
    16    7    8 ar
    17    7   10 1
    18    8    9 ar
    19    8   29 1
    20    9   30 1
    21   10   11 2
    22   10   31 1
    23   11   19 1
    24   11   12 1
    25   12   17 ar
    26   12   13 ar
    27   13   14 ar
    28   13   32 1
    29   14   15 ar
    30   14   33 1
    31   15   16 ar
    32   15   34 1
    33   16   17 ar
    34   16   35 1
    35   17   18 1
    36   18   19 am
    37   18   36 1
    38   19   20 2
@<TRIPOS>MOLECULE
ZINC03280663
   41    44     0     0     0
SMALL
USER_CHARGES
5-chloro-3-[(4-morpholinophenyl)methylene]indolin-2-one
@<TRIPOS>ATOM
      1 C1         -2.7749   -2.4214   -0.5258 C.ar      1 <0>        -0.0153
      2 C2         -1.4987   -1.9361   -0.5421 C.ar      1 <0>        -0.1485
      3 C3         -1.2551   -0.5997   -0.2331 C.ar      1 <0>         0.1367
      4 C4         -2.3105    0.2467    0.0994 C.ar      1 <0>        -0.1849
      5 C5         -3.5909   -0.2276    0.1129 C.ar      1 <0>        -0.0548
      6 C6         -3.8413   -1.5720   -0.1973 C.ar      1 <0>        -0.1322
      7 C7         -5.2124   -2.0874   -0.1788 C.2       1 <0>         0.0527
      8 C8         -5.4649   -3.3391    0.3053 C.2       1 <0>        -0.1786
      9 C9         -6.7436   -4.0840    0.2541 C.ar      1 <0>        -0.0909
     10 C10        -8.0011   -3.7842   -0.2589 C.ar      1 <0>        -0.0552
     11 C11        -9.0223   -4.7082   -0.1522 C.ar      1 <0>        -0.0575
     12 C12        -8.7927   -5.9286    0.4632 C.ar      1 <0>        -0.0723
     13 C13        -7.5462   -6.2373    0.9688 C.ar      1 <0>        -0.1248
     14 C14        -6.5072   -5.3178    0.8744 C.ar      1 <0>         0.1511
     15 N1         -5.1854   -5.3689    1.3028 N.am      1 <0>        -0.6539
     16 C15        -4.5267   -4.2382    0.9969 C.2       1 <0>         0.5579
     17 O1         -3.3592   -3.9996    1.2472 O.2       1 <0>        -0.4893
     18 Cl1       -10.5944   -4.3408   -0.7902 Cl        1 <0>        -0.0611
     19 N2          0.0460   -0.1105   -0.2511 N.pl3     1 <0>        -0.4889
     20 C16         0.0775    1.3159    0.1034 C.3       1 <0>         0.0113
     21 C17         1.5179    1.8269    0.0133 C.3       1 <0>         0.0614
     22 O2          2.3523    1.0384    0.8661 O.3       1 <0>        -0.3823
     23 C18         2.3460   -0.3560    0.5487 C.3       1 <0>         0.0614
     24 C19         0.9140   -0.8891    0.6442 C.3       1 <0>         0.0202
     25 H1         -2.9627   -3.4575   -0.7658 H         1 <0>         0.1247
     26 H2         -0.6767   -2.5895   -0.7946 H         1 <0>         0.1266
     27 H3         -2.1160    1.2809    0.3424 H         1 <0>         0.1305
     28 H4         -4.4089    0.4306    0.3662 H         1 <0>         0.1281
     29 H5         -6.0236   -1.4774   -0.5480 H         1 <0>         0.1450
     30 H6         -8.1783   -2.8330   -0.7388 H         1 <0>         0.1398
     31 H7         -9.5952   -6.6469    0.5430 H         1 <0>         0.1433
     32 H8         -7.3800   -7.1909    1.4478 H         1 <0>         0.1389
     33 H9         -4.7890   -6.1248    1.7637 H         1 <0>         0.4196
     34 H10        -0.5516    1.8767   -0.5879 H         1 <0>         0.0957
     35 H11        -0.2920    1.4464    1.1205 H         1 <0>         0.0587
     36 H12         1.8691    1.7460   -1.0154 H         1 <0>         0.0627
     37 H13         1.5548    2.8691    0.3302 H         1 <0>         0.1044
     38 H14         2.9818   -0.8925    1.2529 H         1 <0>         0.1047
     39 H15         2.7215   -0.5011   -0.4642 H         1 <0>         0.0633
     40 H16         0.5578   -0.7939    1.6700 H         1 <0>         0.0565
     41 H17         0.8955   -1.9379    0.3478 H         1 <0>         0.0954
@<TRIPOS>BOND
     1    1    6 ar
     2    1    2 ar
     3    1   25 1
     4    2    3 ar
     5    2   26 1
     6    3    4 ar
     7    3   19 1
     8    4    5 ar
     9    4   27 1
    10    5    6 ar
    11    5   28 1
    12    6    7 1
    13    7    8 2
    14    7   29 1
    15    8   16 1
    16    8    9 1
    17    9   14 ar
    18    9   10 ar
    19   10   11 ar
    20   10   30 1
    21   11   12 ar
    22   11   18 1
    23   12   13 ar
    24   12   31 1
    25   13   14 ar
    26   13   32 1
    27   14   15 1
    28   15   16 am
    29   15   33 1
    30   16   17 2
    31   19   24 1
    32   19   20 1
    33   20   21 1
    34   20   34 1
    35   20   35 1
    36   21   22 1
    37   21   36 1
    38   21   37 1
    39   22   23 1
    40   23   24 1
    41   23   38 1
    42   23   39 1
    43   24   40 1
    44   24   41 1
@<TRIPOS>MOLECULE
ZINC33034247
   26    28     0     0     0
SMALL
USER_CHARGES
(3Z)-5-chloro-3-(1H-pyrrol-2-ylmethylene)indolin-2-one
@<TRIPOS>ATOM
      1 C1         -0.8359    3.4287   -0.7335 C.2       1 <0>        -0.2239
      2 C2         -1.1779    2.1851   -0.1990 C.2       1 <0>        -0.1168
      3 C3         -0.0895    1.3477   -0.3892 C.2       1 <0>        -0.0452
      4 N1          0.8845    2.0775   -1.0363 N.pl3     1 <0>        -0.5254
      5 H1          1.8441    1.6062   -1.2950 H         1 <0>         0.4448
      6 C4          0.4194    3.3359   -1.2387 C.2       1 <0>         0.0576
      7 C5          0.0021   -0.0041    0.0020 C.2       1 <0>         0.1168
      8 C6          1.2024   -0.6781   -0.1174 C.2       1 <0>        -0.2560
      9 C7          1.4060   -2.1386   -0.2401 C.ar      1 <0>        -0.0693
     10 C8          0.5348   -3.2224   -0.2870 C.ar      1 <0>        -0.0666
     11 C9          1.0396   -4.5013   -0.4169 C.ar      1 <0>        -0.0513
     12 C10         2.4082   -4.7020   -0.5071 C.ar      1 <0>        -0.0834
     13 C11         3.2795   -3.6325   -0.4684 C.ar      1 <0>        -0.1180
     14 C12         2.7899   -2.3376   -0.3375 C.ar      1 <0>         0.1280
     15 N2          3.4331   -1.1071   -0.2725 N.am      1 <0>        -0.6547
     16 C13         2.5523   -0.1005   -0.1435 C.2       1 <0>         0.5653
     17 O1          2.8258    1.0839   -0.0619 O.2       1 <0>        -0.5203
     18 Cl1        -0.0409   -5.8591   -0.4669 Cl        1 <0>        -0.0628
     19 H2         -1.4625    4.3082   -0.7469 H         1 <0>         0.1432
     20 H3         -2.1127    1.9254    0.2755 H         1 <0>         0.1451
     21 H4          0.9611    4.1346   -1.7236 H         1 <0>         0.1685
     22 H5         -0.8820   -0.5219    0.4022 H         1 <0>         0.1608
     23 H6         -0.5313   -3.0647   -0.2167 H         1 <0>         0.1383
     24 H7          2.7963   -5.7047   -0.6089 H         1 <0>         0.1416
     25 H8          4.3438   -3.8016   -0.5395 H         1 <0>         0.1372
     26 H9          4.5306   -1.0566   -0.3276 H         1 <0>         0.4464
@<TRIPOS>BOND
     1    1    6 2
     2    1    2 1
     3    1   19 1
     4    2    3 2
     5    2   20 1
     6    3    4 1
     7    3    7 1
     8    4    5 1
     9    4    6 1
    10    6   21 1
    11    7    8 2
    12    7   22 1
    13    8   16 1
    14    8    9 1
    15    9   14 ar
    16    9   10 ar
    17   10   11 ar
    18   10   23 1
    19   11   12 ar
    20   11   18 1
    21   12   13 ar
    22   12   24 1
    23   13   14 ar
    24   13   25 1
    25   14   15 1
    26   15   16 am
    27   15   26 1
    28   16   17 2
@<TRIPOS>MOLECULE
ZINC01468126
   37    39     0     0     0
SMALL
USER_CHARGES
(3E)-3-[(4-isopropylphenyl)methylene]indolin-2-one
@<TRIPOS>ATOM
      1 C1          3.1160    3.1355   -2.6209 C.3       1 <0>        -0.1470
      2 C2          3.1715    2.7123   -1.1516 C.3       1 <0>        -0.0613
      3 C3          3.0941    3.9534   -0.2602 C.3       1 <0>        -0.1468
      4 C4          2.0101    1.8017   -0.8470 C.ar      1 <0>        -0.0572
      5 C5          0.7143    2.2584   -1.0172 C.ar      1 <0>        -0.1233
      6 C6         -0.3538    1.4322   -0.7409 C.ar      1 <0>        -0.0818
      7 C7         -0.1253    0.1275   -0.2868 C.ar      1 <0>        -0.0919
      8 C8          1.1885   -0.3263   -0.1174 C.ar      1 <0>        -0.0862
      9 C9          2.2450    0.5133   -0.3984 C.ar      1 <0>        -0.1227
     10 C10        -1.2568   -0.7595    0.0105 C.2       1 <0>         0.0245
     11 C11        -2.3320   -0.2847    0.7008 C.2       1 <0>        -0.1592
     12 C12        -2.4462    1.0083    1.4136 C.ar      1 <0>        -0.1116
     13 C13        -1.5723    2.0741    1.5996 C.ar      1 <0>        -0.0679
     14 C14        -1.9770    3.1712    2.3332 C.ar      1 <0>        -0.1451
     15 C15        -3.2485    3.2094    2.8807 C.ar      1 <0>        -0.0803
     16 C16        -4.1256    2.1599    2.6956 C.ar      1 <0>        -0.1414
     17 C17        -3.7343    1.0441    1.9635 C.ar      1 <0>         0.1430
     18 N1         -4.4024   -0.1323    1.6438 N.am      1 <0>        -0.6671
     19 C18        -3.6319   -0.9494    0.9058 C.2       1 <0>         0.5669
     20 O1         -3.9509   -2.0448    0.4815 O.2       1 <0>        -0.5048
     21 H1          3.1716    2.2432   -3.2618 H         1 <0>         0.0571
     22 H2          3.9638    3.8002   -2.8433 H         1 <0>         0.0607
     23 H3          2.1727    3.6673   -2.8139 H         1 <0>         0.0583
     24 H4          4.1066    2.1677   -0.9541 H         1 <0>         0.0799
     25 H5          3.1340    3.6492    0.7961 H         1 <0>         0.0573
     26 H6          2.1508    4.4852   -0.4533 H         1 <0>         0.0585
     27 H7          3.9419    4.6180   -0.4827 H         1 <0>         0.0607
     28 H8          0.5399    3.2649   -1.3679 H         1 <0>         0.1272
     29 H9         -1.3640    1.7886   -0.8785 H         1 <0>         0.1278
     30 H10         1.3734   -1.3311    0.2328 H         1 <0>         0.1289
     31 H11         3.2589    0.1650   -0.2680 H         1 <0>         0.1267
     32 H12        -1.2369   -1.8073   -0.3238 H         1 <0>         0.1495
     33 H13        -0.5810    2.0433    1.1722 H         1 <0>         0.1375
     34 H14        -1.3014    4.0009    2.4799 H         1 <0>         0.1284
     35 H15        -3.5588    4.0712    3.4529 H         1 <0>         0.1307
     36 H16        -5.1138    2.2005    3.1293 H         1 <0>         0.1277
     37 H17        -5.4331   -0.2919    1.9933 H         1 <0>         0.4441
@<TRIPOS>BOND
     1    1    2 1
     2    1   21 1
     3    1   22 1
     4    1   23 1
     5    2    3 1
     6    2    4 1
     7    2   24 1
     8    3   25 1
     9    3   26 1
    10    3   27 1
    11    4    9 ar
    12    4    5 ar
    13    5    6 ar
    14    5   28 1
    15    6    7 ar
    16    6   29 1
    17    7    8 ar
    18    7   10 1
    19    8    9 ar
    20    8   30 1
    21    9   31 1
    22   10   11 2
    23   10   32 1
    24   11   19 1
    25   11   12 1
    26   12   17 ar
    27   12   13 ar
    28   13   14 ar
    29   13   33 1
    30   14   15 ar
    31   14   34 1
    32   15   16 ar
    33   15   35 1
    34   16   17 ar
    35   16   36 1
    36   17   18 1
    37   18   19 am
    38   18   37 1
    39   19   20 2
@<TRIPOS>MOLECULE
ZINC03964325
   57    59     0     0     0
SMALL
USER_CHARGES

@<TRIPOS>ATOM
      1 C1          0.1489    2.0884    0.1150 C.3       1 <0>        -0.1876
      2 C2          0.1348    0.5603    0.1888 C.3       1 <0>        -0.0191
      3 N1         -1.2520    0.0881    0.2979 N.4       1 <0>        -0.3822
      4 C3         -1.9779    0.4111   -0.9377 C.3       1 <0>        -0.0142
      5 C4         -3.4549    0.0484   -0.7712 C.3       1 <0>        -0.1895
      6 C5         -1.2593   -1.3663    0.5041 C.3       1 <0>        -0.0265
      7 C6         -0.6131   -1.6936    1.8518 C.3       1 <0>         0.0952
      8 N2         -0.6203   -3.1440    2.0575 N.am      1 <0>        -0.7289
      9 C7         -0.0988   -3.6675    3.1846 C.2       1 <0>         0.6111
     10 O1          0.3779   -2.9358    4.0309 O.2       1 <0>        -0.5184
     11 C8         -0.1061   -5.1270    3.3915 C.2       1 <0>        -0.2420
     12 C9          0.9071   -6.0320    3.0089 C.2       1 <0>        -0.0577
     13 C10         0.4868   -7.2892    3.3960 C.2       1 <0>        -0.0075
     14 N3         -0.7476   -7.1595    3.9982 N.pl3     1 <0>        -0.4910
     15 H1         -1.2731   -7.8879    4.3645 H         1 <0>         0.4270
     16 C11        -1.1044   -5.8642    4.0022 C.2       1 <0>         0.1158
     17 C12        -2.3825   -5.3072    4.5743 C.3       1 <0>        -0.0999
     18 C13         1.1957   -8.4957    3.2079 C.2       1 <0>         0.0729
     19 C14         0.5100   -9.6674    2.9570 C.2       1 <0>        -0.1889
     20 C15         1.0648  -11.0377    2.8871 C.ar      1 <0>        -0.0736
     21 C16         2.3472  -11.5557    3.0375 C.ar      1 <0>        -0.1000
     22 C17         2.5553  -12.9162    2.9116 C.ar      1 <0>         0.0861
     23 C18         1.4888  -13.7593    2.6366 C.ar      1 <0>        -0.1139
     24 C19         0.2139  -13.2531    2.4856 C.ar      1 <0>        -0.1021
     25 C20        -0.0144  -11.8871    2.6092 C.ar      1 <0>         0.1282
     26 N4         -1.1765  -11.1301    2.5069 N.am      1 <0>        -0.6466
     27 C21        -0.9294   -9.8245    2.7079 C.2       1 <0>         0.5595
     28 O2         -1.7538   -8.9280    2.6842 O.2       1 <0>        -0.5156
     29 F1          3.7984  -13.4252    3.0561 F         1 <0>        -0.1318
     30 C22         2.1990   -5.6919    2.3116 C.3       1 <0>        -0.0931
     31 H2          1.1793    2.4435    0.1331 H         1 <0>         0.1076
     32 H3         -0.3308    2.4121   -0.8087 H         1 <0>         0.0811
     33 H4         -0.3916    2.4984    0.9682 H         1 <0>         0.0809
     34 H5          0.5888    0.1488   -0.7126 H         1 <0>         0.1317
     35 H6          0.6996    0.2334    1.0619 H         1 <0>         0.1337
     36 H7         -1.8867    1.4775   -1.1444 H         1 <0>         0.1351
     37 H8         -1.5554   -0.1571   -1.7664 H         1 <0>         0.1307
     38 H9         -3.5537   -1.0316   -0.6617 H         1 <0>         0.0802
     39 H10        -3.8523    0.5414    0.1160 H         1 <0>         0.0808
     40 H11        -4.0109    0.3769   -1.6492 H         1 <0>         0.1074
     41 H12        -2.2871   -1.7292    0.4963 H         1 <0>         0.1397
     42 H13        -0.6973   -1.8494   -0.2952 H         1 <0>         0.1376
     43 H14         0.4147   -1.3306    1.8596 H         1 <0>         0.0893
     44 H15        -1.1751   -1.2105    2.6511 H         1 <0>         0.0890
     45 H16        -1.0005   -3.7277    1.3824 H         1 <0>         0.4099
     46 H17        -3.1529   -5.3000    3.8032 H         1 <0>         0.0840
     47 H18        -2.7087   -5.9289    5.4080 H         1 <0>         0.0782
     48 H19        -2.2103   -4.2898    4.9254 H         1 <0>         0.0840
     49 H20         2.2744   -8.5020    3.2604 H         1 <0>         0.1589
     50 H21         3.1765  -10.8977    3.2512 H         1 <0>         0.1436
     51 H22         1.6578  -14.8215    2.5394 H         1 <0>         0.1485
     52 H23        -0.6084  -13.9196    2.2712 H         1 <0>         0.1415
     53 H24        -2.0541  -11.4980    2.3189 H         1 <0>         0.4217
     54 H25         2.9686   -5.4822    3.0545 H         1 <0>         0.0785
     55 H26         2.5107   -6.5337    1.6932 H         1 <0>         0.0726
     56 H27         2.0522   -4.8138    1.6827 H         1 <0>         0.0634
     57 H28        -1.7009    0.5410    1.0799 H         1 <0>         0.4247
@<TRIPOS>BOND
     1    1    2 1
     2    1   31 1
     3    1   32 1
     4    1   33 1
     5    2    3 1
     6    2   34 1
     7    2   35 1
     8    3    4 1
     9    3    6 1
    10    3   57 1
    11    4    5 1
    12    4   36 1
    13    4   37 1
    14    5   38 1
    15    5   39 1
    16    5   40 1
    17    6    7 1
    18    6   41 1
    19    6   42 1
    20    7    8 1
    21    7   43 1
    22    7   44 1
    23    8    9 am
    24    8   45 1
    25    9   10 2
    26    9   11 1
    27   11   16 2
    28   11   12 1
    29   12   13 2
    30   12   30 1
    31   13   14 1
    32   13   18 1
    33   14   15 1
    34   14   16 1
    35   16   17 1
    36   17   46 1
    37   17   47 1
    38   17   48 1
    39   18   19 2
    40   18   49 1
    41   19   27 1
    42   19   20 1
    43   20   25 ar
    44   20   21 ar
    45   21   22 ar
    46   21   50 1
    47   22   23 ar
    48   22   29 1
    49   23   24 ar
    50   23   51 1
    51   24   25 ar
    52   24   52 1
    53   25   26 1
    54   26   27 am
    55   26   53 1
    56   27   28 2
    57   30   54 1
    58   30   55 1
    59   30   56 1
@<TRIPOS>MOLECULE
ZINC03262621
   41    44     0     0     0
SMALL
USER_CHARGES
3-[(4-morpholinophenyl)methylene]indolin-2-one
@<TRIPOS>ATOM
      1 C1         -9.6590   -3.1626    0.4957 C.ar      1 <0>        -0.1406
      2 C2        -10.3108   -2.1858    1.2299 C.ar      1 <0>        -0.0822
      3 C3         -9.6344   -1.0639    1.6640 C.ar      1 <0>        -0.1381
      4 C4         -8.2852   -0.9038    1.3669 C.ar      1 <0>         0.1440
      5 C5         -7.6295   -1.8946    0.6244 C.ar      1 <0>        -0.1051
      6 C6         -8.3200   -3.0215    0.1915 C.ar      1 <0>        -0.0634
      7 C7         -6.2268   -1.4445    0.4749 C.2       1 <0>        -0.1739
      8 C8         -5.2125   -2.0874   -0.1755 C.2       1 <0>         0.0427
      9 C9         -3.9252   -1.4160   -0.3694 C.ar      1 <0>        -0.1286
     10 C10        -2.7291   -2.1357   -0.2353 C.ar      1 <0>        -0.0596
     11 C11        -1.5316   -1.5051   -0.4166 C.ar      1 <0>        -0.1528
     12 C12        -1.4967   -0.1491   -0.7339 C.ar      1 <0>         0.1337
     13 C13        -2.6819    0.5715   -0.8631 C.ar      1 <0>        -0.1787
     14 C14        -3.8847   -0.0512   -0.6894 C.ar      1 <0>        -0.0141
     15 N1         -0.2750    0.4885   -0.9166 N.pl3     1 <0>        -0.4885
     16 C15        -0.4656    1.9092   -1.2427 C.3       1 <0>         0.0109
     17 C16         0.8986    2.5572   -1.4938 C.3       1 <0>         0.0619
     18 O1          1.7275    2.3723   -0.3431 O.3       1 <0>        -0.3824
     19 C17         1.9348    1.0002    0.0027 C.3       1 <0>         0.0615
     20 C18         0.5811    0.3365    0.2689 C.3       1 <0>         0.0199
     21 C19        -6.1615   -0.1568    1.1849 C.2       1 <0>         0.5558
     22 O2         -5.1744    0.5462    1.3037 O.2       1 <0>        -0.4938
     23 N2         -7.3842    0.1083    1.6757 N.am      1 <0>        -0.6561
     24 H1        -10.1990   -4.0359    0.1608 H         1 <0>         0.1309
     25 H2        -11.3584   -2.3029    1.4646 H         1 <0>         0.1320
     26 H3        -10.1536   -0.3090    2.2358 H         1 <0>         0.1279
     27 H4         -7.8109   -3.7828   -0.3810 H         1 <0>         0.1289
     28 H5         -5.3595   -3.0908   -0.5469 H         1 <0>         0.1437
     29 H6         -2.7550   -3.1870    0.0107 H         1 <0>         0.1290
     30 H7         -0.6099   -2.0585   -0.3135 H         1 <0>         0.1278
     31 H8         -2.6495    1.6236   -1.1051 H         1 <0>         0.1281
     32 H9         -4.8031    0.5073   -0.7942 H         1 <0>         0.1223
     33 H10        -1.0809    1.9977   -2.1381 H         1 <0>         0.0952
     34 H11        -0.9591    2.4107   -0.4102 H         1 <0>         0.0591
     35 H12         1.3689    2.0914   -2.3598 H         1 <0>         0.0627
     36 H13         0.7665    3.6230   -1.6798 H         1 <0>         0.1041
     37 H14         2.5522    0.9400    0.8990 H         1 <0>         0.1043
     38 H15         2.4356    0.4887   -0.8193 H         1 <0>         0.0631
     39 H16         0.1044    0.8128    1.1256 H         1 <0>         0.0562
     40 H17         0.7299   -0.7231    0.4770 H         1 <0>         0.0948
     41 H18        -7.6082    0.9030    2.1849 H         1 <0>         0.4173
@<TRIPOS>BOND
     1    1    6 ar
     2    1    2 ar
     3    1   24 1
     4    2    3 ar
     5    2   25 1
     6    3    4 ar
     7    3   26 1
     8    4   23 1
     9    4    5 ar
    10    5    6 ar
    11    5    7 1
    12    6   27 1
    13    7    8 2
    14    7   21 1
    15    8    9 1
    16    8   28 1
    17    9   14 ar
    18    9   10 ar
    19   10   11 ar
    20   10   29 1
    21   11   12 ar
    22   11   30 1
    23   12   13 ar
    24   12   15 1
    25   13   14 ar
    26   13   31 1
    27   14   32 1
    28   15   20 1
    29   15   16 1
    30   16   17 1
    31   16   33 1
    32   16   34 1
    33   17   18 1
    34   17   35 1
    35   17   36 1
    36   18   19 1
    37   19   20 1
    38   19   37 1
    39   19   38 1
    40   20   39 1
    41   20   40 1
    42   21   22 2
    43   21   23 am
    44   23   41 1
@<TRIPOS>MOLECULE
ZINC03874586
   26    28     0     0     0
SMALL
USER_CHARGES
(3Z)-3-(1H-pyrrol-2-ylmethylene)indolin-2-one
@<TRIPOS>ATOM
      1 C1          7.0447    1.1800   -0.4427 C.ar      1 <0>        -0.1433
      2 C2          7.6417    2.4276   -0.5186 C.ar      1 <0>        -0.0761
      3 C3          6.8792    3.5765   -0.4637 C.ar      1 <0>        -0.1404
      4 C4          5.4975    3.4914   -0.3312 C.ar      1 <0>         0.1515
      5 C5          4.8971    2.2272   -0.2552 C.ar      1 <0>        -0.1173
      6 C6          5.6749    1.0750   -0.3114 C.ar      1 <0>        -0.0565
      7 C7          3.4426    2.4639   -0.1215 C.2       1 <0>        -0.1358
      8 C8          2.4433    1.5157   -0.0127 C.2       1 <0>         0.0467
      9 C9          1.1118    1.9181    0.2193 C.2       1 <0>        -0.0015
     10 C10         0.1329    2.1100   -0.7436 C.2       1 <0>        -0.1517
     11 C11        -1.0261    2.5088   -0.0753 C.2       1 <0>        -0.1986
     12 C12        -0.7515    2.5460    1.2525 C.2       1 <0>         0.0006
     13 N1          0.5443    2.1928    1.4450 N.pl3     1 <0>        -0.5342
     14 H1          0.9957    2.1416    2.3021 H         1 <0>         0.4138
     15 C13         3.2904    3.9244   -0.1359 C.2       1 <0>         0.5524
     16 O1          2.2396    4.5354   -0.0532 O.2       1 <0>        -0.4793
     17 N2          4.5133    4.4689   -0.2532 N.am      1 <0>        -0.6582
     18 H2          7.6521    0.2880   -0.4867 H         1 <0>         0.1321
     19 H3          8.7142    2.5019   -0.6212 H         1 <0>         0.1333
     20 H4          7.3563    4.5435   -0.5243 H         1 <0>         0.1293
     21 H5          5.2087    0.1026   -0.2529 H         1 <0>         0.1304
     22 H6          2.6820    0.4665   -0.1053 H         1 <0>         0.1464
     23 H7          0.2468    1.9801   -1.8097 H         1 <0>         0.1362
     24 H8         -1.9750    2.7438   -0.5344 H         1 <0>         0.1371
     25 H9         -1.4501    2.8169    2.0303 H         1 <0>         0.1648
     26 H10         4.6864    5.4228   -0.2844 H         1 <0>         0.4184
@<TRIPOS>BOND
     1    1    6 ar
     2    1    2 ar
     3    1   18 1
     4    2    3 ar
     5    2   19 1
     6    3    4 ar
     7    3   20 1
     8    4   17 1
     9    4    5 ar
    10    5    6 ar
    11    5    7 1
    12    6   21 1
    13    7    8 2
    14    7   15 1
    15    8    9 1
    16    8   22 1
    17    9   13 1
    18    9   10 2
    19   10   11 1
    20   10   23 1
    21   11   12 2
    22   11   24 1
    23   12   13 1
    24   12   25 1
    25   13   14 1
    26   15   16 2
    27   15   17 am
    28   17   26 1
@<TRIPOS>MOLECULE
ZINC12339635
   32    34     0     0     0
SMALL
USER_CHARGES
(3Z)-3-[(4-methoxyphenyl)methylene]indolin-2-one
@<TRIPOS>ATOM
      1 C1          0.7265    8.2921    1.1018 C.3       1 <0>         0.0250
      2 O1         -0.4677    7.8272    0.4695 O.3       1 <0>        -0.3146
      3 C2         -0.6241    6.4836    0.3602 C.ar      1 <0>         0.1510
      4 C3         -1.7643    5.9659   -0.2449 C.ar      1 <0>        -0.1658
      5 C4         -1.9280    4.6093   -0.3578 C.ar      1 <0>        -0.0457
      6 C5         -0.9431    3.7437    0.1377 C.ar      1 <0>        -0.1430
      7 C6          0.2014    4.2713    0.7514 C.ar      1 <0>        -0.0020
      8 C7          0.3568    5.6298    0.8534 C.ar      1 <0>        -0.2175
      9 C8         -1.1121    2.2925    0.0201 C.2       1 <0>         0.0457
     10 C9         -0.0369    1.5009   -0.2630 C.2       1 <0>        -0.1763
     11 C10         0.0210    0.0213   -0.2513 C.ar      1 <0>        -0.1043
     12 C11        -0.9160   -0.9667    0.0317 C.ar      1 <0>        -0.0638
     13 C12        -0.5533   -2.2963   -0.0457 C.ar      1 <0>        -0.1405
     14 C13         0.7387   -2.6437   -0.4039 C.ar      1 <0>        -0.0826
     15 C14         1.6757   -1.6707   -0.6862 C.ar      1 <0>        -0.1379
     16 C15         1.3291   -0.3258   -0.6135 C.ar      1 <0>         0.1436
     17 N1          2.0634    0.8319   -0.8426 N.am      1 <0>        -0.6559
     18 C16         1.3161    1.9325   -0.6527 C.2       1 <0>         0.5557
     19 O2          1.6913    3.0837   -0.7810 O.2       1 <0>        -0.4944
     20 H1          0.7711    7.9082    2.1210 H         1 <0>         0.0576
     21 H2          1.5939    7.9408    0.5429 H         1 <0>         0.0582
     22 H3          0.7254    9.3819    1.1238 H         1 <0>         0.1024
     23 H4         -2.5224    6.6338   -0.6264 H         1 <0>         0.1346
     24 H5         -2.8138    4.2084   -0.8280 H         1 <0>         0.1344
     25 H6          0.9613    3.6091    1.1394 H         1 <0>         0.1248
     26 H7          1.2402    6.0375    1.3221 H         1 <0>         0.1300
     27 H8         -2.0875    1.8496    0.1573 H         1 <0>         0.1441
     28 H9         -1.9232   -0.6948    0.3109 H         1 <0>         0.1290
     29 H10        -1.2779   -3.0666    0.1733 H         1 <0>         0.1308
     30 H11         1.0155   -3.6860   -0.4625 H         1 <0>         0.1319
     31 H12         2.6801   -1.9542   -0.9644 H         1 <0>         0.1278
     32 H13         2.9968    0.8439   -1.1063 H         1 <0>         0.4173
@<TRIPOS>BOND
     1    1    2 1
     2    1   20 1
     3    1   21 1
     4    1   22 1
     5    2    3 1
     6    3    8 ar
     7    3    4 ar
     8    4    5 ar
     9    4   23 1
    10    5    6 ar
    11    5   24 1
    12    6    7 ar
    13    6    9 1
    14    7    8 ar
    15    7   25 1
    16    8   26 1
    17    9   10 2
    18    9   27 1
    19   10   18 1
    20   10   11 1
    21   11   16 ar
    22   11   12 ar
    23   12   13 ar
    24   12   28 1
    25   13   14 ar
    26   13   29 1
    27   14   15 ar
    28   14   30 1
    29   15   16 ar
    30   15   31 1
    31   16   17 1
    32   17   18 am
    33   17   32 1
    34   18   19 2
@<TRIPOS>MOLECULE
ZINC03815485
   37    39     0     0     0
SMALL
USER_CHARGES
3-[4-methyl-2-[(2-oxoindolin-3-ylidene)methyl]-1H-pyrrol-3-yl]propanoic acid
@<TRIPOS>ATOM
      1 C1          6.4107    5.2592    0.3537 C.3       1 <0>        -0.0795
      2 C2          5.3007    4.2465    0.2384 C.2       1 <0>        -0.1824
      3 C3          5.4531    2.9006    0.1670 C.2       1 <0>         0.0341
      4 N1          4.2294    2.3226    0.0715 N.pl3     1 <0>        -0.5149
      5 H1          4.0567    1.3703    0.0065 H         1 <0>         0.4168
      6 C4          3.2725    3.3147    0.0816 C.2       1 <0>        -0.0293
      7 C5          3.9347    4.5288    0.1802 C.2       1 <0>        -0.0647
      8 C6          3.2997    5.8949    0.2206 C.3       1 <0>        -0.0405
      9 C7          3.0113    6.2804    1.6729 C.3       1 <0>        -0.1466
     10 C8          2.3763    7.6465    1.7134 C.2       1 <0>         0.4587
     11 O1          2.1750    8.2498    0.6860 O.co2     1 <0>        -0.6409
     12 C9          1.8769    3.1293    0.0005 C.2       1 <0>         0.1068
     13 C10         1.3602    2.0950   -0.7562 C.2       1 <0>        -0.2301
     14 C11        -0.0507    1.6563   -0.8367 C.ar      1 <0>        -0.0827
     15 C12        -1.2222    2.0949   -0.2277 C.ar      1 <0>        -0.0701
     16 C13        -2.4180    1.4683   -0.5138 C.ar      1 <0>        -0.1371
     17 C14        -2.4493    0.4013   -1.3965 C.ar      1 <0>        -0.0942
     18 C15        -1.2923   -0.0444   -2.0023 C.ar      1 <0>        -0.1378
     19 C16        -0.0783    0.5770   -1.7304 C.ar      1 <0>         0.1314
     20 N2          1.2094    0.3347   -2.1925 N.am      1 <0>        -0.6534
     21 C17         2.0923    1.1937   -1.6552 C.2       1 <0>         0.5578
     22 O2          3.2903    1.2198   -1.8751 O.2       1 <0>        -0.5177
     23 H2          6.7296    5.5639   -0.6430 H         1 <0>         0.0584
     24 H3          6.0524    6.1301    0.9026 H         1 <0>         0.0675
     25 H4          7.2530    4.8161    0.8851 H         1 <0>         0.0563
     26 H5          6.3961    2.3743    0.1835 H         1 <0>         0.1640
     27 H6          3.9786    6.6243   -0.2210 H         1 <0>         0.0750
     28 H7          2.3669    5.8788   -0.3431 H         1 <0>         0.0676
     29 H8          2.3324    5.5510    2.1146 H         1 <0>         0.0610
     30 H9          3.9441    6.2965    2.2366 H         1 <0>         0.0651
     31 H10         1.2120    3.7956    0.5299 H         1 <0>         0.1543
     32 H11        -1.1970    2.9269    0.4604 H         1 <0>         0.1314
     33 H12        -3.3302    1.8080   -0.0459 H         1 <0>         0.1288
     34 H13        -3.3882   -0.0868   -1.6125 H         1 <0>         0.1278
     35 H14        -1.3297   -0.8771   -2.6890 H         1 <0>         0.1231
     36 H15         1.4415   -0.3650   -2.8228 H         1 <0>         0.4132
     37 O3          2.0343    8.1931    2.8907 O.co2     1 <0>        -0.7772
@<TRIPOS>BOND
     1    1    2 1
     2    1   23 1
     3    1   24 1
     4    1   25 1
     5    2    7 1
     6    2    3 2
     7    3    4 1
     8    3   26 1
     9    4    5 1
    10    4    6 1
    11    6    7 2
    12    6   12 1
    13    7    8 1
    14    8    9 1
    15    8   27 1
    16    8   28 1
    17    9   10 1
    18    9   29 1
    19    9   30 1
    20   10   11 2
    21   10   37 1
    22   12   13 2
    23   12   31 1
    24   13   21 1
    25   13   14 1
    26   14   19 ar
    27   14   15 ar
    28   15   16 ar
    29   15   32 1
    30   16   17 ar
    31   16   33 1
    32   17   18 ar
    33   17   34 1
    34   18   19 ar
    35   18   35 1
    36   19   20 1
    37   20   21 am
    38   20   36 1
    39   21   22 2
@<TRIPOS>MOLECULE
ZINC13780154
   53    55     0     0     0
SMALL
USER_CHARGES
(3Z)-3-[(3,5-ditert-butyl-4-hydroxy-phenyl)methylene]indolin-2-one
@<TRIPOS>ATOM
      1 C1          1.7152    3.0081    3.5970 C.3       1 <0>        -0.1473
      2 C2          0.8904    2.3306    2.5008 C.3       1 <0>        -0.0171
      3 C3         -0.3935    3.1278    2.2623 C.3       1 <0>        -0.1419
      4 C4          0.5338    0.9079    2.9366 C.3       1 <0>        -0.1408
      5 C5          1.6939    2.2792    1.2269 C.ar      1 <0>        -0.1006
      6 C6          2.9642    2.7946    1.1979 C.ar      1 <0>        -0.0365
      7 C7          3.7081    2.7512    0.0107 C.ar      1 <0>        -0.1057
      8 C8          3.1500    2.1754   -1.1390 C.ar      1 <0>        -0.0807
      9 C9          1.8809    1.6581   -1.0963 C.ar      1 <0>        -0.1053
     10 C10         1.1476    1.7040    0.0846 C.ar      1 <0>         0.1383
     11 O1         -0.1081    1.1905    0.1208 O.3       1 <0>        -0.4858
     12 C11         1.2792    1.0391   -2.3315 C.3       1 <0>        -0.0193
     13 C12         2.2849    1.1159   -3.4820 C.3       1 <0>        -0.1469
     14 C13         0.9347   -0.4252   -2.0521 C.3       1 <0>        -0.1425
     15 C14         0.0072    1.7982   -2.7145 C.3       1 <0>        -0.1416
     16 C15         5.0641    3.3063   -0.0285 C.2       1 <0>         0.0370
     17 C16         5.9035    3.1331    1.0338 C.2       1 <0>        -0.1687
     18 C17         7.2331    3.7507    1.2420 C.ar      1 <0>        -0.1065
     19 C18         7.9951    4.6455    0.4984 C.ar      1 <0>        -0.0627
     20 C19         9.2263    5.0534    0.9707 C.ar      1 <0>        -0.1408
     21 C20         9.6966    4.5786    2.1838 C.ar      1 <0>        -0.0814
     22 C21         8.9447    3.6961    2.9325 C.ar      1 <0>        -0.1384
     23 C22         7.7021    3.2734    2.4728 C.ar      1 <0>         0.1454
     24 N1          6.7606    2.4077    3.0171 N.am      1 <0>        -0.6562
     25 C23         5.6863    2.2865    2.2190 C.2       1 <0>         0.5548
     26 O2          4.7060    1.5982    2.4374 O.2       1 <0>        -0.4884
     27 H1          1.9692    4.0216    3.2866 H         1 <0>         0.0534
     28 H2          1.1341    3.0452    4.5185 H         1 <0>         0.0571
     29 H3          2.6299    2.4401    3.7670 H         1 <0>         0.0642
     30 H4         -0.9810    2.6451    1.4813 H         1 <0>         0.0745
     31 H5         -0.9746    3.1649    3.1837 H         1 <0>         0.0535
     32 H6         -0.1394    4.1413    1.9519 H         1 <0>         0.0499
     33 H7          1.4485    0.3400    3.1065 H         1 <0>         0.0565
     34 H8         -0.0473    0.9451    3.8580 H         1 <0>         0.0587
     35 H9         -0.0537    0.4253    2.1556 H         1 <0>         0.0563
     36 H10         3.3892    3.2367    2.0869 H         1 <0>         0.1309
     37 H11         3.7184    2.1395   -2.0566 H         1 <0>         0.1324
     38 H12        -0.1438    0.2557    0.3657 H         1 <0>         0.3836
     39 H13         3.1911    0.5751   -3.2092 H         1 <0>         0.0574
     40 H14         1.8497    0.6681   -4.3755 H         1 <0>         0.0597
     41 H15         2.5303    2.1590   -3.6811 H         1 <0>         0.0587
     42 H16         0.2183   -0.4799   -1.2325 H         1 <0>         0.0578
     43 H17         0.4995   -0.8729   -2.9456 H         1 <0>         0.0603
     44 H18         1.8409   -0.9660   -1.7793 H         1 <0>         0.0540
     45 H19         0.2526    2.8414   -2.9136 H         1 <0>         0.0510
     46 H20        -0.4280    1.3505   -3.6080 H         1 <0>         0.0538
     47 H21        -0.7092    1.7435   -1.8949 H         1 <0>         0.0748
     48 H22         5.3992    3.8523   -0.8980 H         1 <0>         0.1439
     49 H23         7.6276    5.0153   -0.4474 H         1 <0>         0.1288
     50 H24         9.8235    5.7440    0.3938 H         1 <0>         0.1309
     51 H25        10.6606    4.9022    2.5474 H         1 <0>         0.1321
     52 H26         9.3219    3.3334    3.8772 H         1 <0>         0.1280
     53 H27         6.8655    1.9497    3.8657 H         1 <0>         0.4174
@<TRIPOS>BOND
     1    1    2 1
     2    1   27 1
     3    1   28 1
     4    1   29 1
     5    2    3 1
     6    2    4 1
     7    2    5 1
     8    3   30 1
     9    3   31 1
    10    3   32 1
    11    4   33 1
    12    4   34 1
    13    4   35 1
    14    5   10 ar
    15    5    6 ar
    16    6    7 ar
    17    6   36 1
    18    7    8 ar
    19    7   16 1
    20    8    9 ar
    21    8   37 1
    22    9   10 ar
    23    9   12 1
    24   10   11 1
    25   11   38 1
    26   12   13 1
    27   12   14 1
    28   12   15 1
    29   13   39 1
    30   13   40 1
    31   13   41 1
    32   14   42 1
    33   14   43 1
    34   14   44 1
    35   15   45 1
    36   15   46 1
    37   15   47 1
    38   16   17 2
    39   16   48 1
    40   17   25 1
    41   17   18 1
    42   18   23 ar
    43   18   19 ar
    44   19   20 ar
    45   19   49 1
    46   20   21 ar
    47   20   50 1
    48   21   22 ar
    49   21   51 1
    50   22   23 ar
    51   22   52 1
    52   23   24 1
    53   24   25 am
    54   24   53 1
    55   25   26 2
