@<TRIPOS>MOLECULE
ZINC00001624
   53    55     0     0     0
SMALL
USER_CHARGES

@<TRIPOS>ATOM
      1 C1         -0.5345    1.3876    0.5891 C.3       1 <0>        -0.0637
      2 N1         -0.8728   -0.0335    0.7443 N.4       1 <0>        -0.3784
      3 C2         -0.4779   -0.7639   -0.4661 C.3       1 <0>         0.0307
      4 H1          0.6039   -0.7076   -0.5872 H         1 <0>         0.1441
      5 C3         -0.9012   -2.2292   -0.3430 C.3       1 <0>        -0.1432
      6 C4         -0.2165   -2.8519    0.8771 C.3       1 <0>        -0.1338
      7 C5         -0.5761   -2.0373    2.1231 C.3       1 <0>        -0.1438
      8 C6         -0.1648   -0.5791    1.9086 C.3       1 <0>         0.0380
      9 H2          0.9103   -0.5268    1.7369 H         1 <0>         0.1451
     10 C7         -0.5220    0.2389    3.1513 C.3       1 <0>        -0.1973
     11 C8          0.3188   -0.2212    4.3142 C.2       1 <0>         0.4111
     12 O1          1.1969   -1.0393    4.1414 O.2       1 <0>        -0.4393
     13 C9          0.0741    0.3223    5.6598 C.ar      1 <0>        -0.1847
     14 C10        -0.9416    1.2617    5.8643 C.ar      1 <0>        -0.0760
     15 C11        -1.1650    1.7660    7.1280 C.ar      1 <0>        -0.1304
     16 C12        -0.3872    1.3448    8.1926 C.ar      1 <0>        -0.0738
     17 C13         0.6201    0.4158    7.9982 C.ar      1 <0>        -0.1275
     18 C14         0.8522   -0.1021    6.7416 C.ar      1 <0>        -0.0530
     19 C15        -1.1601   -0.1379   -1.6841 C.3       1 <0>        -0.1764
     20 C16        -0.6804   -0.8417   -2.9551 C.3       1 <0>         0.1585
     21 H3         -0.8469   -1.9148   -2.8610 H         1 <0>         0.1186
     22 C17        -1.4483   -0.3163   -4.1406 C.ar      1 <0>        -0.1341
     23 C18        -1.0265    0.8327   -4.7831 C.ar      1 <0>        -0.1096
     24 C19        -1.7309    1.3147   -5.8705 C.ar      1 <0>        -0.1139
     25 C20        -2.8567    0.6474   -6.3157 C.ar      1 <0>        -0.1081
     26 C21        -3.2779   -0.5021   -5.6737 C.ar      1 <0>        -0.1139
     27 C22        -2.5711   -0.9865   -4.5890 C.ar      1 <0>        -0.1085
     28 O2          0.7140   -0.5905   -3.1414 O.3       1 <0>        -0.5474
     29 H4          0.5421    1.4922    0.4544 H         1 <0>         0.1254
     30 H5         -1.0505    1.7909   -0.2821 H         1 <0>         0.1288
     31 H6         -0.8439    1.9341    1.4800 H         1 <0>         0.1266
     32 H7         -1.9829   -2.2867   -0.2221 H         1 <0>         0.0887
     33 H8         -0.6055   -2.7702   -1.2419 H         1 <0>         0.1146
     34 H9         -0.5584   -3.8793    1.0021 H         1 <0>         0.0967
     35 H10         0.8640   -2.8410    0.7338 H         1 <0>         0.0846
     36 H11        -1.6511   -2.0908    2.2951 H         1 <0>         0.0863
     37 H12        -0.0480   -2.4412    2.9869 H         1 <0>         0.1194
     38 H13        -0.3297    1.2944    2.9591 H         1 <0>         0.1249
     39 H14        -1.5768    0.0988    3.3877 H         1 <0>         0.1231
     40 H15        -1.5491    1.5916    5.0345 H         1 <0>         0.1277
     41 H16        -1.9488    2.4917    7.2876 H         1 <0>         0.1342
     42 H17        -0.5671    1.7434    9.1801 H         1 <0>         0.1346
     43 H18         1.2230    0.0924    8.8338 H         1 <0>         0.1362
     44 H19         1.6357   -0.8303    6.5923 H         1 <0>         0.1368
     45 H20        -2.2405   -0.2494   -1.5927 H         1 <0>         0.1010
     46 H21        -0.9073    0.9211   -1.7378 H         1 <0>         0.0953
     47 H22        -0.1470    1.3540   -4.4353 H         1 <0>         0.1194
     48 H23        -1.4018    2.2127   -6.3721 H         1 <0>         0.1278
     49 H24        -3.4074    1.0243   -7.1648 H         1 <0>         0.1284
     50 H25        -4.1577   -1.0233   -6.0213 H         1 <0>         0.1286
     51 H26        -2.8980   -1.8866   -4.0897 H         1 <0>         0.1238
     52 H27         0.9491    0.3474   -3.1334 H         1 <0>         0.3779
     53 H28        -1.8678   -0.1281    0.8823 H         1 <0>         0.4198
@<TRIPOS>BOND
     1    1    2 1
     2    1   29 1
     3    1   30 1
     4    1   31 1
     5    2    8 1
     6    2    3 1
     7    2   53 1
     8    3    4 1
     9    3    5 1
    10    3   19 1
    11    5    6 1
    12    5   32 1
    13    5   33 1
    14    6    7 1
    15    6   34 1
    16    6   35 1
    17    7    8 1
    18    7   36 1
    19    7   37 1
    20    8    9 1
    21    8   10 1
    22   10   11 1
    23   10   38 1
    24   10   39 1
    25   11   12 2
    26   11   13 1
    27   13   18 ar
    28   13   14 ar
    29   14   15 ar
    30   14   40 1
    31   15   16 ar
    32   15   41 1
    33   16   17 ar
    34   16   42 1
    35   17   18 ar
    36   17   43 1
    37   18   44 1
    38   19   20 1
    39   19   45 1
    40   19   46 1
    41   20   21 1
    42   20   22 1
    43   20   28 1
    44   22   27 ar
    45   22   23 ar
    46   23   24 ar
    47   23   47 1
    48   24   25 ar
    49   24   48 1
    50   25   26 ar
    51   25   49 1
    52   26   27 ar
    53   26   50 1
    54   27   51 1
    55   28   52 1
@<TRIPOS>MOLECULE
ZINC03831004
   53    55     0     0     0
SMALL
USER_CHARGES

@<TRIPOS>ATOM
      1 C1          0.0561    1.2782   -0.1578 C.3       1 <0>        -0.0599
      2 N1          0.0581   -0.1906   -0.1799 N.4       1 <0>        -0.3789
      3 C2          0.5141   -0.6580   -1.4945 C.3       1 <0>         0.0348
      4 H1         -0.1236   -0.2355   -2.2711 H         1 <0>         0.1392
      5 C3          0.4410   -2.1855   -1.5505 C.3       1 <0>        -0.1577
      6 C4          1.3383   -2.7743   -0.4581 C.3       1 <0>        -0.1317
      7 C5          0.9005   -2.2218    0.9014 C.3       1 <0>        -0.1475
      8 C6          0.9565   -0.6930    0.8665 C.3       1 <0>         0.0330
      9 H2          1.9763   -0.3720    0.6541 H         1 <0>         0.1427
     10 C7          0.5201   -0.1362    2.2231 C.3       1 <0>        -0.1963
     11 C8          1.5069   -0.5590    3.2806 C.2       1 <0>         0.4114
     12 O1          2.4380   -1.2786    2.9881 O.2       1 <0>        -0.4398
     13 C9          1.3406   -0.0985    4.6685 C.ar      1 <0>        -0.1847
     14 C10         0.2647    0.7267    5.0110 C.ar      1 <0>        -0.0758
     15 C11         0.1155    1.1536    6.3137 C.ar      1 <0>        -0.1303
     16 C12         1.0269    0.7674    7.2810 C.ar      1 <0>        -0.0737
     17 C13         2.0945   -0.0488    6.9498 C.ar      1 <0>        -0.1277
     18 C14         2.2543   -0.4887    5.6528 C.ar      1 <0>        -0.0531
     19 C15         1.9590   -0.2092   -1.7217 C.3       1 <0>        -0.1792
     20 C16         2.3881   -0.5725   -3.1446 C.3       1 <0>         0.1619
     21 H3          1.6624   -0.1769   -3.8552 H         1 <0>         0.1169
     22 C17         3.7437    0.0219   -3.4277 C.ar      1 <0>        -0.1337
     23 C18         4.8881   -0.6589   -3.0564 C.ar      1 <0>        -0.1107
     24 C19         6.1316   -0.1137   -3.3161 C.ar      1 <0>        -0.1124
     25 C20         6.2307    1.1121   -3.9474 C.ar      1 <0>        -0.1081
     26 C21         5.0863    1.7924   -4.3195 C.ar      1 <0>        -0.1138
     27 C22         3.8429    1.2452   -4.0637 C.ar      1 <0>        -0.1090
     28 O2          2.4550   -1.9941   -3.2736 O.3       1 <0>        -0.5438
     29 H4          1.0819    1.6437   -0.2064 H         1 <0>         0.1229
     30 H5         -0.5044    1.6537   -1.0139 H         1 <0>         0.1280
     31 H6         -0.4106    1.6271    0.7634 H         1 <0>         0.1254
     32 H7         -0.5879   -2.5068   -1.3887 H         1 <0>         0.0835
     33 H8          0.7816   -2.5306   -2.5266 H         1 <0>         0.1438
     34 H9          1.2462   -3.8604   -0.4569 H         1 <0>         0.0957
     35 H10         2.3748   -2.4955   -0.6482 H         1 <0>         0.0770
     36 H11        -0.1189   -2.5439    1.1140 H         1 <0>         0.0852
     37 H12         1.5696   -2.5929    1.6777 H         1 <0>         0.1245
     38 H13         0.4836    0.9521    2.1744 H         1 <0>         0.1224
     39 H14        -0.4682   -0.5220    2.4733 H         1 <0>         0.1244
     40 H15        -0.4471    1.0292    4.2572 H         1 <0>         0.1277
     41 H16        -0.7146    1.7912    6.5797 H         1 <0>         0.1343
     42 H17         0.9046    1.1050    8.2995 H         1 <0>         0.1346
     43 H18         2.8017   -0.3456    7.7102 H         1 <0>         0.1361
     44 H19         3.0853   -1.1292    5.3968 H         1 <0>         0.1367
     45 H20         2.0300    0.8699   -1.5852 H         1 <0>         0.0973
     46 H21         2.6117   -0.7096   -1.0064 H         1 <0>         0.0978
     47 H22         4.8107   -1.6166   -2.5632 H         1 <0>         0.1192
     48 H23         7.0257   -0.6452   -3.0254 H         1 <0>         0.1282
     49 H24         7.2022    1.5384   -4.1496 H         1 <0>         0.1285
     50 H25         5.1637    2.7502   -4.8124 H         1 <0>         0.1284
     51 H26         2.9489    1.7750   -4.3577 H         1 <0>         0.1236
     52 H27         3.0826   -2.4147   -2.6701 H         1 <0>         0.3793
     53 H28        -0.8769   -0.5298   -0.0103 H         1 <0>         0.4232
@<TRIPOS>BOND
     1    1    2 1
     2    1   29 1
     3    1   30 1
     4    1   31 1
     5    2    8 1
     6    2    3 1
     7    2   53 1
     8    3    4 1
     9    3    5 1
    10    3   19 1
    11    5    6 1
    12    5   32 1
    13    5   33 1
    14    6    7 1
    15    6   34 1
    16    6   35 1
    17    7    8 1
    18    7   36 1
    19    7   37 1
    20    8    9 1
    21    8   10 1
    22   10   11 1
    23   10   38 1
    24   10   39 1
    25   11   12 2
    26   11   13 1
    27   13   18 ar
    28   13   14 ar
    29   14   15 ar
    30   14   40 1
    31   15   16 ar
    32   15   41 1
    33   16   17 ar
    34   16   42 1
    35   17   18 ar
    36   17   43 1
    37   18   44 1
    38   19   20 1
    39   19   45 1
    40   19   46 1
    41   20   21 1
    42   20   22 1
    43   20   28 1
    44   22   27 ar
    45   22   23 ar
    46   23   24 ar
    47   23   47 1
    48   24   25 ar
    49   24   48 1
    50   25   26 ar
    51   25   49 1
    52   26   27 ar
    53   26   50 1
    54   27   51 1
    55   28   52 1
