@<TRIPOS>MOLECULE
ZINC03875392
   51    53     0     0     0
SMALL
USER_CHARGES

@<TRIPOS>ATOM
      1 C1          0.7663   -0.3656   -1.1344 C.3       1 <0>        -0.1555
      2 C2         -0.0229   -0.0054    0.1259 C.3       1 <0>        -0.0984
      3 C3         -0.0728    1.5161    0.2789 C.3       1 <0>        -0.1529
      4 C4         -1.4467   -0.5533    0.0101 C.3       1 <0>        -0.1203
      5 C5         -1.4056   -2.0828    0.0034 C.3       1 <0>        -0.1630
      6 H1         -0.7426   -2.4294   -0.7894 H         1 <0>         0.1472
      7 C6         -2.8167   -2.6372   -0.2231 C.3       1 <0>         0.0026
      8 N1         -3.6702   -2.2815    0.9182 N.4       1 <0>        -0.3841
      9 C7         -5.0587   -2.6650    0.6257 C.3       1 <0>        -0.0038
     10 C8         -5.9764   -2.0174    1.6630 C.3       1 <0>        -0.1022
     11 C9         -5.4707   -2.3234    3.0500 C.ar      1 <0>        -0.0800
     12 C10        -6.3300   -2.1471    4.1238 C.ar      1 <0>        -0.1666
     13 C11        -5.9025   -2.4151    5.4121 C.ar      1 <0>         0.1352
     14 C12        -4.6025   -2.8641    5.6271 C.ar      1 <0>         0.1199
     15 C13        -3.7502   -3.0389    4.5520 C.ar      1 <0>        -0.1550
     16 C14        -4.1831   -2.7689    3.2612 C.ar      1 <0>        -0.1287
     17 C15        -3.2181   -2.9771    2.1244 C.3       1 <0>         0.0985
     18 H2         -3.1348   -4.0435    1.9144 H         1 <0>         0.1476
     19 C16        -1.8365   -2.4498    2.5325 C.3       1 <0>        -0.1903
     20 C17        -0.9081   -2.5866    1.3424 C.2       1 <0>         0.3497
     21 O1          0.1881   -3.0802    1.4566 O.2       1 <0>        -0.3949
     22 O2         -4.1721   -3.1294    6.8895 O.3       1 <0>        -0.2951
     23 C18        -2.8259   -3.5866    7.0333 C.3       1 <0>         0.0204
     24 O3         -6.7478   -2.2402    6.4630 O.3       1 <0>        -0.2951
     25 C19        -8.0661   -1.7765    6.1649 C.3       1 <0>         0.0205
     26 H3          1.7807    0.0248   -1.0518 H         1 <0>         0.0653
     27 H4          0.8019   -1.4496   -1.2433 H         1 <0>         0.0569
     28 H5          0.2786    0.0713   -2.0058 H         1 <0>         0.0617
     29 H6          0.4648   -0.4423    0.9973 H         1 <0>         0.0717
     30 H7         -0.7081    1.7755    1.1258 H         1 <0>         0.0559
     31 H8          0.9339    1.8974    0.4496 H         1 <0>         0.0651
     32 H9         -0.4800    1.9595   -0.6299 H         1 <0>         0.0615
     33 H10        -2.0385   -0.2095    0.8584 H         1 <0>         0.0660
     34 H11        -1.8985   -0.1980   -0.9160 H         1 <0>         0.0966
     35 H12        -3.2330   -2.2099   -1.1354 H         1 <0>         0.1489
     36 H13        -2.7701   -3.7220   -0.3181 H         1 <0>         0.1385
     37 H14        -5.3314   -2.3180   -0.3710 H         1 <0>         0.1424
     38 H15        -5.1569   -3.7493    0.6770 H         1 <0>         0.1356
     39 H16        -5.9899   -0.9380    1.5118 H         1 <0>         0.1049
     40 H17        -6.9864   -2.4114    1.5501 H         1 <0>         0.1257
     41 H18        -7.3380   -1.7986    3.9537 H         1 <0>         0.1487
     42 H19        -2.7415   -3.3873    4.7179 H         1 <0>         0.1461
     43 H20        -1.9131   -1.4014    2.8207 H         1 <0>         0.1282
     44 H21        -1.4516   -3.0345    3.3681 H         1 <0>         0.1363
     45 H22        -2.6966   -4.5159    6.4784 H         1 <0>         0.0596
     46 H23        -2.1424   -2.8324    6.6432 H         1 <0>         0.0589
     47 H24        -2.6118   -3.7604    8.0878 H         1 <0>         0.1119
     48 H25        -8.0072   -0.8061    5.6719 H         1 <0>         0.0608
     49 H26        -8.5617   -2.4893    5.5059 H         1 <0>         0.0611
     50 H27        -8.6352   -1.6802    7.0896 H         1 <0>         0.1116
     51 H28        -3.6276   -1.2850    1.0705 H         1 <0>         0.4242
@<TRIPOS>BOND
     1    1    2 1
     2    1   26 1
     3    1   27 1
     4    1   28 1
     5    2    3 1
     6    2    4 1
     7    2   29 1
     8    3   30 1
     9    3   31 1
    10    3   32 1
    11    4    5 1
    12    4   33 1
    13    4   34 1
    14    5    6 1
    15    5   20 1
    16    5    7 1
    17    7    8 1
    18    7   35 1
    19    7   36 1
    20    8   17 1
    21    8    9 1
    22    8   51 1
    23    9   10 1
    24    9   37 1
    25    9   38 1
    26   10   11 1
    27   10   39 1
    28   10   40 1
    29   11   16 ar
    30   11   12 ar
    31   12   13 ar
    32   12   41 1
    33   13   14 ar
    34   13   24 1
    35   14   15 ar
    36   14   22 1
    37   15   16 ar
    38   15   42 1
    39   16   17 1
    40   17   18 1
    41   17   19 1
    42   19   20 1
    43   19   43 1
    44   19   44 1
    45   20   21 2
    46   22   23 1
    47   23   45 1
    48   23   46 1
    49   23   47 1
    50   24   25 1
    51   25   48 1
    52   25   49 1
    53   25   50 1
@<TRIPOS>MOLECULE
ZINC03875392
   50    52     0     0     0
SMALL
USER_CHARGES

@<TRIPOS>ATOM
      1 C1          0.7672   -0.3646   -1.1304 C.3       1 <0>        -0.1494
      2 C2         -0.0248   -0.0055    0.1285 C.3       1 <0>        -0.1045
      3 C3         -0.0769    1.5159    0.2815 C.3       1 <0>        -0.1464
      4 C4         -1.4477   -0.5552    0.0099 C.3       1 <0>        -0.0934
      5 C5         -1.4046   -2.0846    0.0033 C.3       1 <0>        -0.1342
      6 H1         -0.7412   -2.4304   -0.7894 H         1 <0>         0.1019
      7 C6         -2.8150   -2.6407   -0.2234 C.3       1 <0>         0.0632
      8 N1         -3.6643   -2.2993    0.9262 N.3       1 <0>        -0.5289
      9 C7         -5.0714   -2.6229    0.6475 C.3       1 <0>         0.0551
     10 C8         -5.9497   -1.9280    1.6878 C.3       1 <0>        -0.0732
     11 C9         -5.4446   -2.2406    3.0734 C.ar      1 <0>        -0.0600
     12 C10        -6.2957   -2.0338    4.1489 C.ar      1 <0>        -0.1743
     13 C11        -5.8729   -2.3052    5.4378 C.ar      1 <0>         0.1066
     14 C12        -4.5851   -2.7881    5.6526 C.ar      1 <0>         0.1007
     15 C13        -3.7410   -2.9929    4.5764 C.ar      1 <0>        -0.1682
     16 C14        -4.1696   -2.7200    3.2844 C.ar      1 <0>        -0.0741
     17 C15        -3.2114   -2.9658    2.1490 C.3       1 <0>         0.1413
     18 H2         -3.1361   -4.0380    1.9675 H         1 <0>         0.0569
     19 C16        -1.8252   -2.4356    2.5374 C.3       1 <0>        -0.1598
     20 C17        -0.9066   -2.5876    1.3422 C.2       1 <0>         0.3668
     21 O1          0.1849   -3.0924    1.4526 O.2       1 <0>        -0.4499
     22 O2         -4.1586   -3.0570    6.9156 O.3       1 <0>        -0.3053
     23 C18        -2.8249   -3.5499    7.0588 C.3       1 <0>         0.0249
     24 O3         -6.7106   -2.1008    6.4894 O.3       1 <0>        -0.3057
     25 C19        -8.0166   -1.6032    6.1914 C.3       1 <0>         0.0257
     26 H3          1.7809    0.0270   -1.0459 H         1 <0>         0.0539
     27 H4          0.8044   -1.4485   -1.2394 H         1 <0>         0.0560
     28 H5          0.2806    0.0718   -2.0026 H         1 <0>         0.0557
     29 H6          0.4619   -0.4419    1.0007 H         1 <0>         0.0648
     30 H7         -0.7140    1.7744    1.1273 H         1 <0>         0.0550
     31 H8          0.9291    1.8984    0.4541 H         1 <0>         0.0541
     32 H9         -0.4829    1.9588   -0.6279 H         1 <0>         0.0559
     33 H10        -2.0415   -0.2121    0.8571 H         1 <0>         0.0809
     34 H11        -1.8982   -0.2004   -0.9170 H         1 <0>         0.0750
     35 H12        -3.2365   -2.2047   -1.1291 H         1 <0>         0.0937
     36 H13        -2.7658   -3.7244   -0.3300 H         1 <0>         0.0419
     37 H14        -5.3370   -2.2707   -0.3492 H         1 <0>         0.0863
     38 H15        -5.2173   -3.7014    0.7076 H         1 <0>         0.0421
     39 H16        -5.9198   -0.8505    1.5258 H         1 <0>         0.0873
     40 H17        -6.9765   -2.2800    1.5885 H         1 <0>         0.0803
     41 H18        -7.2941   -1.6585    3.9791 H         1 <0>         0.1365
     42 H19        -2.7416   -3.3672    4.7422 H         1 <0>         0.1361
     43 H20        -1.8981   -1.3837    2.8135 H         1 <0>         0.1112
     44 H21        -1.4338   -3.0102    3.3769 H         1 <0>         0.0928
     45 H22        -2.7225   -4.4858    6.5096 H         1 <0>         0.0547
     46 H23        -2.1222   -2.8171    6.6621 H         1 <0>         0.0553
     47 H24        -2.6128   -3.7226    8.1139 H         1 <0>         0.1022
     48 H25        -7.9323   -0.6379    5.6922 H         1 <0>         0.0556
     49 H26        -8.5329   -2.3064    5.5379 H         1 <0>         0.0551
     50 H27        -8.5806   -1.4857    7.1167 H         1 <0>         0.1016
@<TRIPOS>BOND
     1    1    2 1
     2    1   26 1
     3    1   27 1
     4    1   28 1
     5    2    3 1
     6    2    4 1
     7    2   29 1
     8    3   30 1
     9    3   31 1
    10    3   32 1
    11    4    5 1
    12    4   33 1
    13    4   34 1
    14    5    6 1
    15    5   20 1
    16    5    7 1
    17    7    8 1
    18    7   35 1
    19    7   36 1
    20    8   17 1
    21    8    9 1
    22    9   10 1
    23    9   37 1
    24    9   38 1
    25   10   11 1
    26   10   39 1
    27   10   40 1
    28   11   16 ar
    29   11   12 ar
    30   12   13 ar
    31   12   41 1
    32   13   14 ar
    33   13   24 1
    34   14   15 ar
    35   14   22 1
    36   15   16 ar
    37   15   42 1
    38   16   17 1
    39   17   18 1
    40   17   19 1
    41   19   20 1
    42   19   43 1
    43   19   44 1
    44   20   21 2
    45   22   23 1
    46   23   45 1
    47   23   46 1
    48   23   47 1
    49   24   25 1
    50   25   48 1
    51   25   49 1
    52   25   50 1
@<TRIPOS>MOLECULE
ZINC03875393
   51    53     0     0     0
SMALL
USER_CHARGES

@<TRIPOS>ATOM
      1 C1         -0.0187    1.5258    0.0104 C.3       1 <0>        -0.1493
      2 C2          0.0021   -0.0041    0.0020 C.3       1 <0>        -0.1072
      3 C3          0.7421   -0.5109    1.2415 C.3       1 <0>        -0.1542
      4 C4         -1.4333   -0.5336    0.0129 C.3       1 <0>        -0.1011
      5 C5         -1.4157   -2.0577   -0.1212 C.3       1 <0>        -0.1619
      6 H1         -0.7900   -2.4884    0.6606 H         1 <0>         0.1330
      7 C6         -2.8429   -2.6040   -0.0013 C.3       1 <0>         0.0026
      8 N1         -2.8370   -4.0484   -0.2684 N.4       1 <0>        -0.3828
      9 C7         -4.1704   -4.6003    0.0105 C.3       1 <0>        -0.0032
     10 C8         -4.0754   -6.1262    0.0359 C.3       1 <0>        -0.1017
     11 C9         -3.3929   -6.6134   -1.2170 C.ar      1 <0>        -0.0801
     12 C10        -3.5217   -7.9490   -1.5665 C.ar      1 <0>        -0.1668
     13 C11        -2.9093   -8.4346   -2.7082 C.ar      1 <0>         0.1351
     14 C12        -2.1605   -7.5750   -3.5070 C.ar      1 <0>         0.1197
     15 C13        -2.0356   -6.2438   -3.1533 C.ar      1 <0>        -0.1550
     16 C14        -2.6523   -5.7605   -2.0077 C.ar      1 <0>        -0.1288
     17 C15        -2.4889   -4.3030   -1.6674 C.3       1 <0>         0.0987
     18 H2         -3.1358   -3.7085   -2.3126 H         1 <0>         0.1466
     19 C16        -1.0336   -3.8867   -1.9173 C.3       1 <0>        -0.1894
     20 C17        -0.8731   -2.4448   -1.4813 C.2       1 <0>         0.3442
     21 O1         -0.3330   -1.6326   -2.1934 O.2       1 <0>        -0.3886
     22 O2         -1.5538   -8.0425   -4.6307 O.3       1 <0>        -0.2952
     23 C18        -0.8021   -7.1024   -5.4010 C.3       1 <0>         0.0205
     24 O3         -3.0378   -9.7452   -3.0480 O.3       1 <0>        -0.2952
     25 C19        -3.8210  -10.5667   -2.1798 C.3       1 <0>         0.0206
     26 H3          1.0039    1.9031    0.0027 H         1 <0>         0.0614
     27 H4         -0.5459    1.8868   -0.8726 H         1 <0>         0.0574
     28 H5         -0.5289    1.8773    0.9072 H         1 <0>         0.0565
     29 H6          0.5123   -0.3556   -0.8948 H         1 <0>         0.0906
     30 H7          0.7568   -1.6008    1.2356 H         1 <0>         0.0471
     31 H8          1.7647   -0.1336    1.2338 H         1 <0>         0.0629
     32 H9          0.2319   -0.1594    2.1383 H         1 <0>         0.0592
     33 H10        -1.9156   -0.2570    0.9504 H         1 <0>         0.0845
     34 H11        -1.9862   -0.1019   -0.8214 H         1 <0>         0.0789
     35 H12        -3.2183   -2.4222    1.0058 H         1 <0>         0.1483
     36 H13        -3.4859   -2.1031   -0.7250 H         1 <0>         0.1369
     37 H14        -4.5202   -4.2398    0.9778 H         1 <0>         0.1423
     38 H15        -4.8649   -4.2904   -0.7704 H         1 <0>         0.1349
     39 H16        -3.5003   -6.4392    0.9074 H         1 <0>         0.1053
     40 H17        -5.0776   -6.5511    0.0918 H         1 <0>         0.1252
     41 H18        -4.1033   -8.6134   -0.9447 H         1 <0>         0.1485
     42 H19        -1.4549   -5.5761   -3.7726 H         1 <0>         0.1461
     43 H20        -0.3644   -4.5224   -1.3375 H         1 <0>         0.1281
     44 H21        -0.8017   -3.9784   -2.9783 H         1 <0>         0.1359
     45 H22        -1.4586   -6.2991   -5.7353 H         1 <0>         0.0596
     46 H23        -0.0026   -6.6869   -4.7877 H         1 <0>         0.0589
     47 H24        -0.3718   -7.6044   -6.2677 H         1 <0>         0.1118
     48 H25        -3.3808  -10.5644   -1.1826 H         1 <0>         0.0608
     49 H26        -4.8374  -10.1762   -2.1291 H         1 <0>         0.0611
     50 H27        -3.8421  -11.5860   -2.5653 H         1 <0>         0.1116
     51 H28        -2.1614   -4.4973    0.3317 H         1 <0>         0.4259
@<TRIPOS>BOND
     1    1    2 1
     2    1   26 1
     3    1   27 1
     4    1   28 1
     5    2    3 1
     6    2    4 1
     7    2   29 1
     8    3   30 1
     9    3   31 1
    10    3   32 1
    11    4    5 1
    12    4   33 1
    13    4   34 1
    14    5    6 1
    15    5   20 1
    16    5    7 1
    17    7    8 1
    18    7   35 1
    19    7   36 1
    20    8   17 1
    21    8    9 1
    22    8   51 1
    23    9   10 1
    24    9   37 1
    25    9   38 1
    26   10   11 1
    27   10   39 1
    28   10   40 1
    29   11   16 ar
    30   11   12 ar
    31   12   13 ar
    32   12   41 1
    33   13   14 ar
    34   13   24 1
    35   14   15 ar
    36   14   22 1
    37   15   16 ar
    38   15   42 1
    39   16   17 1
    40   17   18 1
    41   17   19 1
    42   19   20 1
    43   19   43 1
    44   19   44 1
    45   20   21 2
    46   22   23 1
    47   23   45 1
    48   23   46 1
    49   23   47 1
    50   24   25 1
    51   25   48 1
    52   25   49 1
    53   25   50 1
@<TRIPOS>MOLECULE
ZINC03875393
   50    52     0     0     0
SMALL
USER_CHARGES

@<TRIPOS>ATOM
      1 C1         -0.0187    1.5258    0.0104 C.3       1 <0>        -0.1448
      2 C2          0.0021   -0.0041    0.0020 C.3       1 <0>        -0.1080
      3 C3          0.7421   -0.5109    1.2415 C.3       1 <0>        -0.1500
      4 C4         -1.4333   -0.5336    0.0129 C.3       1 <0>        -0.1005
      5 C5         -1.4157   -2.0577   -0.1212 C.3       1 <0>        -0.1353
      6 H1         -0.7900   -2.4883    0.6606 H         1 <0>         0.1174
      7 C6         -2.8429   -2.6040   -0.0011 C.3       1 <0>         0.0657
      8 N1         -2.8384   -4.0459   -0.2843 N.3       1 <0>        -0.5329
      9 C7         -4.1440   -4.6425    0.0344 C.3       1 <0>         0.0552
     10 C8         -3.9901   -6.1626    0.0819 C.3       1 <0>        -0.0737
     11 C9         -3.3131   -6.6468   -1.1751 C.ar      1 <0>        -0.0605
     12 C10        -3.4164   -7.9899   -1.5055 C.ar      1 <0>        -0.1742
     13 C11        -2.8090   -8.4778   -2.6486 C.ar      1 <0>         0.1066
     14 C12        -2.0906   -7.6128   -3.4692 C.ar      1 <0>         0.1007
     15 C13        -1.9915   -6.2744   -3.1351 C.ar      1 <0>        -0.1680
     16 C14        -2.6032   -5.7888   -1.9873 C.ar      1 <0>        -0.0747
     17 C15        -2.4674   -4.3222   -1.6738 C.3       1 <0>         0.1412
     18 H2         -3.1144   -3.7506   -2.3392 H         1 <0>         0.0572
     19 C16        -1.0148   -3.8898   -1.9113 C.3       1 <0>        -0.1603
     20 C17        -0.8730   -2.4447   -1.4811 C.2       1 <0>         0.3632
     21 O1         -0.3459   -1.6285   -2.1983 O.2       1 <0>        -0.4424
     22 O2         -1.4883   -8.0819   -4.5946 O.3       1 <0>        -0.3053
     23 C18        -0.7686   -7.1359   -5.3878 C.3       1 <0>         0.0249
     24 O3         -2.9127   -9.7955   -2.9687 O.3       1 <0>        -0.3056
     25 C19        -3.6654  -10.6220   -2.0786 C.3       1 <0>         0.0256
     26 H3          1.0039    1.9031    0.0027 H         1 <0>         0.0538
     27 H4         -0.5459    1.8868   -0.8726 H         1 <0>         0.0533
     28 H5         -0.5289    1.8773    0.9072 H         1 <0>         0.0518
     29 H6          0.5123   -0.3556   -0.8948 H         1 <0>         0.0894
     30 H7          0.7568   -1.6008    1.2356 H         1 <0>         0.0524
     31 H8          1.7647   -0.1336    1.2338 H         1 <0>         0.0538
     32 H9          0.2319   -0.1594    2.1383 H         1 <0>         0.0541
     33 H10        -1.9156   -0.2570    0.9504 H         1 <0>         0.0707
     34 H11        -1.9862   -0.1019   -0.8214 H         1 <0>         0.0652
     35 H12        -3.2138   -2.4330    1.0095 H         1 <0>         0.0926
     36 H13        -3.4885   -2.0949   -0.7167 H         1 <0>         0.0421
     37 H14        -4.4851   -4.2792    1.0038 H         1 <0>         0.0865
     38 H15        -4.8671   -4.3721   -0.7350 H         1 <0>         0.0425
     39 H16        -3.3878   -6.4390    0.9473 H         1 <0>         0.0874
     40 H17        -4.9741   -6.6241    0.1642 H         1 <0>         0.0808
     41 H18        -3.9739   -8.6587   -0.8665 H         1 <0>         0.1367
     42 H19        -1.4340   -5.6027   -3.7711 H         1 <0>         0.1364
     43 H20        -0.3441   -4.5154   -1.3224 H         1 <0>         0.1104
     44 H21        -0.7716   -3.9838   -2.9697 H         1 <0>         0.0937
     45 H22        -1.4476   -6.3523   -5.7239 H         1 <0>         0.0547
     46 H23         0.0294   -6.6939   -4.7911 H         1 <0>         0.0553
     47 H24        -0.3386   -7.6399   -6.2533 H         1 <0>         0.1022
     48 H25        -3.2119  -10.5962   -1.0878 H         1 <0>         0.0556
     49 H26        -4.6895  -10.2536   -2.0192 H         1 <0>         0.0552
     50 H27        -3.6689  -11.6468   -2.4499 H         1 <0>         0.1016
@<TRIPOS>BOND
     1    1    2 1
     2    1   26 1
     3    1   27 1
     4    1   28 1
     5    2    3 1
     6    2    4 1
     7    2   29 1
     8    3   30 1
     9    3   31 1
    10    3   32 1
    11    4    5 1
    12    4   33 1
    13    4   34 1
    14    5    6 1
    15    5   20 1
    16    5    7 1
    17    7    8 1
    18    7   35 1
    19    7   36 1
    20    8   17 1
    21    8    9 1
    22    9   10 1
    23    9   37 1
    24    9   38 1
    25   10   11 1
    26   10   39 1
    27   10   40 1
    28   11   16 ar
    29   11   12 ar
    30   12   13 ar
    31   12   41 1
    32   13   14 ar
    33   13   24 1
    34   14   15 ar
    35   14   22 1
    36   15   16 ar
    37   15   42 1
    38   16   17 1
    39   17   18 1
    40   17   19 1
    41   19   20 1
    42   19   43 1
    43   19   44 1
    44   20   21 2
    45   22   23 1
    46   23   45 1
    47   23   46 1
    48   23   47 1
    49   24   25 1
    50   25   48 1
    51   25   49 1
    52   25   50 1
@<TRIPOS>MOLECULE
ZINC00001624
   53    55     0     0     0
SMALL
USER_CHARGES

@<TRIPOS>ATOM
      1 C1         -0.5345    1.3876    0.5891 C.3       1 <0>        -0.0637
      2 N1         -0.8728   -0.0335    0.7443 N.4       1 <0>        -0.3784
      3 C2         -0.4779   -0.7639   -0.4661 C.3       1 <0>         0.0307
      4 H1          0.6039   -0.7076   -0.5872 H         1 <0>         0.1441
      5 C3         -0.9012   -2.2292   -0.3430 C.3       1 <0>        -0.1432
      6 C4         -0.2165   -2.8519    0.8771 C.3       1 <0>        -0.1338
      7 C5         -0.5761   -2.0373    2.1231 C.3       1 <0>        -0.1438
      8 C6         -0.1648   -0.5791    1.9086 C.3       1 <0>         0.0380
      9 H2          0.9103   -0.5268    1.7369 H         1 <0>         0.1451
     10 C7         -0.5220    0.2389    3.1513 C.3       1 <0>        -0.1973
     11 C8          0.3188   -0.2212    4.3142 C.2       1 <0>         0.4111
     12 O1          1.1969   -1.0393    4.1414 O.2       1 <0>        -0.4393
     13 C9          0.0741    0.3223    5.6598 C.ar      1 <0>        -0.1847
     14 C10        -0.9416    1.2617    5.8643 C.ar      1 <0>        -0.0760
     15 C11        -1.1650    1.7660    7.1280 C.ar      1 <0>        -0.1304
     16 C12        -0.3872    1.3448    8.1926 C.ar      1 <0>        -0.0738
     17 C13         0.6201    0.4158    7.9982 C.ar      1 <0>        -0.1275
     18 C14         0.8522   -0.1021    6.7416 C.ar      1 <0>        -0.0530
     19 C15        -1.1601   -0.1379   -1.6841 C.3       1 <0>        -0.1764
     20 C16        -0.6804   -0.8417   -2.9551 C.3       1 <0>         0.1585
     21 H3         -0.8469   -1.9148   -2.8610 H         1 <0>         0.1186
     22 C17        -1.4483   -0.3163   -4.1406 C.ar      1 <0>        -0.1341
     23 C18        -1.0265    0.8327   -4.7831 C.ar      1 <0>        -0.1096
     24 C19        -1.7309    1.3147   -5.8705 C.ar      1 <0>        -0.1139
     25 C20        -2.8567    0.6474   -6.3157 C.ar      1 <0>        -0.1081
     26 C21        -3.2779   -0.5021   -5.6737 C.ar      1 <0>        -0.1139
     27 C22        -2.5711   -0.9865   -4.5890 C.ar      1 <0>        -0.1085
     28 O2          0.7140   -0.5905   -3.1414 O.3       1 <0>        -0.5474
     29 H4          0.5421    1.4922    0.4544 H         1 <0>         0.1254
     30 H5         -1.0505    1.7909   -0.2821 H         1 <0>         0.1288
     31 H6         -0.8439    1.9341    1.4800 H         1 <0>         0.1266
     32 H7         -1.9829   -2.2867   -0.2221 H         1 <0>         0.0887
     33 H8         -0.6055   -2.7702   -1.2419 H         1 <0>         0.1146
     34 H9         -0.5584   -3.8793    1.0021 H         1 <0>         0.0967
     35 H10         0.8640   -2.8410    0.7338 H         1 <0>         0.0846
     36 H11        -1.6511   -2.0908    2.2951 H         1 <0>         0.0863
     37 H12        -0.0480   -2.4412    2.9869 H         1 <0>         0.1194
     38 H13        -0.3297    1.2944    2.9591 H         1 <0>         0.1249
     39 H14        -1.5768    0.0988    3.3877 H         1 <0>         0.1231
     40 H15        -1.5491    1.5916    5.0345 H         1 <0>         0.1277
     41 H16        -1.9488    2.4917    7.2876 H         1 <0>         0.1342
     42 H17        -0.5671    1.7434    9.1801 H         1 <0>         0.1346
     43 H18         1.2230    0.0924    8.8338 H         1 <0>         0.1362
     44 H19         1.6357   -0.8303    6.5923 H         1 <0>         0.1368
     45 H20        -2.2405   -0.2494   -1.5927 H         1 <0>         0.1010
     46 H21        -0.9073    0.9211   -1.7378 H         1 <0>         0.0953
     47 H22        -0.1470    1.3540   -4.4353 H         1 <0>         0.1194
     48 H23        -1.4018    2.2127   -6.3721 H         1 <0>         0.1278
     49 H24        -3.4074    1.0243   -7.1648 H         1 <0>         0.1284
     50 H25        -4.1577   -1.0233   -6.0213 H         1 <0>         0.1286
     51 H26        -2.8980   -1.8866   -4.0897 H         1 <0>         0.1238
     52 H27         0.9491    0.3474   -3.1334 H         1 <0>         0.3779
     53 H28        -1.8678   -0.1281    0.8823 H         1 <0>         0.4198
@<TRIPOS>BOND
     1    1    2 1
     2    1   29 1
     3    1   30 1
     4    1   31 1
     5    2    8 1
     6    2    3 1
     7    2   53 1
     8    3    4 1
     9    3    5 1
    10    3   19 1
    11    5    6 1
    12    5   32 1
    13    5   33 1
    14    6    7 1
    15    6   34 1
    16    6   35 1
    17    7    8 1
    18    7   36 1
    19    7   37 1
    20    8    9 1
    21    8   10 1
    22   10   11 1
    23   10   38 1
    24   10   39 1
    25   11   12 2
    26   11   13 1
    27   13   18 ar
    28   13   14 ar
    29   14   15 ar
    30   14   40 1
    31   15   16 ar
    32   15   41 1
    33   16   17 ar
    34   16   42 1
    35   17   18 ar
    36   17   43 1
    37   18   44 1
    38   19   20 1
    39   19   45 1
    40   19   46 1
    41   20   21 1
    42   20   22 1
    43   20   28 1
    44   22   27 ar
    45   22   23 ar
    46   23   24 ar
    47   23   47 1
    48   24   25 ar
    49   24   48 1
    50   25   26 ar
    51   25   49 1
    52   26   27 ar
    53   26   50 1
    54   27   51 1
    55   28   52 1
@<TRIPOS>MOLECULE
ZINC03831004
   53    55     0     0     0
SMALL
USER_CHARGES

@<TRIPOS>ATOM
      1 C1          0.0561    1.2782   -0.1578 C.3       1 <0>        -0.0599
      2 N1          0.0581   -0.1906   -0.1799 N.4       1 <0>        -0.3789
      3 C2          0.5141   -0.6580   -1.4945 C.3       1 <0>         0.0348
      4 H1         -0.1236   -0.2355   -2.2711 H         1 <0>         0.1392
      5 C3          0.4410   -2.1855   -1.5505 C.3       1 <0>        -0.1577
      6 C4          1.3383   -2.7743   -0.4581 C.3       1 <0>        -0.1317
      7 C5          0.9005   -2.2218    0.9014 C.3       1 <0>        -0.1475
      8 C6          0.9565   -0.6930    0.8665 C.3       1 <0>         0.0330
      9 H2          1.9763   -0.3720    0.6541 H         1 <0>         0.1427
     10 C7          0.5201   -0.1362    2.2231 C.3       1 <0>        -0.1963
     11 C8          1.5069   -0.5590    3.2806 C.2       1 <0>         0.4114
     12 O1          2.4380   -1.2786    2.9881 O.2       1 <0>        -0.4398
     13 C9          1.3406   -0.0985    4.6685 C.ar      1 <0>        -0.1847
     14 C10         0.2647    0.7267    5.0110 C.ar      1 <0>        -0.0758
     15 C11         0.1155    1.1536    6.3137 C.ar      1 <0>        -0.1303
     16 C12         1.0269    0.7674    7.2810 C.ar      1 <0>        -0.0737
     17 C13         2.0945   -0.0488    6.9498 C.ar      1 <0>        -0.1277
     18 C14         2.2543   -0.4887    5.6528 C.ar      1 <0>        -0.0531
     19 C15         1.9590   -0.2092   -1.7217 C.3       1 <0>        -0.1792
     20 C16         2.3881   -0.5725   -3.1446 C.3       1 <0>         0.1619
     21 H3          1.6624   -0.1769   -3.8552 H         1 <0>         0.1169
     22 C17         3.7437    0.0219   -3.4277 C.ar      1 <0>        -0.1337
     23 C18         4.8881   -0.6589   -3.0564 C.ar      1 <0>        -0.1107
     24 C19         6.1316   -0.1137   -3.3161 C.ar      1 <0>        -0.1124
     25 C20         6.2307    1.1121   -3.9474 C.ar      1 <0>        -0.1081
     26 C21         5.0863    1.7924   -4.3195 C.ar      1 <0>        -0.1138
     27 C22         3.8429    1.2452   -4.0637 C.ar      1 <0>        -0.1090
     28 O2          2.4550   -1.9941   -3.2736 O.3       1 <0>        -0.5438
     29 H4          1.0819    1.6437   -0.2064 H         1 <0>         0.1229
     30 H5         -0.5044    1.6537   -1.0139 H         1 <0>         0.1280
     31 H6         -0.4106    1.6271    0.7634 H         1 <0>         0.1254
     32 H7         -0.5879   -2.5068   -1.3887 H         1 <0>         0.0835
     33 H8          0.7816   -2.5306   -2.5266 H         1 <0>         0.1438
     34 H9          1.2462   -3.8604   -0.4569 H         1 <0>         0.0957
     35 H10         2.3748   -2.4955   -0.6482 H         1 <0>         0.0770
     36 H11        -0.1189   -2.5439    1.1140 H         1 <0>         0.0852
     37 H12         1.5696   -2.5929    1.6777 H         1 <0>         0.1245
     38 H13         0.4836    0.9521    2.1744 H         1 <0>         0.1224
     39 H14        -0.4682   -0.5220    2.4733 H         1 <0>         0.1244
     40 H15        -0.4471    1.0292    4.2572 H         1 <0>         0.1277
     41 H16        -0.7146    1.7912    6.5797 H         1 <0>         0.1343
     42 H17         0.9046    1.1050    8.2995 H         1 <0>         0.1346
     43 H18         2.8017   -0.3456    7.7102 H         1 <0>         0.1361
     44 H19         3.0853   -1.1292    5.3968 H         1 <0>         0.1367
     45 H20         2.0300    0.8699   -1.5852 H         1 <0>         0.0973
     46 H21         2.6117   -0.7096   -1.0064 H         1 <0>         0.0978
     47 H22         4.8107   -1.6166   -2.5632 H         1 <0>         0.1192
     48 H23         7.0257   -0.6452   -3.0254 H         1 <0>         0.1282
     49 H24         7.2022    1.5384   -4.1496 H         1 <0>         0.1285
     50 H25         5.1637    2.7502   -4.8124 H         1 <0>         0.1284
     51 H26         2.9489    1.7750   -4.3577 H         1 <0>         0.1236
     52 H27         3.0826   -2.4147   -2.6701 H         1 <0>         0.3793
     53 H28        -0.8769   -0.5298   -0.0103 H         1 <0>         0.4232
@<TRIPOS>BOND
     1    1    2 1
     2    1   29 1
     3    1   30 1
     4    1   31 1
     5    2    8 1
     6    2    3 1
     7    2   53 1
     8    3    4 1
     9    3    5 1
    10    3   19 1
    11    5    6 1
    12    5   32 1
    13    5   33 1
    14    6    7 1
    15    6   34 1
    16    6   35 1
    17    7    8 1
    18    7   36 1
    19    7   37 1
    20    8    9 1
    21    8   10 1
    22   10   11 1
    23   10   38 1
    24   10   39 1
    25   11   12 2
    26   11   13 1
    27   13   18 ar
    28   13   14 ar
    29   14   15 ar
    30   14   40 1
    31   15   16 ar
    32   15   41 1
    33   16   17 ar
    34   16   42 1
    35   17   18 ar
    36   17   43 1
    37   18   44 1
    38   19   20 1
    39   19   45 1
    40   19   46 1
    41   20   21 1
    42   20   22 1
    43   20   28 1
    44   22   27 ar
    45   22   23 ar
    46   23   24 ar
    47   23   47 1
    48   24   25 ar
    49   24   48 1
    50   25   26 ar
    51   25   49 1
    52   26   27 ar
    53   26   50 1
    54   27   51 1
    55   28   52 1
@<TRIPOS>MOLECULE
ZINC02567237
   53    55     0     0     0
SMALL
USER_CHARGES

@<TRIPOS>ATOM
      1 C1          0.7668   -0.3744   -1.1575 C.3       1 <0>        -0.1557
      2 C2         -0.0040   -0.0048    0.1114 C.3       1 <0>        -0.0949
      3 C3         -0.0338    1.5172    0.2648 C.3       1 <0>        -0.1522
      4 C4         -1.4356   -0.5353    0.0112 C.3       1 <0>        -0.1060
      5 C5         -1.4131   -2.0651    0.0029 C.3       1 <0>        -0.1031
      6 H1         -0.7541   -2.4147   -0.7918 H         1 <0>         0.1070
      7 C6         -2.8289   -2.5952   -0.2379 C.3       1 <0>        -0.0016
      8 N1         -2.8058   -4.0627   -0.2377 N.4       1 <0>        -0.3777
      9 C7         -4.1414   -4.5859   -0.5535 C.3       1 <0>        -0.0024
     10 C8         -4.0213   -6.0803   -0.8558 C.3       1 <0>        -0.1016
     11 C9         -3.2544   -6.7671    0.2455 C.ar      1 <0>        -0.0835
     12 C10        -3.3276   -8.1485    0.3423 C.ar      1 <0>        -0.1664
     13 C11        -2.6366   -8.8174    1.3369 C.ar      1 <0>         0.1317
     14 C12        -1.8637   -8.0970    2.2431 C.ar      1 <0>         0.1178
     15 C13        -1.7946   -6.7191    2.1426 C.ar      1 <0>        -0.1549
     16 C14        -2.4914   -6.0522    1.1453 C.ar      1 <0>        -0.1255
     17 C15        -2.3959   -4.5520    1.0802 C.3       1 <0>         0.0937
     18 H2         -3.0509   -4.1218    1.8377 H         1 <0>         0.1452
     19 C16        -0.9610   -4.1064    1.3691 C.3       1 <0>        -0.1741
     20 C17        -0.9008   -2.5756    1.3524 C.3       1 <0>         0.0961
     21 H3          0.1293   -2.2501    1.4975 H         1 <0>         0.0903
     22 O1         -1.7192   -2.0545    2.4016 O.3       1 <0>        -0.5582
     23 O2         -1.1789   -8.7452    3.2231 O.3       1 <0>        -0.2959
     24 C18        -0.4070   -7.9402    4.1164 C.3       1 <0>         0.0217
     25 O3         -2.7125  -10.1721    1.4290 O.3       1 <0>        -0.2961
     26 C19        -3.5255  -10.8434    0.4644 C.3       1 <0>         0.0210
     27 H4          1.7867    0.0036   -1.0862 H         1 <0>         0.0616
     28 H5          0.7880   -1.4587   -1.2669 H         1 <0>         0.0502
     29 H6          0.2749    0.0685   -2.0235 H         1 <0>         0.0591
     30 H7          0.4879   -0.4477    0.9773 H         1 <0>         0.0720
     31 H8         -0.6563    1.7842    1.1188 H         1 <0>         0.0583
     32 H9          0.9794    1.8862    0.4243 H         1 <0>         0.0601
     33 H10        -0.4456    1.9656   -0.6393 H         1 <0>         0.0577
     34 H11        -2.0135   -0.1851    0.8665 H         1 <0>         0.0863
     35 H12        -1.8936   -0.1737   -0.9094 H         1 <0>         0.0743
     36 H13        -3.4891   -2.2418    0.5542 H         1 <0>         0.1379
     37 H14        -3.1923   -2.2374   -1.2012 H         1 <0>         0.1336
     38 H15        -4.8037   -4.4372    0.2994 H         1 <0>         0.1324
     39 H16        -4.5409   -4.0672   -1.4250 H         1 <0>         0.1384
     40 H17        -5.0177   -6.5160   -0.9293 H         1 <0>         0.1229
     41 H18        -3.4972   -6.2172   -1.8017 H         1 <0>         0.1032
     42 H19        -3.9276   -8.7052   -0.3623 H         1 <0>         0.1473
     43 H20        -1.1949   -6.1591    2.8448 H         1 <0>         0.1445
     44 H21        -0.6558   -4.4728    2.3493 H         1 <0>         0.1137
     45 H22        -0.2942   -4.5059    0.6050 H         1 <0>         0.1003
     46 H23        -1.4516   -2.3376    3.2867 H         1 <0>         0.3921
     47 H24         0.0872   -8.5803    4.8473 H         1 <0>         0.1110
     48 H25         0.3435   -7.3876    3.5512 H         1 <0>         0.0576
     49 H26        -1.0627   -7.2388    4.6322 H         1 <0>         0.0586
     50 H27        -3.4987  -11.9170    0.6507 H         1 <0>         0.1112
     51 H28        -4.5524  -10.4865    0.5433 H         1 <0>         0.0606
     52 H29        -3.1456  -10.6387   -0.5365 H         1 <0>         0.0602
     53 H30        -2.1513   -4.3872   -0.9337 H         1 <0>         0.4201
@<TRIPOS>BOND
     1    1    2 1
     2    1   27 1
     3    1   28 1
     4    1   29 1
     5    2    3 1
     6    2    4 1
     7    2   30 1
     8    3   31 1
     9    3   32 1
    10    3   33 1
    11    4    5 1
    12    4   34 1
    13    4   35 1
    14    5    6 1
    15    5   20 1
    16    5    7 1
    17    7    8 1
    18    7   36 1
    19    7   37 1
    20    8   17 1
    21    8    9 1
    22    8   53 1
    23    9   10 1
    24    9   38 1
    25    9   39 1
    26   10   11 1
    27   10   40 1
    28   10   41 1
    29   11   16 ar
    30   11   12 ar
    31   12   13 ar
    32   12   42 1
    33   13   14 ar
    34   13   25 1
    35   14   15 ar
    36   14   23 1
    37   15   16 ar
    38   15   43 1
    39   16   17 1
    40   17   18 1
    41   17   19 1
    42   19   20 1
    43   19   44 1
    44   19   45 1
    45   20   21 1
    46   20   22 1
    47   22   46 1
    48   23   24 1
    49   24   47 1
    50   24   48 1
    51   24   49 1
    52   25   26 1
    53   26   50 1
    54   26   51 1
    55   26   52 1
@<TRIPOS>MOLECULE
ZINC34093119
   53    55     0     0     0
SMALL
USER_CHARGES

@<TRIPOS>ATOM
      1 H1          0.3638   -0.7478   -0.4575 H         1 <0>         0.0886
      2 C1          0.1103    0.3044   -0.3276 C.3       1 <0>         0.0975
      3 C2         -0.7305    0.4753    0.9418 C.3       1 <0>        -0.1735
      4 C3         -1.0081    1.9641    1.1589 C.3       1 <0>         0.0947
      5 H2         -1.5346    2.3569    0.2890 H         1 <0>         0.1455
      6 C4         -1.8681    2.1550    2.3786 C.ar      1 <0>        -0.1269
      7 C5         -2.9034    1.2604    2.6081 C.ar      1 <0>        -0.1548
      8 C6         -3.7196    1.4035    3.7156 C.ar      1 <0>         0.1177
      9 C7         -3.5000    2.4521    4.6043 C.ar      1 <0>         0.1319
     10 C8         -2.4655    3.3410    4.3725 C.ar      1 <0>        -0.1665
     11 C9         -1.6489    3.1919    3.2618 C.ar      1 <0>        -0.0833
     12 C10        -0.5280    4.1784    3.0539 C.3       1 <0>        -0.1028
     13 C11        -0.0180    4.0922    1.6146 C.3       1 <0>        -0.0022
     14 N1          0.2585    2.6824    1.3133 N.4       1 <0>        -0.3774
     15 C12         1.0361    2.5912    0.0719 C.3       1 <0>        -0.0060
     16 C13         1.3947    1.1273   -0.1964 C.3       1 <0>        -0.1015
     17 H3          1.9907    0.7416    0.6307 H         1 <0>         0.1073
     18 C14         2.1987    1.0286   -1.4944 C.3       1 <0>        -0.1044
     19 C15         3.5479    1.7270   -1.3130 C.3       1 <0>        -0.1008
     20 C16         4.3802    0.9674   -0.2780 C.3       1 <0>        -0.1556
     21 C17         4.2934    1.7511   -2.6488 C.3       1 <0>        -0.1534
     22 O1         -4.2986    2.6023    5.6947 O.3       1 <0>        -0.2961
     23 C18        -4.0127    3.7017    6.5618 C.3       1 <0>         0.0210
     24 O2         -4.7329    0.5235    3.9352 O.3       1 <0>        -0.2959
     25 C19        -4.8983   -0.5269    2.9804 C.3       1 <0>         0.0217
     26 O3         -0.6344    0.7591   -1.4593 O.3       1 <0>        -0.5591
     27 H4         -1.6739   -0.0590    0.8290 H         1 <0>         0.1141
     28 H5         -0.1845    0.0775    1.7972 H         1 <0>         0.1008
     29 H6         -3.0733    0.4475    1.9176 H         1 <0>         0.1446
     30 H7         -2.2932    4.1557    5.0603 H         1 <0>         0.1473
     31 H8         -0.8926    5.1869    3.2489 H         1 <0>         0.1226
     32 H9          0.2869    3.9504    3.7409 H         1 <0>         0.1031
     33 H10        -0.7771    4.4774    0.9338 H         1 <0>         0.1337
     34 H11         0.8968    4.6763    1.5150 H         1 <0>         0.1384
     35 H12         0.4440    2.9784   -0.7573 H         1 <0>         0.1382
     36 H13         1.9499    3.1771    0.1713 H         1 <0>         0.1344
     37 H14         2.3628   -0.0203   -1.7413 H         1 <0>         0.0827
     38 H15         1.6462    1.5097   -2.3015 H         1 <0>         0.0840
     39 H16         3.3849    2.7485   -0.9693 H         1 <0>         0.0666
     40 H17         4.4577   -0.0794   -0.5715 H         1 <0>         0.0614
     41 H18         5.3774    1.4040   -0.2225 H         1 <0>         0.0622
     42 H19         3.8985    1.0366    0.6973 H         1 <0>         0.0491
     43 H20         3.7005    2.2922   -3.3861 H         1 <0>         0.0582
     44 H21         5.2546    2.2486   -2.5195 H         1 <0>         0.0606
     45 H22         4.4564    0.7296   -2.9924 H         1 <0>         0.0598
     46 H23        -4.7220    3.7058    7.3894 H         1 <0>         0.1112
     47 H24        -2.9997    3.6027    6.9520 H         1 <0>         0.0602
     48 H25        -4.0981    4.6350    6.0054 H         1 <0>         0.0606
     49 H26        -5.7391   -1.1554    3.2737 H         1 <0>         0.1110
     50 H27        -5.0913   -0.0973    1.9974 H         1 <0>         0.0586
     51 H28        -3.9905   -1.1291    2.9419 H         1 <0>         0.0576
     52 H29        -1.4632    0.2819   -1.6023 H         1 <0>         0.3925
     53 H30         0.7883    2.2689    2.0659 H         1 <0>         0.4207
@<TRIPOS>BOND
     1    1    2 1
     2    2   16 1
     3    2    3 1
     4    2   26 1
     5    3    4 1
     6    3   27 1
     7    3   28 1
     8    4    5 1
     9    4   14 1
    10    4    6 1
    11    6   11 ar
    12    6    7 ar
    13    7    8 ar
    14    7   29 1
    15    8    9 ar
    16    8   24 1
    17    9   10 ar
    18    9   22 1
    19   10   11 ar
    20   10   30 1
    21   11   12 1
    22   12   13 1
    23   12   31 1
    24   12   32 1
    25   13   14 1
    26   13   33 1
    27   13   34 1
    28   14   15 1
    29   14   53 1
    30   15   16 1
    31   15   35 1
    32   15   36 1
    33   16   17 1
    34   16   18 1
    35   18   19 1
    36   18   37 1
    37   18   38 1
    38   19   20 1
    39   19   21 1
    40   19   39 1
    41   20   40 1
    42   20   41 1
    43   20   42 1
    44   21   43 1
    45   21   44 1
    46   21   45 1
    47   22   23 1
    48   23   46 1
    49   23   47 1
    50   23   48 1
    51   24   25 1
    52   25   49 1
    53   25   50 1
    54   25   51 1
    55   26   52 1
@<TRIPOS>MOLECULE
ZINC05759845
   53    55     0     0     0
SMALL
USER_CHARGES

@<TRIPOS>ATOM
      1 C1         -2.2055    1.4537   -1.3831 C.3       1 <0>        -0.1548
      2 C2         -1.7218    0.0023   -1.3631 C.3       1 <0>        -0.1000
      3 C3         -0.5398   -0.1547   -2.3219 C.3       1 <0>        -0.1553
      4 C4         -1.2815   -0.3691    0.0543 C.3       1 <0>        -0.1223
      5 C5         -0.9121   -1.8530    0.1013 C.3       1 <0>        -0.1098
      6 H1         -0.1762   -2.0691   -0.6732 H         1 <0>         0.1303
      7 C6         -2.1658   -2.6990   -0.1355 C.3       1 <0>        -0.0035
      8 N1         -3.1520   -2.4116    0.9128 N.4       1 <0>        -0.3814
      9 C7         -4.3936   -3.1513    0.6503 C.3       1 <0>        -0.0040
     10 C8         -5.4920   -2.5995    1.5603 C.3       1 <0>        -0.1024
     11 C9         -5.0039   -2.5554    2.9860 C.ar      1 <0>        -0.0824
     12 C10        -5.9373   -2.4171    4.0022 C.ar      1 <0>        -0.1665
     13 C11        -5.5304   -2.3687    5.3236 C.ar      1 <0>         0.1331
     14 C12        -4.1759   -2.4594    5.6314 C.ar      1 <0>         0.1183
     15 C13        -3.2491   -2.5988    4.6142 C.ar      1 <0>        -0.1541
     16 C14        -3.6617   -2.6488    3.2905 C.ar      1 <0>        -0.1265
     17 C15        -2.6199   -2.8111    2.2172 C.3       1 <0>         0.0938
     18 H2         -2.3176   -3.8574    2.1716 H         1 <0>         0.1416
     19 C16        -1.3898   -1.9644    2.5502 C.3       1 <0>        -0.1792
     20 C17        -0.3226   -2.1893    1.4738 C.3       1 <0>         0.1047
     21 H3         -0.0052   -3.2319    1.4881 H         1 <0>         0.0752
     22 O1          0.8005   -1.3440    1.7309 O.3       1 <0>        -0.5469
     23 O2         -3.7655   -2.4106    6.9270 O.3       1 <0>        -0.2956
     24 C18        -2.3602   -2.5097    7.1666 C.3       1 <0>         0.0215
     25 O3         -6.4493   -2.2328    6.3169 O.3       1 <0>        -0.2957
     26 C19        -7.8206   -2.1455    5.9247 C.3       1 <0>         0.0208
     27 H4         -2.5191    1.7182   -2.3930 H         1 <0>         0.0636
     28 H5         -3.0475    1.5655   -0.7001 H         1 <0>         0.0533
     29 H6         -1.3943    2.1113   -1.0706 H         1 <0>         0.0627
     30 H7         -2.5330   -0.6554   -1.6756 H         1 <0>         0.0636
     31 H8         -0.2652   -1.2073   -2.3907 H         1 <0>         0.0557
     32 H9         -0.8212    0.2127   -3.3087 H         1 <0>         0.0627
     33 H10         0.3090    0.4186   -1.9491 H         1 <0>         0.0636
     34 H11        -0.4151    0.2301    0.3344 H         1 <0>         0.1028
     35 H12        -2.0975   -0.1755    0.7507 H         1 <0>         0.0524
     36 H13        -2.5897   -2.4561   -1.1099 H         1 <0>         0.1417
     37 H14        -1.9020   -3.7562   -0.1067 H         1 <0>         0.1347
     38 H15        -4.6831   -3.0219   -0.3925 H         1 <0>         0.1393
     39 H16        -4.2407   -4.2096    0.8617 H         1 <0>         0.1340
     40 H17        -5.7578   -1.5929    1.2374 H         1 <0>         0.1033
     41 H18        -6.3703   -3.2419    1.4981 H         1 <0>         0.1243
     42 H19        -6.9876   -2.3465    3.7607 H         1 <0>         0.1478
     43 H20        -2.1978   -2.6688    4.8517 H         1 <0>         0.1452
     44 H21        -1.6678   -0.9107    2.5737 H         1 <0>         0.1019
     45 H22        -0.9954   -2.2607    3.5222 H         1 <0>         0.1132
     46 H23         1.1976   -1.4720    2.6032 H         1 <0>         0.3923
     47 H24        -2.1697   -2.4573    8.2385 H         1 <0>         0.1113
     48 H25        -1.9915   -3.4591    6.7781 H         1 <0>         0.0586
     49 H26        -1.8475   -1.6885    6.6658 H         1 <0>         0.0580
     50 H27        -8.4460   -2.0399    6.8111 H         1 <0>         0.1114
     51 H28        -7.9589   -1.2796    5.2772 H         1 <0>         0.0604
     52 H29        -8.1028   -3.0503    5.3864 H         1 <0>         0.0608
     53 H30        -3.3526   -1.4228    0.9217 H         1 <0>         0.4225
@<TRIPOS>BOND
     1    1    2 1
     2    1   27 1
     3    1   28 1
     4    1   29 1
     5    2    3 1
     6    2    4 1
     7    2   30 1
     8    3   31 1
     9    3   32 1
    10    3   33 1
    11    4    5 1
    12    4   34 1
    13    4   35 1
    14    5    6 1
    15    5   20 1
    16    5    7 1
    17    7    8 1
    18    7   36 1
    19    7   37 1
    20    8   17 1
    21    8    9 1
    22    8   53 1
    23    9   10 1
    24    9   38 1
    25    9   39 1
    26   10   11 1
    27   10   40 1
    28   10   41 1
    29   11   16 ar
    30   11   12 ar
    31   12   13 ar
    32   12   42 1
    33   13   14 ar
    34   13   25 1
    35   14   15 ar
    36   14   23 1
    37   15   16 ar
    38   15   43 1
    39   16   17 1
    40   17   18 1
    41   17   19 1
    42   19   20 1
    43   19   44 1
    44   19   45 1
    45   20   21 1
    46   20   22 1
    47   22   46 1
    48   23   24 1
    49   24   47 1
    50   24   48 1
    51   24   49 1
    52   25   26 1
    53   26   50 1
    54   26   51 1
    55   26   52 1
@<TRIPOS>MOLECULE
ZINC02040859
   59    61     0     0     0
SMALL
USER_CHARGES
ethyl-isobutyl-dimethoxy-BLAHol
@<TRIPOS>ATOM
      1 C1          3.4826    7.6132   -2.8740 C.3       1 <0>        -0.1654
      2 C2          2.0444    8.1100   -2.7138 C.3       1 <0>        -0.1545
      3 C3          1.3315    7.2736   -1.6493 C.3       1 <0>         0.1323
      4 C4          1.4228    5.7899   -2.0189 C.3       1 <0>        -0.1719
      5 C5          0.6524    4.9677   -0.9835 C.3       1 <0>         0.0972
      6 H1          1.0980    5.1442   -0.0046 H         1 <0>         0.1470
      7 C6          0.7533    3.5034   -1.3164 C.ar      1 <0>        -0.1248
      8 C7          1.9782    3.0049   -1.7372 C.ar      1 <0>        -0.1554
      9 C8          2.1191    1.6649   -2.0495 C.ar      1 <0>         0.1184
     10 C9          1.0245    0.8122   -1.9392 C.ar      1 <0>         0.1313
     11 C10        -0.1959    1.3144   -1.5247 C.ar      1 <0>        -0.1664
     12 C11        -0.3315    2.6586   -1.2098 C.ar      1 <0>        -0.0833
     13 C12        -1.6823    3.1575   -0.7642 C.3       1 <0>        -0.1037
     14 C13        -1.5411    4.5210   -0.0869 C.3       1 <0>         0.0007
     15 C14        -0.8664    6.8041   -0.5570 C.3       1 <0>        -0.0167
     16 C15        -0.1410    7.6864   -1.5764 C.3       1 <0>        -0.0945
     17 H2         -0.2112    8.7298   -1.2693 H         1 <0>         0.1277
     18 C16        -0.7882    7.5146   -2.9520 C.3       1 <0>        -0.1278
     19 C17        -2.0703    8.3468   -3.0199 C.3       1 <0>        -0.0989
     20 C18        -2.6263    8.3117   -4.4449 C.3       1 <0>        -0.1546
     21 C19        -3.1060    7.7678   -2.0540 C.3       1 <0>        -0.1640
     22 O1          1.1528   -0.5072   -2.2429 O.3       1 <0>        -0.2962
     23 C20        -0.0138   -1.3209   -2.1059 C.3       1 <0>         0.0210
     24 O2          3.3217    1.1828   -2.4630 O.3       1 <0>        -0.2957
     25 C21         4.3993    2.1170   -2.5521 C.3       1 <0>         0.0216
     26 O3          1.9508    7.4888   -0.3796 O.3       1 <0>        -0.5537
     27 H3          3.4736    6.5670   -3.1798 H         1 <0>         0.0580
     28 H4          3.9904    8.2091   -3.6324 H         1 <0>         0.0706
     29 H5          4.0082    7.7096   -1.9240 H         1 <0>         0.0597
     30 H6          1.5187    8.0136   -3.6638 H         1 <0>         0.0837
     31 H7          2.0533    9.1562   -2.4080 H         1 <0>         0.0853
     32 H8          2.4677    5.4798   -2.0263 H         1 <0>         0.1156
     33 H9          0.9879    5.6328   -3.0059 H         1 <0>         0.1006
     34 H10         2.8269    3.6675   -1.8210 H         1 <0>         0.1439
     35 H11        -1.0473    0.6552   -1.4418 H         1 <0>         0.1472
     36 H12        -2.1158    2.4473   -0.0602 H         1 <0>         0.1233
     37 H13        -2.3354    3.2508   -1.6319 H         1 <0>         0.1017
     38 H14        -1.0347    4.4031    0.8711 H         1 <0>         0.1348
     39 H15        -2.5271    4.9578    0.0718 H         1 <0>         0.1361
     40 H16        -1.9191    7.0838   -0.5178 H         1 <0>         0.1471
     41 H17        -0.4172    6.9397    0.4268 H         1 <0>         0.1389
     42 H18        -0.0958    7.8505   -3.7239 H         1 <0>         0.0990
     43 H19        -1.0285    6.4635   -3.1119 H         1 <0>         0.0539
     44 H20        -1.8498    9.3773   -2.7413 H         1 <0>         0.0858
     45 H21        -2.8468    7.2812   -4.7236 H         1 <0>         0.0559
     46 H22        -3.5397    8.9045   -4.4933 H         1 <0>         0.0649
     47 H23        -1.8885    8.7242   -5.1331 H         1 <0>         0.0611
     48 H24        -2.9064    8.1320   -1.0462 H         1 <0>         0.0646
     49 H25        -4.1041    8.0792   -2.3619 H         1 <0>         0.0740
     50 H26        -3.0452    6.6795   -2.0657 H         1 <0>         0.0447
     51 H27         0.2259   -2.3486   -2.3788 H         1 <0>         0.1110
     52 H28        -0.3586   -1.2905   -1.0723 H         1 <0>         0.0605
     53 H29        -0.7986   -0.9444   -2.7620 H         1 <0>         0.0600
     54 H30         5.2983    1.6033   -2.8927 H         1 <0>         0.1110
     55 H31         4.1402    2.9041   -3.2602 H         1 <0>         0.0573
     56 H32         4.5814    2.5562   -1.5712 H         1 <0>         0.0586
     57 H33         2.8870    7.2482   -0.3528 H         1 <0>         0.3895
     58 N1         -0.7578    5.3912   -0.9876 N.4       1 <0>        -0.3889
     59 H34        -1.1295    5.3051   -1.9409 H         1 <0>         0.4208
@<TRIPOS>BOND
     1    1    2 1
     2    1   27 1
     3    1   28 1
     4    1   29 1
     5    2    3 1
     6    2   30 1
     7    2   31 1
     8    3   16 1
     9    3    4 1
    10    3   26 1
    11    4    5 1
    12    4   32 1
    13    4   33 1
    14    5    6 1
    15    5    7 1
    16    5   58 1
    17    7   12 ar
    18    7    8 ar
    19    8    9 ar
    20    8   34 1
    21    9   10 ar
    22    9   24 1
    23   10   11 ar
    24   10   22 1
    25   11   12 ar
    26   11   35 1
    27   12   13 1
    28   13   14 1
    29   13   36 1
    30   13   37 1
    31   14   38 1
    32   14   39 1
    33   14   58 1
    34   15   16 1
    35   15   40 1
    36   15   41 1
    37   15   58 1
    38   16   17 1
    39   16   18 1
    40   18   19 1
    41   18   42 1
    42   18   43 1
    43   19   20 1
    44   19   21 1
    45   19   44 1
    46   20   45 1
    47   20   46 1
    48   20   47 1
    49   21   48 1
    50   21   49 1
    51   21   50 1
    52   22   23 1
    53   23   51 1
    54   23   52 1
    55   23   53 1
    56   24   25 1
    57   25   54 1
    58   25   55 1
    59   25   56 1
    60   26   57 1
    61   58   59 1
@<TRIPOS>MOLECULE
ZINC03876053
   59    61     0     0     0
SMALL
USER_CHARGES
ethyl-isobutyl-dimethoxy-BLAHol
@<TRIPOS>ATOM
      1 C1         -2.8136   -6.2522    0.9098 C.3       1 <0>        -0.1666
      2 C2         -1.4380   -6.7931    0.5147 C.3       1 <0>        -0.1611
      3 C3         -1.0922   -6.3232   -0.8997 C.3       1 <0>         0.1365
      4 C4         -1.0687   -4.7922   -0.9385 C.3       1 <0>        -0.1758
      5 C5          0.0292   -4.2841   -0.0014 C.3       1 <0>         0.0968
      6 H1         -0.1724   -4.6356    1.0105 H         1 <0>         0.1454
      7 C6          0.0495   -2.7792   -0.0077 C.ar      1 <0>        -0.1264
      8 C7         -1.1620   -2.1025    0.0051 C.ar      1 <0>        -0.1545
      9 C8         -1.1917   -0.7198    0.0154 C.ar      1 <0>         0.1187
     10 C9          0.0021   -0.0041    0.0020 C.ar      1 <0>         0.1329
     11 C10         1.2073   -0.6827   -0.0131 C.ar      1 <0>        -0.1666
     12 C11         1.2320   -2.0697   -0.0205 C.ar      1 <0>        -0.0810
     13 C12         2.5702   -2.7627   -0.0503 C.3       1 <0>        -0.1033
     14 C13         2.4187   -4.2270    0.3190 C.3       1 <0>        -0.0035
     15 C14         1.3449   -6.2865   -0.3491 C.3       1 <0>        -0.0025
     16 C15         0.2862   -6.8598   -1.2948 C.3       1 <0>        -0.1032
     17 H2          0.2867   -7.9475   -1.2247 H         1 <0>         0.1305
     18 C16         0.6044   -6.4405   -2.7314 C.3       1 <0>        -0.1227
     19 C17         1.9237   -7.0799   -3.1689 C.3       1 <0>        -0.1002
     20 C18         1.7621   -8.6005   -3.2175 C.3       1 <0>        -0.1554
     21 C19         2.3052   -6.5629   -4.5575 C.3       1 <0>        -0.1548
     22 O1         -0.0164    1.3557    0.0095 O.3       1 <0>        -0.2958
     23 C20         1.2479    2.0217    0.0010 C.3       1 <0>         0.0208
     24 O2         -2.3821   -0.0624    0.0333 O.3       1 <0>        -0.2953
     25 C21        -3.5654   -0.8633    0.0463 C.3       1 <0>         0.0213
     26 O3         -2.0742   -6.8088   -1.8172 O.3       1 <0>        -0.5383
     27 H3         -3.0599   -6.5870    1.9174 H         1 <0>         0.0716
     28 H4         -2.7970   -5.1627    0.8828 H         1 <0>         0.0567
     29 H5         -3.5638   -6.6216    0.2106 H         1 <0>         0.0657
     30 H6         -1.4545   -7.8827    0.5417 H         1 <0>         0.0887
     31 H7         -0.6878   -6.4237    1.2139 H         1 <0>         0.0684
     32 H8         -2.0340   -4.4045   -0.6128 H         1 <0>         0.1154
     33 H9         -0.8642   -4.4565   -1.9552 H         1 <0>         0.1020
     34 H10        -2.0874   -2.6592    0.0118 H         1 <0>         0.1441
     35 H11         2.1348   -0.1294   -0.0189 H         1 <0>         0.1477
     36 H12         2.9807   -2.7129   -1.0588 H         1 <0>         0.0996
     37 H13         3.2508   -2.2643    0.6400 H         1 <0>         0.1259
     38 H14         2.1945   -4.2848    1.3841 H         1 <0>         0.1326
     39 H15         3.3434   -4.7639    0.1073 H         1 <0>         0.1391
     40 H16         1.1279   -6.5995    0.6722 H         1 <0>         0.1381
     41 H17         2.3293   -6.6527   -0.6404 H         1 <0>         0.1405
     42 H18        -0.1966   -6.7715   -3.3924 H         1 <0>         0.1039
     43 H19         0.6922   -5.3552   -2.7822 H         1 <0>         0.0528
     44 H20         2.7070   -6.8203   -2.4568 H         1 <0>         0.0636
     45 H21         2.7021   -9.0560   -3.5292 H         1 <0>         0.0624
     46 H22         1.4904   -8.9688   -2.2282 H         1 <0>         0.0562
     47 H23         0.9788   -8.8601   -3.9296 H         1 <0>         0.0638
     48 H24         2.4204   -5.4796   -4.5229 H         1 <0>         0.0534
     49 H25         3.2452   -7.0185   -4.8692 H         1 <0>         0.0637
     50 H26         1.5219   -6.8225   -5.2697 H         1 <0>         0.0630
     51 H27         1.8173    1.7317    0.8840 H         1 <0>         0.0607
     52 H28         1.8003    1.7413   -0.8958 H         1 <0>         0.0604
     53 H29         1.0905    3.1003    0.0083 H         1 <0>         0.1113
     54 H30        -3.5901   -1.4895   -0.8456 H         1 <0>         0.0579
     55 H31        -3.5666   -1.4954    0.9342 H         1 <0>         0.0584
     56 H32        -4.4422   -0.2159    0.0600 H         1 <0>         0.1113
     57 H33        -2.9727   -6.5050   -1.6288 H         1 <0>         0.3882
     58 N1          1.3233   -4.8131   -0.4728 N.4       1 <0>        -0.3897
     59 H34         1.4494   -4.5587   -1.4595 H         1 <0>         0.4268
@<TRIPOS>BOND
     1    1    2 1
     2    1   27 1
     3    1   28 1
     4    1   29 1
     5    2    3 1
     6    2   30 1
     7    2   31 1
     8    3   16 1
     9    3    4 1
    10    3   26 1
    11    4    5 1
    12    4   32 1
    13    4   33 1
    14    5    6 1
    15    5    7 1
    16    5   58 1
    17    7   12 ar
    18    7    8 ar
    19    8    9 ar
    20    8   34 1
    21    9   10 ar
    22    9   24 1
    23   10   11 ar
    24   10   22 1
    25   11   12 ar
    26   11   35 1
    27   12   13 1
    28   13   14 1
    29   13   36 1
    30   13   37 1
    31   14   38 1
    32   14   39 1
    33   14   58 1
    34   15   16 1
    35   15   40 1
    36   15   41 1
    37   15   58 1
    38   16   17 1
    39   16   18 1
    40   18   19 1
    41   18   42 1
    42   18   43 1
    43   19   20 1
    44   19   21 1
    45   19   44 1
    46   20   45 1
    47   20   46 1
    48   20   47 1
    49   21   48 1
    50   21   49 1
    51   21   50 1
    52   22   23 1
    53   23   51 1
    54   23   52 1
    55   23   53 1
    56   24   25 1
    57   25   54 1
    58   25   55 1
    59   25   56 1
    60   26   57 1
    61   58   59 1
@<TRIPOS>MOLECULE
ZINC03876054
   59    61     0     0     0
SMALL
USER_CHARGES
ethyl-isobutyl-dimethoxy-BLAHol
@<TRIPOS>ATOM
      1 C1          2.4936    7.1418    1.0552 C.3       1 <0>        -0.1672
      2 C2          3.7400    6.3698    0.6176 C.3       1 <0>        -0.1629
      3 C3          3.5801    5.9263   -0.8380 C.3       1 <0>         0.1351
      4 C4          2.2852    5.1220   -0.9883 C.3       1 <0>        -0.1735
      5 C5          2.3763    3.8606   -0.1269 C.3       1 <0>         0.0950
      6 H1          2.5182    4.1633    0.9106 H         1 <0>         0.1442
      7 C6          1.1005    3.0706   -0.2417 C.ar      1 <0>        -0.1254
      8 C7         -0.1047    3.7586   -0.2385 C.ar      1 <0>        -0.1551
      9 C8         -1.3026    3.0734   -0.3311 C.ar      1 <0>         0.1188
     10 C9         -1.2969    1.6852   -0.4341 C.ar      1 <0>         0.1326
     11 C10        -0.0935    1.0033   -0.4335 C.ar      1 <0>        -0.1667
     12 C11         1.1055    1.6953   -0.3430 C.ar      1 <0>        -0.0820
     13 C12         2.3909    0.9084   -0.3667 C.3       1 <0>        -0.1033
     14 C13         3.5429    1.7687    0.1533 C.3       1 <0>         0.0012
     15 C14         4.7837    3.7865   -0.3722 C.3       1 <0>        -0.0039
     16 C15         4.7689    5.0487   -1.2385 C.3       1 <0>        -0.0992
     17 H2          4.6770    4.7684   -2.2878 H         1 <0>         0.1062
     18 C16         6.0702    5.8260   -1.0299 C.3       1 <0>        -0.1071
     19 C17         7.2456    5.0054   -1.5646 C.3       1 <0>        -0.0992
     20 C18         7.1176    4.8599   -3.0822 C.3       1 <0>        -0.1544
     21 C19         8.5583    5.7165   -1.2294 C.3       1 <0>        -0.1534
     22 O1         -2.4692    1.0023   -0.5289 O.3       1 <0>        -0.2959
     23 C20        -2.3849   -0.4210   -0.6251 C.3       1 <0>         0.0209
     24 O2         -2.4803    3.7533   -0.3278 O.3       1 <0>        -0.2954
     25 C21        -2.4074    5.1768   -0.2260 C.3       1 <0>         0.0213
     26 O3          3.5289    7.0759   -1.6852 O.3       1 <0>        -0.5382
     27 H3          1.6179    6.4991    0.9654 H         1 <0>         0.0562
     28 H4          2.6075    7.4578    2.0922 H         1 <0>         0.0712
     29 H5          2.3676    8.0186    0.4200 H         1 <0>         0.0650
     30 H6          3.8660    5.4931    1.2528 H         1 <0>         0.0680
     31 H7          4.6157    7.0126    0.7074 H         1 <0>         0.0921
     32 H8          2.1499    4.8411   -2.0328 H         1 <0>         0.1000
     33 H9          1.4402    5.7272   -0.6601 H         1 <0>         0.1166
     34 H10        -0.1073    4.8359   -0.1630 H         1 <0>         0.1439
     35 H11        -0.0870   -0.0741   -0.5084 H         1 <0>         0.1475
     36 H12         2.2859    0.0255    0.2638 H         1 <0>         0.1231
     37 H13         2.6052    0.5968   -1.3890 H         1 <0>         0.1039
     38 H14         4.4903    1.2629   -0.0331 H         1 <0>         0.1382
     39 H15         3.4227    1.9378    1.2233 H         1 <0>         0.1340
     40 H16         4.8935    4.0659    0.6756 H         1 <0>         0.1357
     41 H17         5.6184    3.1515   -0.6690 H         1 <0>         0.1404
     42 H18         6.0164    6.7745   -1.5642 H         1 <0>         0.0946
     43 H19         6.2135    6.0158    0.0338 H         1 <0>         0.0745
     44 H20         7.2392    4.0180   -1.1030 H         1 <0>         0.0652
     45 H21         7.1241    5.8473   -3.5438 H         1 <0>         0.0627
     46 H22         7.9550    4.2753   -3.4631 H         1 <0>         0.0605
     47 H23         6.1825    4.3533   -3.3210 H         1 <0>         0.0497
     48 H24         9.3967    5.1207   -1.5902 H         1 <0>         0.0607
     49 H25         8.5744    6.6948   -1.7096 H         1 <0>         0.0605
     50 H26         8.6388    5.8404   -0.1494 H         1 <0>         0.0570
     51 H27        -1.8865   -0.8161    0.2602 H         1 <0>         0.0606
     52 H28        -3.3885   -0.8405   -0.6947 H         1 <0>         0.1113
     53 H29        -1.8153   -0.6920   -1.5141 H         1 <0>         0.0604
     54 H30        -3.4145    5.5938   -0.2347 H         1 <0>         0.1113
     55 H31        -1.9093    5.4495    0.7044 H         1 <0>         0.0584
     56 H32        -1.8429    5.5730   -1.0701 H         1 <0>         0.0580
     57 H33         2.7983    7.6778   -1.4877 H         1 <0>         0.3880
     58 N1          3.5173    3.0494   -0.5834 N.4       1 <0>        -0.3895
     59 H34         3.4092    2.8555   -1.5859 H         1 <0>         0.4281
@<TRIPOS>BOND
     1    1    2 1
     2    1   27 1
     3    1   28 1
     4    1   29 1
     5    2    3 1
     6    2   30 1
     7    2   31 1
     8    3   16 1
     9    3    4 1
    10    3   26 1
    11    4    5 1
    12    4   32 1
    13    4   33 1
    14    5    6 1
    15    5    7 1
    16    5   58 1
    17    7   12 ar
    18    7    8 ar
    19    8    9 ar
    20    8   34 1
    21    9   10 ar
    22    9   24 1
    23   10   11 ar
    24   10   22 1
    25   11   12 ar
    26   11   35 1
    27   12   13 1
    28   13   14 1
    29   13   36 1
    30   13   37 1
    31   14   38 1
    32   14   39 1
    33   14   58 1
    34   15   16 1
    35   15   40 1
    36   15   41 1
    37   15   58 1
    38   16   17 1
    39   16   18 1
    40   18   19 1
    41   18   42 1
    42   18   43 1
    43   19   20 1
    44   19   21 1
    45   19   44 1
    46   20   45 1
    47   20   46 1
    48   20   47 1
    49   21   48 1
    50   21   49 1
    51   21   50 1
    52   22   23 1
    53   23   51 1
    54   23   52 1
    55   23   53 1
    56   24   25 1
    57   25   54 1
    58   25   55 1
    59   25   56 1
    60   26   57 1
    61   58   59 1
@<TRIPOS>MOLECULE
ZINC03876055
   59    61     0     0     0
SMALL
USER_CHARGES
ethyl-isobutyl-dimethoxy-BLAHol
@<TRIPOS>ATOM
      1 C1          1.4200    1.5019    2.5312 C.3       1 <0>        -0.1651
      2 C2         -0.0335    1.0248    2.5075 C.3       1 <0>        -0.1513
      3 C3         -0.7329    1.5814    1.2658 C.3       1 <0>         0.1318
      4 C4         -0.0127    1.0858    0.0080 C.3       1 <0>        -0.1702
      5 C5         -0.7560    1.5943   -1.2292 C.3       1 <0>         0.0993
      6 H1         -0.7776    2.6839   -1.2080 H         1 <0>         0.1461
      7 C6         -0.0448    1.1416   -2.4758 C.ar      1 <0>        -0.1251
      8 C7          1.3414    1.2021   -2.5044 C.ar      1 <0>        -0.1555
      9 C8          2.0371    0.8005   -3.6302 C.ar      1 <0>         0.1183
     10 C9          1.3408    0.3329   -4.7412 C.ar      1 <0>         0.1314
     11 C10        -0.0408    0.2729   -4.7079 C.ar      1 <0>        -0.1667
     12 C11        -0.7339    0.6754   -3.5756 C.ar      1 <0>        -0.0830
     13 C12        -2.2386    0.5857   -3.5872 C.3       1 <0>        -0.1034
     14 C13        -2.8234    1.4400   -2.4620 C.3       1 <0>         0.0022
     15 C14        -2.8652    1.6046   -0.0411 C.3       1 <0>         0.0013
     16 C15        -2.1879    1.1008    1.2362 C.3       1 <0>        -0.0960
     17 H2         -2.2109    0.0112    1.2543 H         1 <0>         0.1065
     18 C16        -2.9305    1.6473    2.4571 C.3       1 <0>        -0.1063
     19 C17        -4.3462    1.0682    2.4943 C.3       1 <0>        -0.1007
     20 C18        -4.2728   -0.4449    2.7090 C.3       1 <0>        -0.1556
     21 C19        -5.1293    1.7087    3.6421 C.3       1 <0>        -0.1531
     22 O1          2.0154   -0.0625   -5.8539 O.3       1 <0>        -0.2962
     23 C20         1.2334   -0.5301   -6.9547 C.3       1 <0>         0.0211
     24 O2          3.3954    0.8621   -3.6518 O.3       1 <0>        -0.2958
     25 C21         4.0414    1.3525   -2.4752 C.3       1 <0>         0.0217
     26 O3         -0.7034    3.0097    1.3008 O.3       1 <0>        -0.5515
     27 H3          1.4444    2.5913    2.5581 H         1 <0>         0.0607
     28 H4          1.9182    1.1053    3.4158 H         1 <0>         0.0704
     29 H5          1.9328    1.1490    1.6364 H         1 <0>         0.0569
     30 H6         -0.5464    1.3777    3.4023 H         1 <0>         0.0870
     31 H7         -0.0579   -0.0646    2.4806 H         1 <0>         0.0780
     32 H8          0.0021   -0.0041    0.0020 H         1 <0>         0.1002
     33 H9          1.0095    1.4643    0.0003 H         1 <0>         0.1156
     34 H10         1.8804    1.5658   -1.6420 H         1 <0>         0.1437
     35 H11        -0.5831   -0.0899   -5.5685 H         1 <0>         0.1470
     36 H12        -2.6148    0.9434   -4.5457 H         1 <0>         0.1223
     37 H13        -2.5400   -0.4524   -3.4471 H         1 <0>         0.1028
     38 H14        -2.6719    2.4956   -2.6873 H         1 <0>         0.1336
     39 H15        -3.8896    1.2360   -2.3638 H         1 <0>         0.1369
     40 H16        -2.8580    2.6945   -0.0511 H         1 <0>         0.1399
     41 H17        -3.8942    1.2467   -0.0727 H         1 <0>         0.1329
     42 H18        -2.3975    1.3623    3.3642 H         1 <0>         0.0853
     43 H19        -2.9841    2.7341    2.3934 H         1 <0>         0.0843
     44 H20        -4.8492    1.2772    1.5502 H         1 <0>         0.0665
     45 H21        -3.7698   -0.6540    3.6531 H         1 <0>         0.0616
     46 H22        -5.2814   -0.8575    2.7355 H         1 <0>         0.0615
     47 H23        -3.7150   -0.9013    1.8913 H         1 <0>         0.0492
     48 H24        -5.1816    2.7867    3.4892 H         1 <0>         0.0582
     49 H25        -6.1378    1.2961    3.6686 H         1 <0>         0.0604
     50 H26        -4.6263    1.4997    4.5863 H         1 <0>         0.0595
     51 H27         0.6490   -1.3960   -6.6434 H         1 <0>         0.0601
     52 H28         0.5615    0.2618   -7.2855 H         1 <0>         0.0605
     53 H29         1.8932   -0.8130   -7.7749 H         1 <0>         0.1111
     54 H30         5.1210    1.3498   -2.6255 H         1 <0>         0.1109
     55 H31         3.7052    2.3696   -2.2734 H         1 <0>         0.0586
     56 H32         3.7906    0.7124   -1.6294 H         1 <0>         0.0574
     57 H33         0.1879    3.3844    1.3164 H         1 <0>         0.3882
     58 N1         -2.1314    1.0688   -1.2100 N.4       1 <0>        -0.3888
     59 H34        -2.0966    0.0451   -1.1392 H         1 <0>         0.4239
@<TRIPOS>BOND
     1    1    2 1
     2    1   27 1
     3    1   28 1
     4    1   29 1
     5    2    3 1
     6    2   30 1
     7    2   31 1
     8    3   16 1
     9    3    4 1
    10    3   26 1
    11    4    5 1
    12    4   32 1
    13    4   33 1
    14    5    6 1
    15    5    7 1
    16    5   58 1
    17    7   12 ar
    18    7    8 ar
    19    8    9 ar
    20    8   34 1
    21    9   10 ar
    22    9   24 1
    23   10   11 ar
    24   10   22 1
    25   11   12 ar
    26   11   35 1
    27   12   13 1
    28   13   14 1
    29   13   36 1
    30   13   37 1
    31   14   38 1
    32   14   39 1
    33   14   58 1
    34   15   16 1
    35   15   40 1
    36   15   41 1
    37   15   58 1
    38   16   17 1
    39   16   18 1
    40   18   19 1
    41   18   42 1
    42   18   43 1
    43   19   20 1
    44   19   21 1
    45   19   44 1
    46   20   45 1
    47   20   46 1
    48   20   47 1
    49   21   48 1
    50   21   49 1
    51   21   50 1
    52   22   23 1
    53   23   51 1
    54   23   52 1
    55   23   53 1
    56   24   25 1
    57   25   54 1
    58   25   55 1
    59   25   56 1
    60   26   57 1
    61   58   59 1
@<TRIPOS>MOLECULE
ZINC01747054
   44    46     0     0     0
SMALL
USER_CHARGES
2,6-dibenzylpiperidine
@<TRIPOS>ATOM
      1 C1          5.4013    5.0503    0.3082 C.ar      1 <0>        -0.1043
      2 C2          4.8532    4.8041   -0.9367 C.ar      1 <0>        -0.1038
      3 C3          3.5592    4.3290   -1.0404 C.ar      1 <0>        -0.1400
      4 C4          2.8135    4.0997    0.1007 C.ar      1 <0>        -0.1266
      5 C5          3.3598    4.3509    1.3455 C.ar      1 <0>        -0.1052
      6 C6          4.6552    4.8223    1.4494 C.ar      1 <0>        -0.1056
      7 C7          1.4028    3.5817   -0.0124 C.3       1 <0>        -0.1002
      8 C8          1.4188    2.0518   -0.0005 C.3       1 <0>         0.0382
      9 H1          1.9403    1.7012    0.8902 H         1 <0>         0.1373
     10 C9         -0.0187    1.5270    0.0104 C.3       1 <0>        -0.1397
     11 C10         0.0021   -0.0041    0.0020 C.3       1 <0>        -0.1377
     12 C11         0.7710   -0.4895   -1.2299 C.3       1 <0>        -0.1397
     13 C12         2.1856    0.0938   -1.2049 C.3       1 <0>         0.0383
     14 H2          2.7034   -0.2475   -0.3085 H         1 <0>         0.1373
     15 C13         2.9513   -0.3725   -2.4447 C.3       1 <0>        -0.1002
     16 C14         4.3799    0.0996   -2.3598 C.ar      1 <0>        -0.1267
     17 C15         4.7357    1.3249   -2.8918 C.ar      1 <0>        -0.1397
     18 C16         6.0454    1.7597   -2.8105 C.ar      1 <0>        -0.1040
     19 C17         7.0010    0.9654   -2.2048 C.ar      1 <0>        -0.1043
     20 C18         6.6461   -0.2620   -1.6770 C.ar      1 <0>        -0.1057
     21 C19         5.3357   -0.6951   -1.7549 C.ar      1 <0>        -0.1052
     22 H3          6.4124    5.4212    0.3893 H         1 <0>         0.1311
     23 H4          5.4360    4.9826   -1.8282 H         1 <0>         0.1297
     24 H5          3.1309    4.1367   -2.0130 H         1 <0>         0.1183
     25 H6          2.7757    4.1759    2.2369 H         1 <0>         0.1290
     26 H7          5.0833    5.0150    2.4220 H         1 <0>         0.1317
     27 H8          0.9604    3.9332   -0.9444 H         1 <0>         0.0968
     28 H9          0.8136    3.9455    0.8294 H         1 <0>         0.1210
     29 H10        -0.5449    1.8886   -0.8730 H         1 <0>         0.0902
     30 H11        -0.5279    1.8791    0.9076 H         1 <0>         0.1133
     31 H12         0.4940   -0.3667    0.9046 H         1 <0>         0.0822
     32 H13        -1.0197   -0.3820   -0.0340 H         1 <0>         0.0974
     33 H14         0.8260   -1.5780   -1.2190 H         1 <0>         0.1132
     34 H15         0.2568   -0.1601   -2.1329 H         1 <0>         0.0902
     35 H16         2.9308   -1.4610   -2.4963 H         1 <0>         0.1210
     36 H17         2.4840    0.0425   -3.3378 H         1 <0>         0.0968
     37 H18         3.9899    1.9438   -3.3684 H         1 <0>         0.1184
     38 H19         6.3227    2.7184   -3.2232 H         1 <0>         0.1297
     39 H20         8.0249    1.3036   -2.1443 H         1 <0>         0.1311
     40 H21         7.3928   -0.8827   -1.2042 H         1 <0>         0.1317
     41 H22         5.0585   -1.6541   -1.3429 H         1 <0>         0.1290
     42 N1          2.1161    1.5675   -1.2071 N.4       1 <0>        -0.5159
     43 H23         3.0684    1.9510   -1.2242 H         1 <0>         0.4286
     44 H24         1.6059    1.8808   -2.0412 H         1 <0>         0.4231
@<TRIPOS>BOND
     1    1    6 ar
     2    1    2 ar
     3    1   22 1
     4    2    3 ar
     5    2   23 1
     6    3    4 ar
     7    3   24 1
     8    4    5 ar
     9    4    7 1
    10    5    6 ar
    11    5   25 1
    12    6   26 1
    13    7    8 1
    14    7   27 1
    15    7   28 1
    16    8    9 1
    17    8   10 1
    18    8   42 1
    19   10   11 1
    20   10   29 1
    21   10   30 1
    22   11   12 1
    23   11   31 1
    24   11   32 1
    25   12   13 1
    26   12   33 1
    27   12   34 1
    28   13   14 1
    29   13   15 1
    30   13   42 1
    31   15   16 1
    32   15   35 1
    33   15   36 1
    34   16   21 ar
    35   16   17 ar
    36   17   18 ar
    37   17   37 1
    38   18   19 ar
    39   18   38 1
    40   19   20 ar
    41   19   39 1
    42   20   21 ar
    43   20   40 1
    44   21   41 1
    45   42   43 1
    46   42   44 1
@<TRIPOS>MOLECULE
ZINC05682772
   64    67     0     0     0
SMALL
USER_CHARGES
2-(2,5-diphenethylpyrrolidin-1-yl)-2-phenyl-ethanol
@<TRIPOS>ATOM
      1 C1         -5.3159    0.4953    1.1928 C.ar      1 <0>        -0.1133
      2 C2         -4.9850    1.2757    0.1009 C.ar      1 <0>        -0.1140
      3 C3         -3.9203    2.1541    0.1763 C.ar      1 <0>        -0.1151
      4 C4         -3.1869    2.2525    1.3439 C.ar      1 <0>        -0.1003
      5 C5         -3.5145    1.4683    2.4341 C.ar      1 <0>        -0.1168
      6 C6         -4.5816    0.5926    2.3599 C.ar      1 <0>        -0.1142
      7 C7         -2.0262    3.2102    1.4262 C.3       1 <0>        -0.0914
      8 C8         -2.4970    4.5306    2.0390 C.3       1 <0>        -0.1302
      9 C9         -1.4159    5.0719    2.9766 C.3       1 <0>        -0.0095
     10 H1         -0.7776    4.2617    3.3290 H         1 <0>         0.1665
     11 C10        -2.0620    5.8098    4.1757 C.3       1 <0>        -0.1424
     12 C11        -0.9205    6.7683    4.6058 C.3       1 <0>        -0.1519
     13 C12        -0.2687    7.1576    3.2622 C.3       1 <0>         0.0234
     14 H2         -0.6606    8.1159    2.9212 H         1 <0>         0.1384
     15 C13         0.6051    5.5163    1.7045 C.3       1 <0>         0.0912
     16 H3          1.2159    6.3064    1.2677 H         1 <0>         0.1490
     17 C14         0.2135    4.5141    0.6168 C.3       1 <0>         0.0234
     18 O1         -0.7318    5.1175   -0.2688 O.3       1 <0>        -0.5764
     19 C15         1.3909    4.8099    2.7790 C.ar      1 <0>        -0.1206
     20 C16         2.6326    4.2759    2.4893 C.ar      1 <0>        -0.0924
     21 C17         3.3532    3.6276    3.4749 C.ar      1 <0>        -0.0984
     22 C18         2.8320    3.5132    4.7501 C.ar      1 <0>        -0.0941
     23 C19         1.5880    4.0426    5.0385 C.ar      1 <0>        -0.1061
     24 C20         0.8698    4.6955    4.0543 C.ar      1 <0>        -0.1782
     25 C21         1.2499    7.2454    3.4265 C.3       1 <0>        -0.1655
     26 C22         1.6032    8.4874    4.2470 C.3       1 <0>        -0.0732
     27 C23         3.1012    8.6417    4.3051 C.ar      1 <0>        -0.0932
     28 C24         3.8176    8.0516    5.3296 C.ar      1 <0>        -0.1132
     29 C25         5.1920    8.1898    5.3807 C.ar      1 <0>        -0.1150
     30 C26         5.8493    8.9250    4.4120 C.ar      1 <0>        -0.1150
     31 C27         5.1323    9.5195    3.3905 C.ar      1 <0>        -0.1153
     32 C28         3.7583    9.3780    3.3372 C.ar      1 <0>        -0.1171
     33 H4         -6.1480   -0.1908    1.1340 H         1 <0>         0.1264
     34 H5         -5.5585    1.1993   -0.8111 H         1 <0>         0.1261
     35 H6         -3.6618    2.7638   -0.6768 H         1 <0>         0.1209
     36 H7         -2.9387    1.5419    3.3448 H         1 <0>         0.1196
     37 H8         -4.8399   -0.0173    3.2129 H         1 <0>         0.1258
     38 H9         -1.6345    3.3932    0.4256 H         1 <0>         0.0853
     39 H10        -1.2430    2.7791    2.0497 H         1 <0>         0.0808
     40 H11        -3.4154    4.3630    2.6018 H         1 <0>         0.1086
     41 H12        -2.6844    5.2534    1.2449 H         1 <0>         0.0950
     42 H13        -2.3088    5.1125    4.9762 H         1 <0>         0.1191
     43 H14        -2.9437    6.3687    3.8618 H         1 <0>         0.1061
     44 H15        -0.2049    6.2525    5.2461 H         1 <0>         0.1110
     45 H16        -1.3214    7.6481    5.1089 H         1 <0>         0.1172
     46 H17         1.1011    4.2212    0.0560 H         1 <0>         0.0909
     47 H18        -0.2320    3.6327    1.0782 H         1 <0>         0.1015
     48 H19        -1.0774    4.5171   -0.9436 H         1 <0>         0.4071
     49 H20         3.0396    4.3649    1.4929 H         1 <0>         0.1329
     50 H21         4.3231    3.2100    3.2485 H         1 <0>         0.1367
     51 H22         3.3949    3.0064    5.5200 H         1 <0>         0.1351
     52 H23         1.1790    3.9493    6.0336 H         1 <0>         0.1352
     53 H24        -0.1005    5.1124    4.2805 H         1 <0>         0.1639
     54 H25         1.6117    6.3551    3.9409 H         1 <0>         0.1236
     55 H26         1.7182    7.3132    2.4446 H         1 <0>         0.0864
     56 H27         1.1651    9.3689    3.7789 H         1 <0>         0.0776
     57 H28         1.2096    8.3793    5.2577 H         1 <0>         0.0806
     58 H29         3.3037    7.4800    6.0883 H         1 <0>         0.1191
     59 H30         5.7521    7.7256    6.1790 H         1 <0>         0.1243
     60 H31         6.9228    9.0352    4.4534 H         1 <0>         0.1252
     61 H32         5.6458   10.0942    2.6338 H         1 <0>         0.1248
     62 H33         3.1981    9.8425    2.5391 H         1 <0>         0.1196
     63 N1         -0.6257    6.1096    2.2892 N.4       1 <0>        -0.3817
     64 H34        -1.1892    6.5221    1.5365 H         1 <0>         0.4365
@<TRIPOS>BOND
     1    1    6 ar
     2    1    2 ar
     3    1   33 1
     4    2    3 ar
     5    2   34 1
     6    3    4 ar
     7    3   35 1
     8    4    5 ar
     9    4    7 1
    10    5    6 ar
    11    5   36 1
    12    6   37 1
    13    7    8 1
    14    7   38 1
    15    7   39 1
    16    8    9 1
    17    8   40 1
    18    8   41 1
    19    9   10 1
    20    9   11 1
    21    9   63 1
    22   11   12 1
    23   11   42 1
    24   11   43 1
    25   12   13 1
    26   12   44 1
    27   12   45 1
    28   13   14 1
    29   13   25 1
    30   13   63 1
    31   15   16 1
    32   15   17 1
    33   15   19 1
    34   15   63 1
    35   17   18 1
    36   17   46 1
    37   17   47 1
    38   18   48 1
    39   19   24 ar
    40   19   20 ar
    41   20   21 ar
    42   20   49 1
    43   21   22 ar
    44   21   50 1
    45   22   23 ar
    46   22   51 1
    47   23   24 ar
    48   23   52 1
    49   24   53 1
    50   25   26 1
    51   25   54 1
    52   25   55 1
    53   26   27 1
    54   26   56 1
    55   26   57 1
    56   27   32 ar
    57   27   28 ar
    58   28   29 ar
    59   28   58 1
    60   29   30 ar
    61   29   59 1
    62   30   31 ar
    63   30   60 1
    64   31   32 ar
    65   31   61 1
    66   32   62 1
    67   63   64 1
@<TRIPOS>MOLECULE
ZINC34325316
   53    55     0     0     0
SMALL
USER_CHARGES

@<TRIPOS>ATOM
      1 C1         -2.2215    1.6630   -1.1235 C.3       1 <0>        -0.1537
      2 C2         -1.8796    0.1894   -1.3532 C.3       1 <0>        -0.0989
      3 C3         -0.7175    0.0837   -2.3427 C.3       1 <0>        -0.1551
      4 C4         -1.4782   -0.4541   -0.0244 C.3       1 <0>        -0.1071
      5 C5         -1.2726   -1.9566   -0.2269 C.3       1 <0>        -0.1077
      6 H1         -0.5611   -2.1203   -1.0363 H         1 <0>         0.1065
      7 C6         -2.6099   -2.6115   -0.5826 C.3       1 <0>        -0.0047
      8 N1         -2.4113   -4.0536   -0.7687 N.4       1 <0>        -0.3801
      9 C7         -3.6683   -4.6826   -1.1951 C.3       1 <0>        -0.0033
     10 C8         -3.3643   -6.1005   -1.6812 C.3       1 <0>        -0.1018
     11 C9         -2.5424   -6.8317   -0.6503 C.ar      1 <0>        -0.0824
     12 C10        -2.4517   -8.2129   -0.7330 C.ar      1 <0>        -0.1667
     13 C11        -1.7052   -8.9213    0.1916 C.ar      1 <0>         0.1330
     14 C12        -1.0419   -8.2407    1.2088 C.ar      1 <0>         0.1181
     15 C13        -1.1362   -6.8629    1.2872 C.ar      1 <0>        -0.1541
     16 C14        -1.8882   -6.1568    0.3594 C.ar      1 <0>        -0.1265
     17 C15        -1.9717   -4.6602    0.4894 C.3       1 <0>         0.0936
     18 H2         -2.6882   -4.4116    1.2724 H         1 <0>         0.1409
     19 C16        -0.6064   -4.0926    0.8828 C.3       1 <0>        -0.1753
     20 C17        -0.7295   -2.5761    1.0635 C.3       1 <0>         0.1029
     21 H3         -1.4123   -2.3619    1.8857 H         1 <0>         0.0742
     22 O1          0.5562   -2.0240    1.3536 O.3       1 <0>        -0.5470
     23 O2         -0.3038   -8.9276    2.1214 O.3       1 <0>        -0.2956
     24 C18         0.3486   -8.1622    3.1365 C.3       1 <0>         0.0215
     25 O3         -1.6202  -10.2760    0.1076 O.3       1 <0>        -0.2957
     26 C19        -2.3280  -10.9052   -0.9625 C.3       1 <0>         0.0208
     27 H4         -2.5074    2.1214   -2.0702 H         1 <0>         0.0609
     28 H5         -3.0494    1.7383   -0.4186 H         1 <0>         0.0573
     29 H6         -1.3511    2.1790   -0.7182 H         1 <0>         0.0606
     30 H7         -2.7500   -0.3266   -1.7585 H         1 <0>         0.0655
     31 H8         -0.4283   -0.9614   -2.4531 H         1 <0>         0.0504
     32 H9         -1.0269    0.4792   -3.3101 H         1 <0>         0.0604
     33 H10         0.1306    0.6579   -1.9698 H         1 <0>         0.0629
     34 H11        -0.5508   -0.0051    0.3312 H         1 <0>         0.0941
     35 H12        -2.2661   -0.2910    0.7109 H         1 <0>         0.0729
     36 H13        -3.3230   -2.4437    0.2245 H         1 <0>         0.1335
     37 H14        -2.9945   -2.1754   -1.5046 H         1 <0>         0.1418
     38 H15        -4.3602   -4.7246   -0.3539 H         1 <0>         0.1332
     39 H16        -4.1099   -4.1044   -2.0068 H         1 <0>         0.1394
     40 H17        -4.2998   -6.6356   -1.8443 H         1 <0>         0.1237
     41 H18        -2.8092   -6.0508   -2.6179 H         1 <0>         0.1039
     42 H19        -2.9668   -8.7386   -1.5234 H         1 <0>         0.1477
     43 H20        -0.6218   -6.3337    2.0757 H         1 <0>         0.1451
     44 H21        -0.2787   -4.5460    1.8183 H         1 <0>         0.1134
     45 H22         0.1183   -4.3085    0.0977 H         1 <0>         0.1003
     46 H23         0.9267   -2.3127    2.1989 H         1 <0>         0.3927
     47 H24         0.9014   -8.8306    3.7966 H         1 <0>         0.1113
     48 H25         1.0385   -7.4570    2.6728 H         1 <0>         0.0581
     49 H26        -0.3963   -7.6151    3.7143 H         1 <0>         0.0586
     50 H27        -2.1766  -11.9835   -0.9138 H         1 <0>         0.1114
     51 H28        -3.3916  -10.6834   -0.8747 H         1 <0>         0.0607
     52 H29        -1.9558  -10.5287   -1.9153 H         1 <0>         0.0604
     53 H30        -1.7092   -4.2062   -1.4771 H         1 <0>         0.4239
@<TRIPOS>BOND
     1    1    2 1
     2    1   27 1
     3    1   28 1
     4    1   29 1
     5    2    3 1
     6    2    4 1
     7    2   30 1
     8    3   31 1
     9    3   32 1
    10    3   33 1
    11    4    5 1
    12    4   34 1
    13    4   35 1
    14    5    6 1
    15    5   20 1
    16    5    7 1
    17    7    8 1
    18    7   36 1
    19    7   37 1
    20    8   17 1
    21    8    9 1
    22    8   53 1
    23    9   10 1
    24    9   38 1
    25    9   39 1
    26   10   11 1
    27   10   40 1
    28   10   41 1
    29   11   16 ar
    30   11   12 ar
    31   12   13 ar
    32   12   42 1
    33   13   14 ar
    34   13   25 1
    35   14   15 ar
    36   14   23 1
    37   15   16 ar
    38   15   43 1
    39   16   17 1
    40   17   18 1
    41   17   19 1
    42   19   20 1
    43   19   44 1
    44   19   45 1
    45   20   21 1
    46   20   22 1
    47   22   46 1
    48   23   24 1
    49   24   47 1
    50   24   48 1
    51   24   49 1
    52   25   26 1
    53   26   50 1
    54   26   51 1
    55   26   52 1
@<TRIPOS>MOLECULE
ZINC40151459
   64    67     0     0     0
SMALL
USER_CHARGES

@<TRIPOS>ATOM
      1 C1         -0.4725   -3.5779   -2.7237 C.ar      1 <0>        -0.1137
      2 C2         -0.2870   -2.6766   -1.6921 C.ar      1 <0>        -0.1122
      3 C3          0.9517   -2.5609   -1.0897 C.ar      1 <0>        -0.1130
      4 C4          2.0050   -3.3468   -1.5186 C.ar      1 <0>        -0.0916
      5 C5          1.8193   -4.2487   -2.5495 C.ar      1 <0>        -0.1195
      6 C6          0.5809   -4.3634   -3.1529 C.ar      1 <0>        -0.1134
      7 C7          3.3557   -3.2199   -0.8625 C.3       1 <0>        -0.1011
      8 C8          3.4441   -4.1927    0.3152 C.3       1 <0>        -0.1364
      9 C9          4.8599   -4.1650    0.8944 C.3       1 <0>         0.0196
     10 H1          5.0761   -3.1757    1.2977 H         1 <0>         0.1367
     11 C10         4.9927   -5.2260    2.0071 C.3       1 <0>        -0.1276
     12 C11         5.6374   -6.4283    1.2685 C.3       1 <0>        -0.1310
     13 C12         6.5813   -5.7126    0.2702 C.3       1 <0>         0.0090
     14 H2          7.5116   -5.4305    0.7632 H         1 <0>         0.1840
     15 N1          5.8381   -4.5035   -0.1556 N.4       1 <0>        -0.3788
     16 C13         6.7721   -3.3847   -0.3402 C.3       1 <0>         0.0770
     17 H3          7.6078   -3.7078   -0.9610 H         1 <0>         0.1508
     18 C14         7.2961   -2.9276    1.0226 C.3       1 <0>         0.0550
     19 O1          7.8757   -4.0398    1.7076 O.3       1 <0>        -0.5668
     20 C15         6.0589   -2.2407   -1.0136 C.ar      1 <0>        -0.1495
     21 C16         5.9056   -1.0365   -0.3524 C.ar      1 <0>        -0.0963
     22 C17         5.2513    0.0128   -0.9701 C.ar      1 <0>        -0.1085
     23 C18         4.7507   -0.1418   -2.2493 C.ar      1 <0>        -0.0830
     24 C19         4.9047   -1.3458   -2.9109 C.ar      1 <0>        -0.1034
     25 C20         5.5628   -2.3938   -2.2948 C.ar      1 <0>        -0.0998
     26 C21         6.8688   -6.6151   -0.9314 C.3       1 <0>        -0.1360
     27 C22         7.8051   -5.8907   -1.9007 C.3       1 <0>        -0.0909
     28 C23         8.1186   -6.7939   -3.0657 C.ar      1 <0>        -0.0979
     29 C24         9.1447   -7.7152   -2.9694 C.ar      1 <0>        -0.1130
     30 C25         9.4322   -8.5437   -4.0379 C.ar      1 <0>        -0.1127
     31 C26         8.6935   -8.4511   -5.2027 C.ar      1 <0>        -0.1127
     32 C27         7.6669   -7.5303   -5.2987 C.ar      1 <0>        -0.1143
     33 C28         7.3765   -6.7048   -4.2285 C.ar      1 <0>        -0.1184
     34 H4         -1.4415   -3.6714   -3.1913 H         1 <0>         0.1262
     35 H5         -1.1099   -2.0625   -1.3570 H         1 <0>         0.1259
     36 H6          1.0968   -1.8562   -0.2842 H         1 <0>         0.1204
     37 H7          2.6424   -4.8622   -2.8851 H         1 <0>         0.1150
     38 H8          0.4359   -5.0678   -3.9586 H         1 <0>         0.1250
     39 H9          4.1352   -3.4551   -1.5872 H         1 <0>         0.0752
     40 H10         3.4903   -2.2000   -0.5022 H         1 <0>         0.0867
     41 H11         2.7308   -3.8973    1.0847 H         1 <0>         0.1109
     42 H12         3.2116   -5.2008   -0.0280 H         1 <0>         0.0881
     43 H13         5.6447   -4.8688    2.8043 H         1 <0>         0.0999
     44 H14         4.0130   -5.4960    2.4011 H         1 <0>         0.1081
     45 H15         6.2020   -7.0540    1.9597 H         1 <0>         0.1149
     46 H16         4.8831   -7.0131    0.7420 H         1 <0>         0.0921
     47 H17         8.0513   -2.1545    0.8809 H         1 <0>         0.0962
     48 H18         6.4721   -2.5267    1.6129 H         1 <0>         0.0780
     49 H19         8.1611   -3.8407    2.6099 H         1 <0>         0.4022
     50 H20         6.2968   -0.9157    0.6470 H         1 <0>         0.1326
     51 H21         5.1310    0.9534   -0.4532 H         1 <0>         0.1364
     52 H22         4.2388    0.6778   -2.7316 H         1 <0>         0.1353
     53 H23         4.5133   -1.4667   -3.9102 H         1 <0>         0.1354
     54 H24         5.6864   -3.3331   -2.8131 H         1 <0>         0.1244
     55 H25         7.3414   -7.5358   -0.5895 H         1 <0>         0.1144
     56 H26         5.9340   -6.8532   -1.4389 H         1 <0>         0.0836
     57 H27         7.3214   -4.9840   -2.2639 H         1 <0>         0.0626
     58 H28         8.7291   -5.6283   -1.3855 H         1 <0>         0.0880
     59 H29         9.7218   -7.7876   -2.0594 H         1 <0>         0.1231
     60 H30        10.2343   -9.2630   -3.9629 H         1 <0>         0.1271
     61 H31         8.9187   -9.0978   -6.0378 H         1 <0>         0.1268
     62 H32         7.0900   -7.4577   -6.2088 H         1 <0>         0.1256
     63 H33         6.5721   -5.9880   -4.3022 H         1 <0>         0.1166
     64 H34         5.3557   -4.6881   -1.0223 H         1 <0>         0.4126
@<TRIPOS>BOND
     1    1    6 ar
     2    1    2 ar
     3    1   34 1
     4    2    3 ar
     5    2   35 1
     6    3    4 ar
     7    3   36 1
     8    4    5 ar
     9    4    7 1
    10    5    6 ar
    11    5   37 1
    12    6   38 1
    13    7    8 1
    14    7   39 1
    15    7   40 1
    16    8    9 1
    17    8   41 1
    18    8   42 1
    19    9   10 1
    20    9   15 1
    21    9   11 1
    22   11   12 1
    23   11   43 1
    24   11   44 1
    25   12   13 1
    26   12   45 1
    27   12   46 1
    28   13   14 1
    29   13   15 1
    30   13   26 1
    31   15   16 1
    32   15   64 1
    33   16   17 1
    34   16   18 1
    35   16   20 1
    36   18   19 1
    37   18   47 1
    38   18   48 1
    39   19   49 1
    40   20   25 ar
    41   20   21 ar
    42   21   22 ar
    43   21   50 1
    44   22   23 ar
    45   22   51 1
    46   23   24 ar
    47   23   52 1
    48   24   25 ar
    49   24   53 1
    50   25   54 1
    51   26   27 1
    52   26   55 1
    53   26   56 1
    54   27   28 1
    55   27   57 1
    56   27   58 1
    57   28   33 ar
    58   28   29 ar
    59   29   30 ar
    60   29   59 1
    61   30   31 ar
    62   30   60 1
    63   31   32 ar
    64   31   61 1
    65   32   33 ar
    66   32   62 1
    67   33   63 1
@<TRIPOS>MOLECULE
ZINC05682794
   47    49     0     0     0
SMALL
USER_CHARGES
2,5-diphenethylpyrrolidine
@<TRIPOS>ATOM
      1 C1          2.0014   -1.3825   -3.5123 C.ar      1 <0>        -0.1115
      2 C2          2.7203   -1.1483   -2.3550 C.ar      1 <0>        -0.1133
      3 C3          2.0733   -0.7021   -1.2178 C.ar      1 <0>        -0.1132
      4 C4          0.7074   -0.4901   -1.2379 C.ar      1 <0>        -0.1023
      5 C5         -0.0122   -0.7293   -2.3936 C.ar      1 <0>        -0.1178
      6 C6          0.6356   -1.1700   -3.5325 C.ar      1 <0>        -0.1150
      7 C7          0.0021   -0.0041    0.0020 C.3       1 <0>        -0.0885
      8 C8         -0.0187    1.5258    0.0104 C.3       1 <0>        -0.1340
      9 C9         -0.7348    2.0192    1.2692 C.3       1 <0>         0.0296
     10 H1         -0.2622    1.6069    2.1608 H         1 <0>         0.1439
     11 C10        -0.7325    3.5621    1.3201 C.3       1 <0>        -0.1442
     12 C11        -2.1068    3.9459    1.9064 C.3       1 <0>        -0.1441
     13 C12        -2.8239    2.6025    2.1603 C.3       1 <0>         0.0296
     14 H2         -2.6805    2.2822    3.1923 H         1 <0>         0.1439
     15 C13        -4.3156    2.7256    1.8433 C.3       1 <0>        -0.1340
     16 C14        -5.0116    1.3959    2.1406 C.3       1 <0>        -0.0885
     17 C15        -6.4809    1.5171    1.8284 C.ar      1 <0>        -0.1022
     18 C16        -7.3643    1.9275    2.8092 C.ar      1 <0>        -0.1132
     19 C17        -8.7114    2.0433    2.5214 C.ar      1 <0>        -0.1133
     20 C18        -9.1765    1.7391    1.2557 C.ar      1 <0>        -0.1115
     21 C19        -8.2938    1.3232    0.2765 C.ar      1 <0>        -0.1150
     22 C20        -6.9459    1.2124    0.5628 C.ar      1 <0>        -0.1178
     23 H3          2.5068   -1.7311   -4.4007 H         1 <0>         0.1274
     24 H4          3.7873   -1.3142   -2.3392 H         1 <0>         0.1274
     25 H5          2.6349   -0.5194   -0.3136 H         1 <0>         0.1230
     26 H6         -1.0800   -0.5678   -2.4080 H         1 <0>         0.1183
     27 H7          0.0740   -1.3527   -4.4367 H         1 <0>         0.1263
     28 H8          0.5293   -0.3651    0.8851 H         1 <0>         0.0862
     29 H9         -1.0205   -0.3814    0.0098 H         1 <0>         0.0668
     30 H10         1.0039    1.9031    0.0027 H         1 <0>         0.1146
     31 H11        -0.5459    1.8868   -0.8726 H         1 <0>         0.0904
     32 H12         0.0683    3.9184    1.9681 H         1 <0>         0.1112
     33 H13        -0.6205    3.9739    0.3171 H         1 <0>         0.1008
     34 H14        -2.6693    4.5460    1.1911 H         1 <0>         0.1008
     35 H15        -1.9806    4.4905    2.8421 H         1 <0>         0.1112
     36 H16        -4.7543    3.5109    2.4589 H         1 <0>         0.1146
     37 H17        -4.4438    2.9752    0.7901 H         1 <0>         0.0904
     38 H18        -4.5729    0.6105    1.5251 H         1 <0>         0.0668
     39 H19        -4.8833    1.1462    3.1939 H         1 <0>         0.0862
     40 H20        -7.0016    2.1612    3.7992 H         1 <0>         0.1230
     41 H21        -9.4011    2.3679    3.2865 H         1 <0>         0.1274
     42 H22       -10.2294    1.8260    1.0319 H         1 <0>         0.1274
     43 H23        -8.6571    1.0852   -0.7123 H         1 <0>         0.1263
     44 H24        -6.2563    0.8875   -0.2022 H         1 <0>         0.1183
     45 N1         -2.1570    1.6746    1.2459 N.4       1 <0>        -0.5134
     46 H25        -2.2928    0.7069    1.5610 H         1 <0>         0.4314
     47 H26        -2.5324    1.7812    0.2962 H         1 <0>         0.4291
@<TRIPOS>BOND
     1    1    6 ar
     2    1    2 ar
     3    1   23 1
     4    2    3 ar
     5    2   24 1
     6    3    4 ar
     7    3   25 1
     8    4    5 ar
     9    4    7 1
    10    5    6 ar
    11    5   26 1
    12    6   27 1
    13    7    8 1
    14    7   28 1
    15    7   29 1
    16    8    9 1
    17    8   30 1
    18    8   31 1
    19    9   10 1
    20    9   11 1
    21    9   45 1
    22   11   12 1
    23   11   32 1
    24   11   33 1
    25   12   13 1
    26   12   34 1
    27   12   35 1
    28   13   14 1
    29   13   15 1
    30   13   45 1
    31   15   16 1
    32   15   36 1
    33   15   37 1
    34   16   17 1
    35   16   38 1
    36   16   39 1
    37   17   22 ar
    38   17   18 ar
    39   18   19 ar
    40   18   40 1
    41   19   20 ar
    42   19   41 1
    43   20   21 ar
    44   20   42 1
    45   21   22 ar
    46   21   43 1
    47   22   44 1
    48   45   46 1
    49   45   47 1
@<TRIPOS>MOLECULE
ZINC05682768
   47    49     0     0     0
SMALL
USER_CHARGES

@<TRIPOS>ATOM
      1 C1         -0.0167    1.3781    0.0096 C.ar      1 <0>        -0.1115
      2 C2          1.1709    2.0855    0.0021 C.ar      1 <0>        -0.1148
      3 C3          2.3773    1.4107   -0.0130 C.ar      1 <0>        -0.1181
      4 C4          2.3960    0.0285   -0.0201 C.ar      1 <0>        -0.1023
      5 C5          1.2084   -0.6789   -0.0117 C.ar      1 <0>        -0.1132
      6 C6          0.0021   -0.0041    0.0020 C.ar      1 <0>        -0.1132
      7 C7          3.7112   -0.7071   -0.0376 C.3       1 <0>        -0.0890
      8 C8          4.1714   -0.9633    1.3989 C.3       1 <0>        -0.1369
      9 C9          5.5066   -1.7102    1.3812 C.3       1 <0>         0.0273
     10 H1          5.4189   -2.6291    0.8015 H         1 <0>         0.1436
     11 C10         5.9671   -2.0259    2.8261 C.3       1 <0>        -0.1380
     12 C11         7.5012   -2.1660    2.6425 C.3       1 <0>        -0.1375
     13 C12         7.8202   -1.1090    1.5643 C.3       1 <0>         0.0268
     14 H2          8.1703   -0.1913    2.0368 H         1 <0>         0.1424
     15 N1          6.5707   -0.8490    0.8228 N.4       1 <0>        -0.5157
     16 C13         8.8906   -1.6445    0.6111 C.3       1 <0>        -0.1391
     17 C14         9.2632   -0.5579   -0.3995 C.3       1 <0>        -0.0890
     18 C15        10.3175   -1.0853   -1.3383 C.ar      1 <0>        -0.1023
     19 C16        11.6563   -0.9380   -1.0270 C.ar      1 <0>        -0.1129
     20 C17        12.6234   -1.4218   -1.8882 C.ar      1 <0>        -0.1131
     21 C18        12.2517   -2.0532   -3.0604 C.ar      1 <0>        -0.1113
     22 C19        10.9129   -2.2012   -3.3712 C.ar      1 <0>        -0.1147
     23 C20         9.9457   -1.7213   -2.5080 C.ar      1 <0>        -0.1183
     24 H3         -0.9591    1.9053    0.0259 H         1 <0>         0.1275
     25 H4          1.1563    3.1654    0.0076 H         1 <0>         0.1264
     26 H5          3.3051    1.9634   -0.0196 H         1 <0>         0.1184
     27 H6          1.2231   -1.7588   -0.0179 H         1 <0>         0.1230
     28 H7         -0.9258   -0.5567    0.0082 H         1 <0>         0.1275
     29 H8          3.5884   -1.6586   -0.5549 H         1 <0>         0.0864
     30 H9          4.4573   -0.1052   -0.5563 H         1 <0>         0.0663
     31 H10         4.2941   -0.0118    1.9163 H         1 <0>         0.0910
     32 H11         3.4252   -1.5652    1.9176 H         1 <0>         0.1151
     33 H12         5.7281   -1.2037    3.5006 H         1 <0>         0.1005
     34 H13         5.5294   -2.9592    3.1803 H         1 <0>         0.1179
     35 H14         8.0230   -1.9381    3.5719 H         1 <0>         0.1143
     36 H15         7.7576   -3.1652    2.2904 H         1 <0>         0.1018
     37 H16         6.7027   -1.0628   -0.1544 H         1 <0>         0.4260
     38 H17         9.7750   -1.9293    1.1811 H         1 <0>         0.1151
     39 H18         8.5033   -2.5153    0.0822 H         1 <0>         0.0907
     40 H19         8.3788   -0.2731   -0.9694 H         1 <0>         0.0655
     41 H20         9.6505    0.3129    0.1295 H         1 <0>         0.0874
     42 H21        11.9467   -0.4447   -0.1112 H         1 <0>         0.1231
     43 H22        13.6693   -1.3061   -1.6454 H         1 <0>         0.1276
     44 H23        13.0073   -2.4305   -3.7336 H         1 <0>         0.1276
     45 H24        10.6225   -2.6942   -4.2872 H         1 <0>         0.1265
     46 H25         8.8997   -1.8402   -2.7490 H         1 <0>         0.1183
     47 H26         6.3113    0.1208    0.9250 H         1 <0>         0.4268
@<TRIPOS>BOND
     1    1    6 ar
     2    1    2 ar
     3    1   24 1
     4    2    3 ar
     5    2   25 1
     6    3    4 ar
     7    3   26 1
     8    4    5 ar
     9    4    7 1
    10    5    6 ar
    11    5   27 1
    12    6   28 1
    13    7    8 1
    14    7   29 1
    15    7   30 1
    16    8    9 1
    17    8   31 1
    18    8   32 1
    19    9   10 1
    20    9   15 1
    21    9   11 1
    22   11   12 1
    23   11   33 1
    24   11   34 1
    25   12   13 1
    26   12   35 1
    27   12   36 1
    28   13   14 1
    29   13   15 1
    30   13   16 1
    31   15   37 1
    32   15   47 1
    33   16   17 1
    34   16   38 1
    35   16   39 1
    36   17   18 1
    37   17   40 1
    38   17   41 1
    39   18   23 ar
    40   18   19 ar
    41   19   20 ar
    42   19   42 1
    43   20   21 ar
    44   20   43 1
    45   21   22 ar
    46   21   44 1
    47   22   23 ar
    48   22   45 1
    49   23   46 1
@<TRIPOS>MOLECULE
ZINC00000751
   51    53     0     0     0
SMALL
USER_CHARGES
isobutyl-dimethoxy-BLAHone
@<TRIPOS>ATOM
      1 C1         -0.6493    1.9043    1.2751 C.3       1 <0>        -0.1547
      2 C2          0.0705    1.5270   -0.0212 C.3       1 <0>        -0.1057
      3 C3          0.2294    0.0069   -0.0924 C.3       1 <0>        -0.1492
      4 C4         -0.7492    2.0107   -1.2191 C.3       1 <0>        -0.1033
      5 C5         -0.7846    3.5403   -1.2286 C.3       1 <0>        -0.1502
      6 H1         -1.1077    3.8717   -0.3422 H         1 <0>         0.1183
      7 C6         -1.7207    4.0291   -2.3396 C.3       1 <0>         0.0058
      8 C7         -2.6690    6.0129   -3.3467 C.3       1 <0>         0.0013
      9 C8         -2.7810    7.5238   -3.1443 C.3       1 <0>        -0.1034
     10 C9         -1.4161    8.1557   -3.2456 C.ar      1 <0>        -0.0796
     11 C10        -1.3359    9.5225   -3.4674 C.ar      1 <0>        -0.1671
     12 C11        -0.1041   10.1445   -3.5639 C.ar      1 <0>         0.1352
     13 C12         1.0593    9.3906   -3.4380 C.ar      1 <0>         0.1203
     14 C13         0.9734    8.0280   -3.2185 C.ar      1 <0>        -0.1562
     15 C14        -0.2649    7.4078   -3.1223 C.ar      1 <0>        -0.1305
     16 C15        -0.3006    5.9214   -2.8843 C.3       1 <0>         0.1020
     17 H2         -0.0475    5.4132   -3.8147 H         1 <0>         0.1499
     18 C16         0.7345    5.5587   -1.8117 C.3       1 <0>        -0.1774
     19 C17         0.6023    4.0818   -1.5056 C.2       1 <0>         0.3428
     20 O1          1.5703    3.3601   -1.4826 O.2       1 <0>        -0.3868
     21 O2          2.2756    9.9917   -3.5309 O.3       1 <0>        -0.2951
     22 C18         3.4253    9.1546   -3.3915 C.3       1 <0>         0.0205
     23 O3         -0.0301   11.4851   -3.7803 O.3       1 <0>        -0.2951
     24 C19        -1.2661   12.1924   -3.8984 C.3       1 <0>         0.0206
     25 H3         -0.0654    1.5597    2.1285 H         1 <0>         0.0631
     26 H4         -0.7626    2.9873    1.3258 H         1 <0>         0.0472
     27 H5         -1.6329    1.4349    1.2945 H         1 <0>         0.0596
     28 H6          1.0540    1.9964   -0.0405 H         1 <0>         0.0879
     29 H7          0.6620   -0.2685   -1.0542 H         1 <0>         0.0578
     30 H8          0.8862   -0.3277    0.7106 H         1 <0>         0.0615
     31 H9         -0.7467   -0.4659    0.0158 H         1 <0>         0.0571
     32 H10        -0.2916    1.6521   -2.1411 H         1 <0>         0.0805
     33 H11        -1.7656    1.6242   -1.1437 H         1 <0>         0.0854
     34 H12        -1.4269    3.5778   -3.2873 H         1 <0>         0.1397
     35 H13        -2.7457    3.7437   -2.1031 H         1 <0>         0.1466
     36 H14        -2.3954    5.8018   -4.3805 H         1 <0>         0.1367
     37 H15        -3.6234    5.5391   -3.1171 H         1 <0>         0.1406
     38 H16        -3.4327    7.9446   -3.9099 H         1 <0>         0.1248
     39 H17        -3.2010    7.7272   -2.1592 H         1 <0>         0.1049
     40 H18        -2.2404   10.1046   -3.5649 H         1 <0>         0.1484
     41 H19         1.8757    7.4425   -3.1209 H         1 <0>         0.1458
     42 H20         0.5638    6.0988   -0.9876 H         1 <0>         0.1133
     43 H21         1.7378    5.7690   -2.1822 H         1 <0>         0.1363
     44 H22         4.3279    9.7583   -3.4860 H         1 <0>         0.1119
     45 H23         3.4094    8.6754   -2.4126 H         1 <0>         0.0588
     46 H24         3.4155    8.3914   -4.1698 H         1 <0>         0.0597
     47 H25        -1.0647   13.2500   -4.0686 H         1 <0>         0.1116
     48 H26        -1.8354   11.7914   -4.7370 H         1 <0>         0.0611
     49 H27        -1.8410   12.0753   -2.9798 H         1 <0>         0.0608
     50 N1         -1.6409    5.5052   -2.4207 N.4       1 <0>        -0.3940
     51 H28        -1.8077    5.8992   -1.4874 H         1 <0>         0.4305
@<TRIPOS>BOND
     1    1    2 1
     2    1   25 1
     3    1   26 1
     4    1   27 1
     5    2    3 1
     6    2    4 1
     7    2   28 1
     8    3   29 1
     9    3   30 1
    10    3   31 1
    11    4    5 1
    12    4   32 1
    13    4   33 1
    14    5    6 1
    15    5   19 1
    16    5    7 1
    17    7   34 1
    18    7   35 1
    19    7   50 1
    20    8    9 1
    21    8   36 1
    22    8   37 1
    23    8   50 1
    24    9   10 1
    25    9   38 1
    26    9   39 1
    27   10   15 ar
    28   10   11 ar
    29   11   12 ar
    30   11   40 1
    31   12   13 ar
    32   12   23 1
    33   13   14 ar
    34   13   21 1
    35   14   15 ar
    36   14   41 1
    37   15   16 1
    38   16   17 1
    39   16   18 1
    40   16   50 1
    41   18   19 1
    42   18   42 1
    43   18   43 1
    44   19   20 2
    45   21   22 1
    46   22   44 1
    47   22   45 1
    48   22   46 1
    49   23   24 1
    50   24   47 1
    51   24   48 1
    52   24   49 1
    53   50   51 1
