@<TRIPOS>MOLECULE
ZINC03960063
   71    73     0     0     0
SMALL
USER_CHARGES
1-[3,3-dimethyl-2-(2-methylaminopropanoylamino)butanoyl]-N-tetralin-1-yl-pyrrolidine-2-carboxamide
@<TRIPOS>ATOM
      1 C1          2.8439    1.6135   -8.9267 C.3       1 <0>        -0.1803
      2 C2          2.7698    0.0980   -9.1230 C.3       1 <0>         0.0073
      3 H1          3.6875   -0.3613   -8.7555 H         1 <0>         0.1664
      4 C3          1.5925   -0.4506   -8.3587 C.2       1 <0>         0.5052
      5 O1          0.7071   -1.0351   -8.9464 O.2       1 <0>        -0.5205
      6 N1          1.5236   -0.2917   -7.0221 N.am      1 <0>        -0.6822
      7 C4          0.3791   -0.8250   -6.2791 C.3       1 <0>         0.1422
      8 H2         -0.5211   -0.7392   -6.8877 H         1 <0>         0.1132
      9 C5          0.1996   -0.0427   -5.0036 C.2       1 <0>         0.5341
     10 O2          1.1702    0.3309   -4.3797 O.2       1 <0>        -0.5013
     11 N2         -1.0395    0.2417   -4.5562 N.am      1 <0>        -0.5971
     12 C6         -2.2964   -0.2251   -5.1594 C.3       1 <0>         0.0856
     13 C7         -3.4511    0.3261   -4.2966 C.3       1 <0>        -0.1297
     14 C8         -2.7648    0.6018   -2.9327 C.3       1 <0>        -0.1231
     15 C9         -1.3591    1.0731   -3.3815 C.3       1 <0>         0.1172
     16 H3         -1.3823    2.1277   -3.6560 H         1 <0>         0.0997
     17 C10        -0.3526    0.8397   -2.2844 C.2       1 <0>         0.5141
     18 O3          0.2881   -0.1897   -2.2581 O.2       1 <0>        -0.5051
     19 N3         -0.1645    1.7750   -1.3324 N.am      1 <0>        -0.7214
     20 C11         0.8139    1.5482   -0.2658 C.3       1 <0>         0.1921
     21 H4          0.8242    0.4894   -0.0068 H         1 <0>         0.0971
     22 C12         0.4163    2.3634    0.9630 C.3       1 <0>        -0.1262
     23 C13         1.5577    2.2875    1.9840 C.3       1 <0>        -0.1166
     24 C14         2.7428    3.0836    1.4411 C.3       1 <0>        -0.0855
     25 C15         3.0683    2.6553    0.0342 C.ar      1 <0>        -0.0663
     26 C16         2.1808    1.9541   -0.7513 C.ar      1 <0>        -0.1043
     27 C17         2.5406    1.5964   -2.0440 C.ar      1 <0>        -0.1106
     28 C18         3.7803    1.9352   -2.5460 C.ar      1 <0>        -0.1302
     29 C19         4.6727    2.6355   -1.7562 C.ar      1 <0>        -0.1167
     30 C20         4.3167    2.9929   -0.4719 C.ar      1 <0>        -0.1310
     31 C21         0.6297   -2.2966   -5.9439 C.3       1 <0>        -0.0669
     32 C22        -0.5222   -2.8281   -5.0886 C.3       1 <0>        -0.1554
     33 C23         0.7193   -3.1066   -7.2388 C.3       1 <0>        -0.1312
     34 C24         1.9425   -2.4268   -5.1690 C.3       1 <0>        -0.1477
     35 C25         3.9115   -0.2425  -11.2309 C.3       1 <0>        -0.0431
     36 H5          1.9262    2.0728   -9.2942 H         1 <0>         0.0906
     37 H6          2.9628    1.8372   -7.8665 H         1 <0>         0.1106
     38 H7          3.6954    2.0103   -9.4795 H         1 <0>         0.0984
     39 H8          2.2317    0.1758   -6.5521 H         1 <0>         0.4177
     40 H9         -2.3237   -1.3148   -5.1628 H         1 <0>         0.0839
     41 H10        -2.3832    0.1509   -6.1788 H         1 <0>         0.0746
     42 H11        -4.2404   -0.4178   -4.1879 H         1 <0>         0.0940
     43 H12        -3.8452    1.2484   -4.7235 H         1 <0>         0.0847
     44 H13        -2.6999   -0.3087   -2.3369 H         1 <0>         0.0870
     45 H14        -3.2843    1.3882   -2.3852 H         1 <0>         0.0976
     46 H15        -0.6770    2.5984   -1.3534 H         1 <0>         0.4004
     47 H16         0.2486    3.4016    0.6763 H         1 <0>         0.0727
     48 H17        -0.4938    1.9508    1.3985 H         1 <0>         0.0763
     49 H18         1.8503    1.2478    2.1310 H         1 <0>         0.0696
     50 H19         1.2318    2.7147    2.9323 H         1 <0>         0.0772
     51 H20         3.6110    2.9152    2.0782 H         1 <0>         0.0778
     52 H21         2.4943    4.1449    1.4454 H         1 <0>         0.0780
     53 H22         1.8440    1.0489   -2.6617 H         1 <0>         0.1628
     54 H23         4.0526    1.6541   -3.5526 H         1 <0>         0.1117
     55 H24         5.6450    2.9023   -2.1431 H         1 <0>         0.1174
     56 H25         5.0144    3.5400    0.1446 H         1 <0>         0.1199
     57 H26        -1.4442   -2.8110   -5.6697 H         1 <0>         0.0616
     58 H27        -0.3050   -3.8513   -4.7819 H         1 <0>         0.0700
     59 H28        -0.6381   -2.2008   -4.2048 H         1 <0>         0.0703
     60 H29         1.5400   -2.7279   -7.8481 H         1 <0>         0.0450
     61 H30         0.8978   -4.1550   -6.9999 H         1 <0>         0.0610
     62 H31        -0.2160   -3.0139   -7.7908 H         1 <0>         0.0649
     63 H32         1.8786   -1.8498   -4.2464 H         1 <0>         0.0782
     64 H33         2.1210   -3.4752   -4.9301 H         1 <0>         0.0610
     65 H34         2.7631   -2.0481   -5.7783 H         1 <0>         0.0480
     66 H35         3.7638   -0.4675  -12.2871 H         1 <0>         0.1318
     67 H36         4.4026    0.7254  -11.1308 H         1 <0>         0.1250
     68 H37         4.5342   -1.0144  -10.7786 H         1 <0>         0.1247
     69 N4          2.6001   -0.2051  -10.5566 N.4       1 <0>        -0.5065
     70 H38         2.0172    0.5209  -10.9896 H         1 <0>         0.4379
     71 H39         2.1411   -1.1180  -10.6578 H         1 <0>         0.4422
@<TRIPOS>BOND
     1    1    2 1
     2    1   36 1
     3    1   37 1
     4    1   38 1
     5    2    3 1
     6    2    4 1
     7    2   69 1
     8    4    5 2
     9    4    6 am
    10    6    7 1
    11    6   39 1
    12    7    8 1
    13    7    9 1
    14    7   31 1
    15    9   10 2
    16    9   11 am
    17   11   15 1
    18   11   12 1
    19   12   13 1
    20   12   40 1
    21   12   41 1
    22   13   14 1
    23   13   42 1
    24   13   43 1
    25   14   15 1
    26   14   44 1
    27   14   45 1
    28   15   16 1
    29   15   17 1
    30   17   18 2
    31   17   19 am
    32   19   20 1
    33   19   46 1
    34   20   21 1
    35   20   26 1
    36   20   22 1
    37   22   23 1
    38   22   47 1
    39   22   48 1
    40   23   24 1
    41   23   49 1
    42   23   50 1
    43   24   25 1
    44   24   51 1
    45   24   52 1
    46   25   30 ar
    47   25   26 ar
    48   26   27 ar
    49   27   28 ar
    50   27   53 1
    51   28   29 ar
    52   28   54 1
    53   29   30 ar
    54   29   55 1
    55   30   56 1
    56   31   32 1
    57   31   33 1
    58   31   34 1
    59   32   57 1
    60   32   58 1
    61   32   59 1
    62   33   60 1
    63   33   61 1
    64   33   62 1
    65   34   63 1
    66   34   64 1
    67   34   65 1
    68   35   66 1
    69   35   67 1
    70   35   68 1
    71   35   69 1
    72   69   70 1
    73   69   71 1
@<TRIPOS>MOLECULE
ZINC01531764
   46    46     0     0     0
SMALL
USER_CHARGES

@<TRIPOS>ATOM
      1 C1         -0.0187    1.5258    0.0104 C.3       1 <0>        -0.1535
      2 C2          0.0021   -0.0041    0.0020 C.3       1 <0>        -0.1263
      3 C3          0.7182   -0.4975   -1.2568 C.3       1 <0>        -0.1209
      4 C4          0.7390   -2.0273   -1.2652 C.3       1 <0>        -0.1213
      5 C5          1.4551   -2.5207   -2.5240 C.3       1 <0>        -0.1200
      6 C6          1.4758   -4.0506   -2.5324 C.3       1 <0>        -0.1208
      7 C7          2.1920   -4.5440   -3.7912 C.3       1 <0>        -0.1192
      8 C8          2.2127   -6.0738   -3.7996 C.3       1 <0>        -0.1204
      9 C9          2.9289   -6.5673   -5.0584 C.3       1 <0>        -0.1164
     10 C10         2.9496   -8.0971   -5.0668 C.3       1 <0>        -0.1118
     11 C11         3.6658   -8.5905   -6.3257 C.3       1 <0>        -0.0551
     12 C12         3.6862  -10.0973   -6.3339 C.2       1 <0>        -0.2319
     13 C13         2.7347  -10.7815   -7.0037 C.2       1 <0>         0.1093
     14 C14         2.7551  -12.2675   -7.0123 C.2       1 <0>         0.3874
     15 O1          1.8989  -12.8833   -7.6155 O.2       1 <0>        -0.5265
     16 C15         3.8086  -12.9901   -6.2934 C.2       1 <0>        -0.4724
     17 C16         4.7598  -12.3060   -5.6233 C.2       1 <0>         0.2555
     18 C17         4.7428  -10.8200   -5.6197 C.2       1 <0>         0.3951
     19 O2          5.6019  -10.2040   -5.0207 O.2       1 <0>        -0.4361
     20 O3          5.7314  -12.9729   -4.9592 O.3       1 <0>        -0.6381
     21 O4          1.7623  -10.1146   -7.6667 O.3       1 <0>        -0.4602
     22 H1          1.0039    1.9031    0.0027 H         1 <0>         0.0530
     23 H2         -0.5459    1.8868   -0.8726 H         1 <0>         0.0528
     24 H3         -0.5289    1.8773    0.9072 H         1 <0>         0.0522
     25 H4          0.5293   -0.3651    0.8851 H         1 <0>         0.0602
     26 H5         -1.0205   -0.3814    0.0098 H         1 <0>         0.0600
     27 H6          0.1910   -0.1364   -2.1398 H         1 <0>         0.0601
     28 H7          1.7408   -0.1202   -1.2645 H         1 <0>         0.0603
     29 H8          1.2661   -2.3884   -0.3821 H         1 <0>         0.0605
     30 H9         -0.2836   -2.4046   -1.2575 H         1 <0>         0.0602
     31 H10         0.9279   -2.1597   -3.4071 H         1 <0>         0.0597
     32 H11         2.4777   -2.1435   -2.5317 H         1 <0>         0.0601
     33 H12         2.0030   -4.4117   -1.6494 H         1 <0>         0.0605
     34 H13         0.4533   -4.4279   -2.5247 H         1 <0>         0.0599
     35 H14         1.6648   -4.1829   -4.6743 H         1 <0>         0.0592
     36 H15         3.2146   -4.1667   -3.7990 H         1 <0>         0.0600
     37 H16         2.7399   -6.4349   -2.9166 H         1 <0>         0.0610
     38 H17         1.1901   -6.4511   -3.7919 H         1 <0>         0.0597
     39 H18         2.4017   -6.2062   -5.9415 H         1 <0>         0.0591
     40 H19         3.9515   -6.1900   -5.0662 H         1 <0>         0.0604
     41 H20         3.4768   -8.4582   -4.1838 H         1 <0>         0.0624
     42 H21         1.9270   -8.4744   -5.0591 H         1 <0>         0.0596
     43 H22         3.1386   -8.2294   -7.2087 H         1 <0>         0.0715
     44 H23         4.6884   -8.2132   -6.3334 H         1 <0>         0.0697
     45 H24         3.8235  -14.0700   -6.2997 H         1 <0>         0.1201
     46 H25         1.1272  -10.6892   -8.1156 H         1 <0>         0.4016
@<TRIPOS>BOND
     1    1    2 1
     2    1   22 1
     3    1   23 1
     4    1   24 1
     5    2    3 1
     6    2   25 1
     7    2   26 1
     8    3    4 1
     9    3   27 1
    10    3   28 1
    11    4    5 1
    12    4   29 1
    13    4   30 1
    14    5    6 1
    15    5   31 1
    16    5   32 1
    17    6    7 1
    18    6   33 1
    19    6   34 1
    20    7    8 1
    21    7   35 1
    22    7   36 1
    23    8    9 1
    24    8   37 1
    25    8   38 1
    26    9   10 1
    27    9   39 1
    28    9   40 1
    29   10   11 1
    30   10   41 1
    31   10   42 1
    32   11   12 1
    33   11   43 1
    34   11   44 1
    35   12   18 1
    36   12   13 2
    37   13   14 1
    38   13   21 1
    39   14   15 2
    40   14   16 1
    41   16   17 2
    42   16   45 1
    43   17   18 1
    44   17   20 1
    45   18   19 2
    46   21   46 1
@<TRIPOS>MOLECULE
ZINC01531764
   47    47     0     0     0
SMALL
USER_CHARGES
2,5-dihydroxy-3-undecyl-1,4-benzoquinone
@<TRIPOS>ATOM
      1 C1        -11.5658   -7.7241    7.2520 C.3       1 <0>        -0.1544
      2 C2        -10.2513   -6.9411    7.2441 C.3       1 <0>        -0.1262
      3 C3         -9.7625   -6.7795    5.8034 C.3       1 <0>        -0.1213
      4 C4         -8.4481   -5.9966    5.7955 C.3       1 <0>        -0.1213
      5 C5         -7.9593   -5.8350    4.3547 C.3       1 <0>        -0.1207
      6 C6         -6.6448   -5.0520    4.3469 C.3       1 <0>        -0.1208
      7 C7         -6.1561   -4.8904    2.9061 C.3       1 <0>        -0.1206
      8 C8         -4.8416   -4.1075    2.8982 C.3       1 <0>        -0.1208
      9 C9         -4.3528   -3.9459    1.4574 C.3       1 <0>        -0.1215
     10 C10        -3.0383   -3.1629    1.4496 C.3       1 <0>        -0.1210
     11 C11        -2.5496   -3.0013    0.0088 C.3       1 <0>        -0.0602
     12 C12        -1.2548   -2.2302    0.0011 C.2       1 <0>        -0.3564
     13 C13        -0.0769   -2.8892   -0.0141 C.2       1 <0>         0.3060
     14 C14         1.1999   -2.1287   -0.0221 C.2       1 <0>         0.3729
     15 O1          2.2602   -2.7218   -0.0357 O.2       1 <0>        -0.3775
     16 C15         1.1800   -0.6630   -0.0192 C.2       1 <0>        -0.2099
     17 C16         0.0021   -0.0041    0.0020 C.2       1 <0>         0.1472
     18 C17        -1.2747   -0.7645    0.0101 C.2       1 <0>         0.2577
     19 O2         -2.3350   -0.1714    0.0242 O.3       1 <0>        -0.3704
     20 O3         -0.0163    1.3485    0.0095 O.3       1 <0>        -0.4363
     21 O4         -0.0585   -4.2417   -0.0224 O.2       1 <0>        -0.4834
     22 H1        -11.9140   -7.8392    8.2784 H         1 <0>         0.0535
     23 H2        -12.3143   -7.1832    6.6729 H         1 <0>         0.0532
     24 H3        -11.4056   -8.7075    6.8102 H         1 <0>         0.0535
     25 H4         -9.5028   -7.4820    7.8232 H         1 <0>         0.0604
     26 H5        -10.4115   -5.9577    7.6860 H         1 <0>         0.0601
     27 H6        -10.5110   -6.2386    5.2243 H         1 <0>         0.0604
     28 H7         -9.6023   -7.7630    5.3616 H         1 <0>         0.0608
     29 H8         -7.6996   -6.5375    6.3746 H         1 <0>         0.0607
     30 H9         -8.6083   -5.0131    6.2373 H         1 <0>         0.0602
     31 H10        -8.7078   -5.2941    3.7757 H         1 <0>         0.0602
     32 H11        -7.7991   -6.8184    3.9129 H         1 <0>         0.0609
     33 H12        -5.8963   -5.5929    4.9259 H         1 <0>         0.0609
     34 H13        -6.8050   -4.0686    4.7887 H         1 <0>         0.0600
     35 H14        -6.9046   -4.3495    2.3270 H         1 <0>         0.0604
     36 H15        -5.9958   -5.8739    2.4643 H         1 <0>         0.0617
     37 H16        -4.0931   -4.6484    3.4773 H         1 <0>         0.0624
     38 H17        -5.0018   -3.1240    3.3400 H         1 <0>         0.0600
     39 H18        -5.1013   -3.4050    0.8784 H         1 <0>         0.0616
     40 H19        -4.1926   -4.9293    1.0156 H         1 <0>         0.0668
     41 H20        -2.2898   -3.7038    2.0287 H         1 <0>         0.0725
     42 H21        -3.1986   -2.1795    1.8914 H         1 <0>         0.0555
     43 H22        -3.2981   -2.4605   -0.5703 H         1 <0>         0.0632
     44 H23        -2.3893   -3.9848   -0.4330 H         1 <0>         0.1010
     45 H24         2.1078   -0.1103   -0.0299 H         1 <0>         0.1707
     46 H25        -0.9635    1.6689    0.0254 H         1 <0>         0.4133
     47 H26        -3.0861   -0.8315    0.0277 H         1 <0>         0.4449
@<TRIPOS>BOND
     1    1    2 1
     2    1   22 1
     3    1   23 1
     4    1   24 1
     5    2    3 1
     6    2   25 1
     7    2   26 1
     8    3    4 1
     9    3   27 1
    10    3   28 1
    11    4    5 1
    12    4   29 1
    13    4   30 1
    14    5    6 1
    15    5   31 1
    16    5   32 1
    17    6    7 1
    18    6   33 1
    19    6   34 1
    20    7    8 1
    21    7   35 1
    22    7   36 1
    23    8    9 1
    24    8   37 1
    25    8   38 1
    26    9   10 1
    27    9   39 1
    28    9   40 1
    29   10   11 1
    30   10   41 1
    31   10   42 1
    32   11   43 1
    33   11   44 1
    34   11   12 1
    35   12   13 1
    36   12   18 2
    37   13   14 1
    38   13   21 2
    39   14   15 2
    40   14   16 1
    41   16   17 2
    42   16   45 1
    43   17   18 1
    44   17   20 1
    45   18   19 1
    46   19   47 1
    47   20   46 1
@<TRIPOS>MOLECULE
ZINC01531764
   45    45     0     0     0
SMALL
USER_CHARGES

@<TRIPOS>ATOM
      1 C1         -0.0187    1.5258    0.0104 C.3       1 <0>        -0.1525
      2 C2          0.0021   -0.0041    0.0020 C.3       1 <0>        -0.1263
      3 C3          0.7182   -0.4975   -1.2568 C.3       1 <0>        -0.1206
      4 C4          0.7390   -2.0273   -1.2652 C.3       1 <0>        -0.1211
      5 C5          1.4551   -2.5207   -2.5240 C.3       1 <0>        -0.1195
      6 C6          1.4758   -4.0506   -2.5324 C.3       1 <0>        -0.1205
      7 C7          2.1920   -4.5440   -3.7912 C.3       1 <0>        -0.1182
      8 C8          2.2127   -6.0738   -3.7996 C.3       1 <0>        -0.1190
      9 C9          2.9289   -6.5673   -5.0584 C.3       1 <0>        -0.1157
     10 C10         2.9496   -8.0971   -5.0668 C.3       1 <0>        -0.1062
     11 C11         3.6658   -8.5905   -6.3257 C.3       1 <0>         0.0110
     12 C12         3.6862  -10.0973   -6.3339 C.2       1 <0>        -0.5482
     13 C13         2.7076  -10.8010   -7.0227 C.2       1 <0>         0.3510
     14 O1          1.8287  -10.1979   -7.6228 O.3       1 <0>        -0.5881
     15 C14         2.7282  -12.2968   -7.0313 C.2       1 <0>         0.3436
     16 O2          1.8661  -12.9168   -7.6385 O.3       1 <0>        -0.5986
     17 C15         3.7258  -12.9811   -6.3506 C.2       1 <0>        -0.5788
     18 C16         4.7041  -12.2775   -5.6615 C.2       1 <0>         0.3433
     19 O3          5.5831  -12.8806   -5.0613 O.2       1 <0>        -0.5987
     20 C17         4.6868  -10.7817   -5.6576 C.2       1 <0>         0.3513
     21 O4          5.5521  -10.1615   -5.0549 O.2       1 <0>        -0.5870
     22 H1          1.0039    1.9031    0.0027 H         1 <0>         0.0525
     23 H2         -0.5459    1.8868   -0.8726 H         1 <0>         0.0525
     24 H3         -0.5289    1.8773    0.9072 H         1 <0>         0.0506
     25 H4          0.5293   -0.3651    0.8851 H         1 <0>         0.0599
     26 H5         -1.0205   -0.3814    0.0098 H         1 <0>         0.0599
     27 H6          0.1910   -0.1364   -2.1398 H         1 <0>         0.0598
     28 H7          1.7408   -0.1202   -1.2645 H         1 <0>         0.0598
     29 H8          1.2661   -2.3884   -0.3821 H         1 <0>         0.0600
     30 H9         -0.2836   -2.4046   -1.2575 H         1 <0>         0.0599
     31 H10         0.9279   -2.1597   -3.4071 H         1 <0>         0.0590
     32 H11         2.4777   -2.1435   -2.5317 H         1 <0>         0.0590
     33 H12         2.0030   -4.4117   -1.6494 H         1 <0>         0.0593
     34 H13         0.4533   -4.4279   -2.5247 H         1 <0>         0.0592
     35 H14         1.6648   -4.1829   -4.6743 H         1 <0>         0.0572
     36 H15         3.2146   -4.1667   -3.7990 H         1 <0>         0.0573
     37 H16         2.7399   -6.4349   -2.9166 H         1 <0>         0.0573
     38 H17         1.1901   -6.4511   -3.7919 H         1 <0>         0.0569
     39 H18         2.4017   -6.2062   -5.9415 H         1 <0>         0.0509
     40 H19         3.9515   -6.1900   -5.0662 H         1 <0>         0.0513
     41 H20         3.4768   -8.4582   -4.1838 H         1 <0>         0.0498
     42 H21         1.9270   -8.4744   -5.0591 H         1 <0>         0.0464
     43 H22         3.1386   -8.2294   -7.2087 H         1 <0>         0.0330
     44 H23         4.6884   -8.2132   -6.3334 H         1 <0>         0.0277
     45 H24         3.7407  -14.0610   -6.3568 H         1 <0>         0.0797
@<TRIPOS>BOND
     1    1    2 1
     2    1   22 1
     3    1   23 1
     4    1   24 1
     5    2    3 1
     6    2   25 1
     7    2   26 1
     8    3    4 1
     9    3   27 1
    10    3   28 1
    11    4    5 1
    12    4   29 1
    13    4   30 1
    14    5    6 1
    15    5   31 1
    16    5   32 1
    17    6    7 1
    18    6   33 1
    19    6   34 1
    20    7    8 1
    21    7   35 1
    22    7   36 1
    23    8    9 1
    24    8   37 1
    25    8   38 1
    26    9   10 1
    27    9   39 1
    28    9   40 1
    29   10   11 1
    30   10   41 1
    31   10   42 1
    32   11   43 1
    33   11   44 1
    34   11   12 1
    35   12   20 1
    36   12   13 2
    37   13   14 1
    38   13   15 1
    39   15   16 1
    40   15   17 2
    41   17   18 1
    42   17   45 1
    43   18   19 2
    44   18   20 1
    45   20   21 2
@<TRIPOS>MOLECULE
ZINC40896204
   74    77     0     0     0
SMALL
USER_CHARGES

@<TRIPOS>ATOM
      1 C1         -0.3437    2.4177    1.9853 C.3       1 <0>        -0.1825
      2 C2         -0.4684    1.0390    1.3336 C.3       1 <0>         0.0048
      3 H1         -0.2059    1.1110    0.2781 H         1 <0>         0.1670
      4 C3          0.4642    0.0735    2.0185 C.2       1 <0>         0.5053
      5 O1          0.0208   -0.9166    2.5608 O.2       1 <0>        -0.5199
      6 N1          1.7910    0.3102    2.0283 N.am      1 <0>        -0.6831
      7 C4          2.6976   -0.6285    2.6941 C.3       1 <0>         0.1387
      8 H2          2.2088   -1.0420    3.5762 H         1 <0>         0.1161
      9 C5          3.9535    0.0942    3.1080 C.2       1 <0>         0.5285
     10 O2          4.3946    0.9880    2.4170 O.2       1 <0>        -0.5169
     11 N2          4.5866   -0.2527    4.2461 N.am      1 <0>        -0.6021
     12 C6          4.2233   -1.3822    5.1202 C.3       1 <0>         0.0874
     13 C7          4.7455   -0.9807    6.5211 C.3       1 <0>        -0.1296
     14 C8          6.0678   -0.2521    6.1756 C.3       1 <0>        -0.0990
     15 H3          6.3847    0.4482    6.9484 H         1 <0>         0.1094
     16 C9          5.7564    0.4289    4.8163 C.3       1 <0>         0.1315
     17 H4          5.5600    1.4925    4.9509 H         1 <0>         0.0913
     18 C10         6.9777    0.1854    3.9137 C.3       1 <0>         0.1419
     19 H5          6.6837   -0.3890    3.0353 H         1 <0>         0.0972
     20 C11         7.9961   -0.6149    4.7507 C.3       1 <0>        -0.1372
     21 C12         7.1411   -1.3155    5.8444 C.3       1 <0>        -0.1195
     22 N3          7.5606    1.4652    3.5032 N.am      1 <0>        -0.7154
     23 C13         8.2771    1.5450    2.3645 C.2       1 <0>         0.5707
     24 O3          8.4397    0.5547    1.6778 O.2       1 <0>        -0.5286
     25 C14         8.8638    2.8332    1.9513 C.ar      1 <0>        -0.1279
     26 C15         8.5802    3.9923    2.6586 C.ar      1 <0>        -0.0712
     27 C16         9.1298    5.2087    2.2744 C.ar      1 <0>        -0.1337
     28 C17         9.9596    5.2992    1.1970 C.ar      1 <0>        -0.0698
     29 C18        10.2746    4.1505    0.4508 C.ar      1 <0>        -0.0610
     30 C19         9.7288    2.9002    0.8304 C.ar      1 <0>        -0.0124
     31 C20        10.0476    1.7548    0.0886 C.ar      1 <0>        -0.1179
     32 C21        10.8823    1.8558   -0.9836 C.ar      1 <0>        -0.1128
     33 C22        11.4253    3.0837   -1.3551 C.ar      1 <0>        -0.1117
     34 C23        11.1272    4.2187   -0.6649 C.ar      1 <0>        -0.1098
     35 C24         3.0554   -1.7620    1.7308 C.3       1 <0>        -0.0697
     36 C25         3.6183   -1.1725    0.4360 C.3       1 <0>        -0.1467
     37 C26         4.1051   -2.6683    2.3772 C.3       1 <0>        -0.1558
     38 C27         1.8006   -2.5789    1.4160 C.3       1 <0>        -0.1311
     39 N4         -1.8509    0.5596    1.4628 N.4       1 <0>        -0.4939
     40 C28        -2.7465    1.4349    0.6949 C.3       1 <0>        -0.0504
     41 H6          0.6821    2.7734    1.8895 H         1 <0>         0.1110
     42 H7         -1.0183    3.1161    1.4900 H         1 <0>         0.1000
     43 H8         -0.6062    2.3457    3.0408 H         1 <0>         0.0904
     44 H9          2.1456    1.1020    1.5946 H         1 <0>         0.4181
     45 H10         3.1413   -1.5129    5.1416 H         1 <0>         0.0803
     46 H11         4.7103   -2.2965    4.7812 H         1 <0>         0.0845
     47 H12         4.0480   -0.3066    7.0181 H         1 <0>         0.0789
     48 H13         4.9355   -1.8625    7.1331 H         1 <0>         0.0946
     49 H14         8.5083   -1.3489    4.1286 H         1 <0>         0.0783
     50 H15         8.7149    0.0562    5.2208 H         1 <0>         0.0758
     51 H16         7.7361   -1.5508    6.7269 H         1 <0>         0.0817
     52 H17         6.6797   -2.2155    5.4379 H         1 <0>         0.0733
     53 H18         7.4310    2.2551    4.0510 H         1 <0>         0.3985
     54 H19         7.9253    3.9485    3.5163 H         1 <0>         0.1237
     55 H20         8.8952    6.0988    2.8393 H         1 <0>         0.1310
     56 H21        10.3755    6.2554    0.9158 H         1 <0>         0.1332
     57 H22         9.6340    0.7964    0.3657 H         1 <0>         0.1672
     58 H23        11.1267    0.9714   -1.5533 H         1 <0>         0.1250
     59 H24        12.0846    3.1376   -2.2088 H         1 <0>         0.1256
     60 H25        11.5546    5.1642   -0.9644 H         1 <0>         0.1302
     61 H26         4.5122   -0.5905    0.6603 H         1 <0>         0.0688
     62 H27         3.8732   -1.9801   -0.2502 H         1 <0>         0.0649
     63 H28         2.8705   -0.5269   -0.0245 H         1 <0>         0.0508
     64 H29         3.6772   -3.1504    3.2562 H         1 <0>         0.0650
     65 H30         4.4184   -3.4289    1.6620 H         1 <0>         0.0725
     66 H31         4.9675   -2.0713    2.6738 H         1 <0>         0.0624
     67 H32         1.0528   -1.9333    0.9555 H         1 <0>         0.0471
     68 H33         2.0556   -3.3865    0.7297 H         1 <0>         0.0618
     69 H34         1.3996   -2.9990    2.3384 H         1 <0>         0.0651
     70 H35        -1.9148   -0.3824    1.1070 H         1 <0>         0.4376
     71 H36        -2.6775    2.4525    1.0792 H         1 <0>         0.1274
     72 H37        -2.4543    1.4225   -0.3552 H         1 <0>         0.1268
     73 H38        -3.7724    1.0791    0.7907 H         1 <0>         0.1338
     74 H39        -2.1215    0.5711    2.4348 H         1 <0>         0.4347
@<TRIPOS>BOND
     1    1    2 1
     2    1   41 1
     3    1   42 1
     4    1   43 1
     5    2    3 1
     6    2    4 1
     7    2   39 1
     8    4    5 2
     9    4    6 am
    10    6    7 1
    11    6   44 1
    12    7    8 1
    13    7    9 1
    14    7   35 1
    15    9   10 2
    16    9   11 am
    17   11   16 1
    18   11   12 1
    19   12   13 1
    20   12   45 1
    21   12   46 1
    22   13   14 1
    23   13   47 1
    24   13   48 1
    25   14   15 1
    26   14   21 1
    27   14   16 1
    28   16   17 1
    29   16   18 1
    30   18   19 1
    31   18   20 1
    32   18   22 1
    33   20   21 1
    34   20   49 1
    35   20   50 1
    36   21   51 1
    37   21   52 1
    38   22   23 am
    39   22   53 1
    40   23   24 2
    41   23   25 1
    42   25   30 ar
    43   25   26 ar
    44   26   27 ar
    45   26   54 1
    46   27   28 ar
    47   27   55 1
    48   28   29 ar
    49   28   56 1
    50   29   34 ar
    51   29   30 ar
    52   30   31 ar
    53   31   32 ar
    54   31   57 1
    55   32   33 ar
    56   32   58 1
    57   33   34 ar
    58   33   59 1
    59   34   60 1
    60   35   36 1
    61   35   37 1
    62   35   38 1
    63   36   61 1
    64   36   62 1
    65   36   63 1
    66   37   64 1
    67   37   65 1
    68   37   66 1
    69   38   67 1
    70   38   68 1
    71   38   69 1
    72   39   40 1
    73   39   70 1
    74   39   74 1
    75   40   71 1
    76   40   72 1
    77   40   73 1
