@<TRIPOS>MOLECULE
ZINC00000566
   34    35     0     0     0
SMALL
USER_CHARGES

@<TRIPOS>ATOM
      1 C1         -0.1700    1.4911    0.0169 C.3       1 <0>        -0.1201
      2 C2         -0.0698   -0.0126    0.0070 C.2       1 <0>        -0.1238
      3 C3          0.1206   -0.6637    1.1276 C.2       1 <0>        -0.1614
      4 C4          0.1232    0.0784    2.4392 C.3       1 <0>        -0.0408
      5 C5         -0.8640   -0.5621    3.3807 C.ar      1 <0>        -0.1295
      6 C6         -2.1820   -0.1352    3.4016 C.ar      1 <0>         0.1894
      7 C7         -3.1021   -0.7206    4.2687 C.ar      1 <0>        -0.2250
      8 C8         -2.7176   -1.7242    5.1102 C.ar      1 <0>        -0.0154
      9 C9         -1.3906   -2.1682    5.1020 C.ar      1 <0>        -0.1982
     10 C10        -0.4577   -1.5843    4.2245 C.ar      1 <0>         0.1878
     11 O1          0.8206   -2.0190    4.2161 O.3       1 <0>        -0.2655
     12 C11         1.2298   -3.0075    5.0267 C.2       1 <0>         0.5087
     13 O2          2.3929   -3.3663    4.9845 O.2       1 <0>        -0.4617
     14 C12         0.3478   -3.6407    5.9263 C.2       1 <0>        -0.2581
     15 C13        -0.9494   -3.2427    5.9939 C.2       1 <0>         0.0111
     16 O3         -2.5799    0.8619    2.5709 O.3       1 <0>        -0.2993
     17 C14        -3.9517    1.2562    2.6411 C.3       1 <0>         0.0224
     18 C15        -0.1888   -0.7671   -1.2921 C.3       1 <0>        -0.1179
     19 H1          0.7147    1.9110    0.4954 H         1 <0>         0.0645
     20 H2         -0.2375    1.8575   -1.0075 H         1 <0>         0.0586
     21 H3         -1.0597    1.7923    0.5698 H         1 <0>         0.0725
     22 H4          0.2758   -1.7324    1.1115 H         1 <0>         0.1060
     23 H5          1.1206    0.0392    2.8769 H         1 <0>         0.0848
     24 H6         -0.1585    1.1176    2.2692 H         1 <0>         0.0902
     25 H7         -4.1263   -0.3778    4.2754 H         1 <0>         0.1418
     26 H8         -3.4352   -2.1740    5.7804 H         1 <0>         0.1433
     27 H9          0.7049   -4.4334    6.5670 H         1 <0>         0.1640
     28 H10        -1.6397   -3.7152    6.6770 H         1 <0>         0.1536
     29 H11        -4.1781    1.6062    3.6482 H         1 <0>         0.0610
     30 H12        -4.1359    2.0592    1.9273 H         1 <0>         0.1064
     31 H13        -4.5874    0.4039    2.4011 H         1 <0>         0.0609
     32 H14        -0.3431   -0.0621   -2.1090 H         1 <0>         0.0615
     33 H15         0.7259   -1.3331   -1.4686 H         1 <0>         0.0646
     34 H16        -1.0351   -1.4519   -1.2384 H         1 <0>         0.0637
@<TRIPOS>BOND
     1    1    2 1
     2    1   19 1
     3    1   20 1
     4    1   21 1
     5    2    3 2
     6    2   18 1
     7    3    4 1
     8    3   22 1
     9    4    5 1
    10    4   23 1
    11    4   24 1
    12    5   10 ar
    13    5    6 ar
    14    6    7 ar
    15    6   16 1
    16    7    8 ar
    17    7   25 1
    18    8    9 ar
    19    8   26 1
    20    9   15 1
    21    9   10 ar
    22   10   11 1
    23   11   12 1
    24   12   13 2
    25   12   14 1
    26   14   15 2
    27   14   27 1
    28   15   28 1
    29   16   17 1
    30   17   29 1
    31   17   30 1
    32   17   31 1
    33   18   32 1
    34   18   33 1
    35   18   34 1
