@<TRIPOS>MOLECULE
ZINC13798353
   67    69     0     0     0
SMALL
USER_CHARGES
(2S)-1-[(2S)-1-[(2S,3R)-3-amino-2-hydroxy-4-phenyl-butanoyl]pyrrolidine-2-carbonyl]-N-[(1S)-2-amino-1-methyl-2-oxo-ethyl]pyrrolidine-2-carboxamide
@<TRIPOS>ATOM
      1 C1          1.8460    3.5107   -1.1647 C.3       1 <0>        -0.1571
      2 C2          1.4795    2.2507   -0.3779 C.3       1 <0>         0.1281
      3 H1          1.2569    2.5192    0.6548 H         1 <0>         0.1150
      4 C3          0.2693    1.6038   -1.0008 C.2       1 <0>         0.5128
      5 O1          0.3394    0.4705   -1.4270 O.2       1 <0>        -0.5323
      6 N1         -0.8893    2.2866   -1.0892 N.am      1 <0>        -0.8465
      7 N2          2.6042    1.3124   -0.4070 N.am      1 <0>        -0.7118
      8 C4          3.6014    1.4276    0.4923 C.2       1 <0>         0.5294
      9 O2          3.5677    2.3081    1.3256 O.2       1 <0>        -0.5231
     10 C5          4.7583    0.4624    0.4623 C.3       1 <0>         0.1189
     11 H2          4.9248    0.1023   -0.5529 H         1 <0>         0.1003
     12 C6          4.4935   -0.7265    1.4194 C.3       1 <0>        -0.1230
     13 C7          5.9366   -1.2055    1.7279 C.3       1 <0>        -0.1305
     14 C8          6.7393    0.1122    1.7578 C.3       1 <0>         0.0914
     15 N3          5.9767    1.1054    0.9873 N.am      1 <0>        -0.5957
     16 C9          6.3328    2.3906    0.7926 C.2       1 <0>         0.5441
     17 O3          5.5864    3.1443    0.2046 O.2       1 <0>        -0.5382
     18 C10         7.6585    2.8911    1.3055 C.3       1 <0>         0.1215
     19 H3          8.4697    2.3174    0.8573 H         1 <0>         0.1110
     20 C11         7.7099    2.7604    2.8423 C.3       1 <0>        -0.1278
     21 C12         8.4561    4.0534    3.2738 C.3       1 <0>        -0.1299
     22 C13         7.9327    5.0781    2.2366 C.3       1 <0>         0.0816
     23 N4          7.8147    4.3163    0.9800 N.am      1 <0>        -0.5952
     24 C14         7.8458    4.8396   -0.2617 C.2       1 <0>         0.4790
     25 O4          7.7397    4.1146   -1.2281 O.2       1 <0>        -0.4901
     26 C15         8.0123    6.3256   -0.4492 C.3       1 <0>         0.0858
     27 H4          8.9104    6.6590    0.0707 H         1 <0>         0.1692
     28 C16         6.7928    7.0515    0.1226 C.3       1 <0>         0.0018
     29 H5          6.7523    6.8997    1.2012 H         1 <0>         0.1544
     30 C17         6.9027    8.5477   -0.1781 C.3       1 <0>        -0.0910
     31 C18         5.7665    9.2789    0.4894 C.ar      1 <0>        -0.1303
     32 C19         4.5764    9.4715   -0.1869 C.ar      1 <0>        -0.1417
     33 C20         3.5328   10.1388    0.4268 C.ar      1 <0>        -0.1065
     34 C21         3.6823   10.6207    1.7138 C.ar      1 <0>        -0.1024
     35 C22         4.8743   10.4328    2.3881 C.ar      1 <0>        -0.1049
     36 C23         5.9165    9.7621    1.7759 C.ar      1 <0>        -0.1037
     37 O5          8.1316    6.6195   -1.8425 O.3       1 <0>        -0.5060
     38 H6          2.7213    3.9786   -0.7142 H         1 <0>         0.0688
     39 H7          2.0686    3.2423   -2.1975 H         1 <0>         0.0659
     40 H8          1.0092    4.2088   -1.1431 H         1 <0>         0.0718
     41 H9         -1.6672    1.8716   -1.4937 H         1 <0>         0.4103
     42 H10        -0.9454    3.1930   -0.7482 H         1 <0>         0.4036
     43 H11         2.6312    0.6082   -1.0736 H         1 <0>         0.4115
     44 H12         3.9902   -0.3929    2.3269 H         1 <0>         0.0863
     45 H13         3.9202   -1.5086    0.9216 H         1 <0>         0.0990
     46 H14         5.9786   -1.7047    2.6959 H         1 <0>         0.0953
     47 H15         6.3022   -1.8619    0.9381 H         1 <0>         0.0868
     48 H16         6.8563    0.4517    2.7869 H         1 <0>         0.0800
     49 H17         7.7186   -0.0399    1.3041 H         1 <0>         0.0791
     50 H18         6.7039    2.7382    3.2613 H         1 <0>         0.0897
     51 H19         8.2705    1.8728    3.1354 H         1 <0>         0.1024
     52 H20         9.5352    3.9266    3.1875 H         1 <0>         0.0902
     53 H21         8.1790    4.3464    4.2865 H         1 <0>         0.0996
     54 H22         8.6437    5.8959    2.1191 H         1 <0>         0.0904
     55 H23         6.9591    5.4634    2.5395 H         1 <0>         0.0771
     56 H24         7.8515    8.9260    0.2022 H         1 <0>         0.1262
     57 H25         6.8538    8.7063   -1.2554 H         1 <0>         0.1082
     58 H26         4.4608    9.0979   -1.1936 H         1 <0>         0.1226
     59 H27         2.6017   10.2860   -0.1002 H         1 <0>         0.1322
     60 H28         2.8680   11.1445    2.1923 H         1 <0>         0.1326
     61 H29         4.9912   10.8096    3.3935 H         1 <0>         0.1332
     62 H30         6.8478    9.6152    2.3027 H         1 <0>         0.1307
     63 H31         5.5846    6.6454   -1.4941 H         1 <0>         0.4304
     64 H32         5.4421    5.5446   -0.2556 H         1 <0>         0.4464
     65 H33         7.3663    6.3495   -2.3684 H         1 <0>         0.3804
     66 N5          5.5539    6.5314   -0.4823 N.4       1 <0>        -0.6495
     67 H34         4.7518    7.0535   -0.1105 H         1 <0>         0.4422
@<TRIPOS>BOND
     1    1    2 1
     2    1   38 1
     3    1   39 1
     4    1   40 1
     5    2    3 1
     6    2    4 1
     7    2    7 1
     8    4    5 2
     9    4    6 am
    10    6   41 1
    11    6   42 1
    12    7    8 am
    13    7   43 1
    14    8    9 2
    15    8   10 1
    16   10   11 1
    17   10   15 1
    18   10   12 1
    19   12   13 1
    20   12   44 1
    21   12   45 1
    22   13   14 1
    23   13   46 1
    24   13   47 1
    25   14   15 1
    26   14   48 1
    27   14   49 1
    28   15   16 am
    29   16   17 2
    30   16   18 1
    31   18   19 1
    32   18   23 1
    33   18   20 1
    34   20   21 1
    35   20   50 1
    36   20   51 1
    37   21   22 1
    38   21   52 1
    39   21   53 1
    40   22   23 1
    41   22   54 1
    42   22   55 1
    43   23   24 am
    44   24   25 2
    45   24   26 1
    46   26   27 1
    47   26   28 1
    48   26   37 1
    49   28   29 1
    50   28   30 1
    51   28   66 1
    52   30   31 1
    53   30   56 1
    54   30   57 1
    55   31   36 ar
    56   31   32 ar
    57   32   33 ar
    58   32   58 1
    59   33   34 ar
    60   33   59 1
    61   34   35 ar
    62   34   60 1
    63   35   36 ar
    64   35   61 1
    65   36   62 1
    66   37   65 1
    67   63   66 1
    68   64   66 1
    69   66   67 1
