@<TRIPOS>MOLECULE
ZINC01488294
   49    52     0     0     0
SMALL
USER_CHARGES
4-fluoro-N-[3-(1-methyl-4-piperidyl)-1H-indol-5-yl]-benzamide
@<TRIPOS>ATOM
      1 C1         -8.7658   -6.3171   -0.6517 C.3       1 <0>        -0.0426
      2 C2         -6.7436   -5.5577   -1.7447 C.3       1 <0>        -0.0023
      3 C3         -5.2182   -5.6804   -1.7417 C.3       1 <0>        -0.1409
      4 C4         -4.6683   -5.1161   -0.4288 C.3       1 <0>        -0.0138
      5 C5         -5.2977   -5.8709    0.7454 C.3       1 <0>        -0.1414
      6 C6         -6.8208   -5.7426    0.6703 C.3       1 <0>        -0.0024
      7 C7         -3.1716   -5.2887   -0.3942 C.2       1 <0>        -0.1906
      8 C8         -2.5002   -6.4494   -0.4581 C.2       1 <0>         0.0731
      9 N1         -1.1539   -6.2137   -0.3978 N.pl3     1 <0>        -0.5885
     10 H1         -0.4666   -6.8976   -0.4259 H         1 <0>         0.4216
     11 C9         -0.9198   -4.8591   -0.2907 C.ar      1 <0>         0.0854
     12 C10        -2.1738   -4.2216   -0.2838 C.ar      1 <0>        -0.0776
     13 C11        -2.2497   -2.8313   -0.1836 C.ar      1 <0>        -0.1102
     14 C12        -1.0869   -2.0891   -0.0915 C.ar      1 <0>         0.1376
     15 C13         0.1538   -2.7240   -0.1044 C.ar      1 <0>        -0.0919
     16 C14         0.2386   -4.0950   -0.1972 C.ar      1 <0>        -0.1034
     17 N2         -1.1558   -0.6938    0.0094 N.am      1 <0>        -0.6708
     18 C15        -0.2361   -0.0241    0.7320 C.2       1 <0>         0.5645
     19 O1          0.5956   -0.6358    1.3741 O.2       1 <0>        -0.5103
     20 C16        -0.2385    1.4528    0.7437 C.ar      1 <0>        -0.1554
     21 C17        -1.1891    2.1580    0.0024 C.ar      1 <0>        -0.0559
     22 C18        -1.1910    3.5362    0.0224 C.ar      1 <0>        -0.1611
     23 C19        -0.2434    4.2226    0.7663 C.ar      1 <0>         0.1345
     24 C20         0.7065    3.5275    1.4991 C.ar      1 <0>        -0.1592
     25 C21         0.7134    2.1492    1.4917 C.ar      1 <0>        -0.0243
     26 F1         -0.2459    5.5736    0.7775 F         1 <0>        -0.1285
     27 H2         -9.0923   -6.8002   -1.5726 H         1 <0>         0.1211
     28 H3         -9.1500   -6.8707    0.2050 H         1 <0>         0.1212
     29 H4         -9.1444   -5.2953   -0.6234 H         1 <0>         0.1223
     30 H5         -7.0236   -4.5071   -1.6675 H         1 <0>         0.1298
     31 H6         -7.1394   -5.9717   -2.6721 H         1 <0>         0.1283
     32 H7         -4.8062   -5.1187   -2.5801 H         1 <0>         0.1131
     33 H8         -4.9374   -6.7297   -1.8327 H         1 <0>         0.0866
     34 H9         -4.9145   -4.0568   -0.3561 H         1 <0>         0.0923
     35 H10        -5.0181   -6.9231    0.6935 H         1 <0>         0.0867
     36 H11        -4.9425   -5.4452    1.6839 H         1 <0>         0.1132
     37 H12        -7.1004   -4.6911    0.7362 H         1 <0>         0.1299
     38 H13        -7.2727   -6.2909    1.4969 H         1 <0>         0.1284
     39 H14        -2.9554   -7.4249   -0.5447 H         1 <0>         0.1659
     40 H15        -3.2107   -2.3386   -0.1776 H         1 <0>         0.1239
     41 H16         1.0568   -2.1354   -0.0365 H         1 <0>         0.1422
     42 H17         1.2051   -4.5770   -0.2022 H         1 <0>         0.1292
     43 H18        -1.8655   -0.2094   -0.4408 H         1 <0>         0.4099
     44 H19        -1.9247    1.6244   -0.5812 H         1 <0>         0.1351
     45 H20        -1.9289    4.0825   -0.5464 H         1 <0>         0.1457
     46 H21         1.4422    4.0671    2.0771 H         1 <0>         0.1482
     47 H22         1.4533    1.6088    2.0634 H         1 <0>         0.1497
     48 N3         -7.2890   -6.3255   -0.6052 N.4       1 <0>        -0.3961
     49 H23        -6.9590   -7.2957   -0.6690 H         1 <0>         0.4279
@<TRIPOS>BOND
     1    1   27 1
     2    1   28 1
     3    1   29 1
     4    1   48 1
     5    2    3 1
     6    2   30 1
     7    2   31 1
     8    2   48 1
     9    3    4 1
    10    3   32 1
    11    3   33 1
    12    4    5 1
    13    4    7 1
    14    4   34 1
    15    5    6 1
    16    5   35 1
    17    5   36 1
    18    6   37 1
    19    6   38 1
    20    6   48 1
    21    7   12 1
    22    7    8 2
    23    8    9 1
    24    8   39 1
    25    9   10 1
    26    9   11 1
    27   11   16 ar
    28   11   12 ar
    29   12   13 ar
    30   13   14 ar
    31   13   40 1
    32   14   15 ar
    33   14   17 1
    34   15   16 ar
    35   15   41 1
    36   16   42 1
    37   17   18 am
    38   17   43 1
    39   18   19 2
    40   18   20 1
    41   20   25 ar
    42   20   21 ar
    43   21   22 ar
    44   21   44 1
    45   22   23 ar
    46   22   45 1
    47   23   24 ar
    48   23   26 1
    49   24   25 ar
    50   24   46 1
    51   25   47 1
    52   48   49 1
@<TRIPOS>MOLECULE
ZINC00014360
   42    43     0     0     0
SMALL
USER_CHARGES

@<TRIPOS>ATOM
      1 C1         -0.0178    1.4608    0.0101 C.3       1 <0>         0.0793
      2 N1          0.0021   -0.0041    0.0020 N.pl3     1 <0>        -1.1235
      3 S1          0.7421   -0.8289    1.2326 S.o2      1 <0>         2.6084
      4 O1          0.5924   -2.2002    0.8914 O.2       1 <0>        -0.9468
      5 O2          2.0334   -0.2448    1.3355 O.2       1 <0>        -0.9510
      6 C2         -0.2382   -0.4417    2.7090 C.3       1 <0>        -0.5828
      7 C3          0.3516   -1.1474    3.9028 C.ar      1 <0>        -0.1049
      8 C4         -0.0784   -2.4267    4.2282 C.ar      1 <0>        -0.0826
      9 C5          0.4473   -3.0893    5.3155 C.ar      1 <0>        -0.1137
     10 C6          1.4193   -2.4726    6.0968 C.ar      1 <0>         0.1042
     11 C7          1.8519   -1.1765    5.7625 C.ar      1 <0>        -0.0991
     12 C8          1.3091   -0.5253    4.6530 C.ar      1 <0>        -0.0640
     13 C9          2.8614   -0.8166    6.7612 C.2       1 <0>        -0.2000
     14 C10         2.9754   -1.8603    7.5977 C.2       1 <0>         0.0879
     15 N2          2.1214   -2.8591    7.2163 N.pl3     1 <0>        -0.5851
     16 H1          2.0253   -3.7124    7.6673 H         1 <0>         0.4255
     17 C11         3.6270    0.4793    6.8351 C.3       1 <0>        -0.0627
     18 C12         2.7992    1.5182    7.5943 C.3       1 <0>        -0.0095
     19 N3          3.5455    2.7814    7.6664 N.4       1 <0>        -0.3881
     20 C13         3.7116    3.3299    6.3138 C.3       1 <0>        -0.0545
     21 C14         2.8051    3.7410    8.4964 C.3       1 <0>        -0.0469
     22 H2          1.0048    1.8381    0.0023 H         1 <0>         0.0693
     23 H3         -0.5450    1.8219   -0.8730 H         1 <0>         0.0876
     24 H4         -0.5280    1.8123    0.9069 H         1 <0>         0.0574
     25 H5         -0.4183   -0.4908   -0.7241 H         1 <0>         0.4222
     26 H6         -0.2266    0.6346    2.8808 H         1 <0>         0.1378
     27 H7         -1.2653   -0.7750    2.5608 H         1 <0>         0.1453
     28 H8         -0.8329   -2.9072    3.6230 H         1 <0>         0.1399
     29 H9          0.1057   -4.0841    5.5609 H         1 <0>         0.1340
     30 H10         1.6421    0.4681    4.3911 H         1 <0>         0.1262
     31 H11         3.6421   -1.9048    8.4461 H         1 <0>         0.1761
     32 H12         4.5701    0.3149    7.3563 H         1 <0>         0.0931
     33 H13         3.8275    0.8410    5.8266 H         1 <0>         0.0945
     34 H14         1.8561    1.6826    7.0732 H         1 <0>         0.1293
     35 H15         2.5988    1.1565    8.6029 H         1 <0>         0.1303
     36 H16         4.2654    4.2672    6.3673 H         1 <0>         0.1245
     37 H17         4.2611    2.6179    5.6980 H         1 <0>         0.1265
     38 H18         2.7316    3.5116    5.8726 H         1 <0>         0.1219
     39 H19         2.6818    3.3340    9.5001 H         1 <0>         0.1225
     40 H20         3.3588    4.6783    8.5499 H         1 <0>         0.1241
     41 H21         1.8251    3.9226    8.0552 H         1 <0>         0.1209
     42 H22         4.4527    2.6132    8.0749 H         1 <0>         0.4266
@<TRIPOS>BOND
     1    1    2 1
     2    1   22 1
     3    1   23 1
     4    1   24 1
     5    2    3 1
     6    2   25 1
     7    3    4 2
     8    3    5 2
     9    3    6 1
    10    6    7 1
    11    6   26 1
    12    6   27 1
    13    7   12 ar
    14    7    8 ar
    15    8    9 ar
    16    8   28 1
    17    9   10 ar
    18    9   29 1
    19   10   15 1
    20   10   11 ar
    21   11   12 ar
    22   11   13 1
    23   12   30 1
    24   13   14 2
    25   13   17 1
    26   14   15 1
    27   14   31 1
    28   15   16 1
    29   17   18 1
    30   17   32 1
    31   17   33 1
    32   18   19 1
    33   18   34 1
    34   18   35 1
    35   19   20 1
    36   19   21 1
    37   19   42 1
    38   20   36 1
    39   20   37 1
    40   20   38 1
    41   21   39 1
    42   21   40 1
    43   21   41 1
@<TRIPOS>MOLECULE
ZINC00000504
   41    44     0     0     0
SMALL
USER_CHARGES

@<TRIPOS>ATOM
      1 C1         -0.0178    1.4648    0.0101 C.3       1 <0>        -0.0457
      2 N1          0.0021   -0.0041    0.0020 N.4       1 <0>        -0.3851
      3 C2         -1.3782   -0.5248    0.0610 C.3       1 <0>        -0.0107
      4 C3         -1.3147   -2.0017   -0.3247 C.3       1 <0>         0.1097
      5 N2         -0.2536   -2.6823    0.4304 N.pl3     1 <0>        -0.6570
      6 C4         -0.1632   -4.0681    0.2474 C.ar      1 <0>         0.1515
      7 C5          0.1651   -4.5655   -1.0110 C.ar      1 <0>        -0.1283
      8 C6          0.3219   -5.9257   -1.1894 C.ar      1 <0>        -0.1053
      9 C7          0.1595   -6.7897   -0.1216 C.ar      1 <0>        -0.1122
     10 C8         -0.1903   -6.2968    1.1226 C.ar      1 <0>        -0.0978
     11 C9         -0.3794   -4.9379    1.2936 C.ar      1 <0>        -0.0863
     12 C10        -0.9055   -4.4020    2.5876 C.3       1 <0>        -0.0401
     13 C11         0.0255   -3.4607    3.2849 C.ar      1 <0>        -0.0434
     14 C12         0.2033   -3.7275    4.6483 C.ar      1 <0>        -0.1164
     15 C13         1.0009   -2.9352    5.4386 C.ar      1 <0>        -0.1037
     16 C14         1.6407   -1.8450    4.8776 C.ar      1 <0>        -0.1092
     17 C15         1.4792   -1.5873    3.5373 C.ar      1 <0>        -0.1345
     18 C16         0.6836   -2.4040    2.7249 C.ar      1 <0>        -0.1120
     19 C17         0.6957   -2.0166    1.2712 C.3       1 <0>         0.2145
     20 H1          1.6762   -2.3177    0.9022 H         1 <0>         0.0814
     21 C18         0.7079   -0.4980    1.1840 C.3       1 <0>        -0.0096
     22 H2          1.0047    1.8421    0.0024 H         1 <0>         0.1256
     23 H3         -0.5450    1.8259   -0.8730 H         1 <0>         0.1278
     24 H4         -0.5280    1.8163    0.9069 H         1 <0>         0.1233
     25 H5         -1.7720   -0.4210    1.0720 H         1 <0>         0.1359
     26 H6         -2.0104    0.0166   -0.6429 H         1 <0>         0.1459
     27 H7         -2.2727   -2.4732   -0.1054 H         1 <0>         0.1007
     28 H8         -1.1096   -2.0872   -1.3918 H         1 <0>         0.0828
     29 H9          0.2970   -3.8905   -1.8436 H         1 <0>         0.1222
     30 H10         0.5722   -6.3158   -2.1649 H         1 <0>         0.1292
     31 H11         0.3058   -7.8509   -0.2596 H         1 <0>         0.1304
     32 H12        -0.3156   -6.9709    1.9570 H         1 <0>         0.1304
     33 H13        -1.8427   -3.8810    2.3915 H         1 <0>         0.0851
     34 H14        -1.1118   -5.2412    3.2519 H         1 <0>         0.0847
     35 H15        -0.2988   -4.5760    5.0892 H         1 <0>         0.1275
     36 H16         1.1270   -3.1618    6.4870 H         1 <0>         0.1317
     37 H17         2.2602   -1.2030    5.4861 H         1 <0>         0.1308
     38 H18         1.9776   -0.7345    3.1006 H         1 <0>         0.1191
     39 H19         1.7417   -0.1544    1.1475 H         1 <0>         0.1407
     40 H20         0.2329   -0.0891    2.0758 H         1 <0>         0.1370
     41 H21         0.4593   -0.3360   -0.8339 H         1 <0>         0.4294
@<TRIPOS>BOND
     1    1    2 1
     2    1   22 1
     3    1   23 1
     4    1   24 1
     5    2   21 1
     6    2    3 1
     7    2   41 1
     8    3    4 1
     9    3   25 1
    10    3   26 1
    11    4    5 1
    12    4   27 1
    13    4   28 1
    14    5   19 1
    15    5    6 1
    16    6   11 ar
    17    6    7 ar
    18    7    8 ar
    19    7   29 1
    20    8    9 ar
    21    8   30 1
    22    9   10 ar
    23    9   31 1
    24   10   11 ar
    25   10   32 1
    26   11   12 1
    27   12   13 1
    28   12   33 1
    29   12   34 1
    30   13   18 ar
    31   13   14 ar
    32   14   15 ar
    33   14   35 1
    34   15   16 ar
    35   15   36 1
    36   16   17 ar
    37   16   37 1
    38   17   18 ar
    39   17   38 1
    40   18   19 1
    41   19   20 1
    42   19   21 1
    43   21   39 1
    44   21   40 1
@<TRIPOS>MOLECULE
ZINC19702119
   40    43     0     0     0
SMALL
USER_CHARGES

@<TRIPOS>ATOM
      1 C1         -0.0178    1.4648    0.0101 C.3       1 <0>        -0.0454
      2 N1          0.0021   -0.0041    0.0020 N.4       1 <0>        -0.3860
      3 C2         -1.3783   -0.5248    0.0608 C.3       1 <0>        -0.0097
      4 C3         -1.3145   -2.0016   -0.3258 C.3       1 <0>         0.1124
      5 N2         -0.2539   -2.6821    0.4305 N.pl3     1 <0>        -0.6421
      6 C4         -0.1644   -4.0618    0.2458 C.ar      1 <0>         0.3542
      7 C5         -0.3795   -4.9308    1.2960 C.ar      1 <0>        -0.1288
      8 C6         -0.1847   -6.2880    1.1174 C.ar      1 <0>        -0.0548
      9 C7          0.1706   -6.7372   -0.1491 C.ar      1 <0>        -0.1645
     10 C8          0.3143   -5.8212   -1.1718 C.ar      1 <0>         0.1192
     11 N3          0.1488   -4.5302   -0.9575 N.ar      1 <0>        -0.4975
     12 C9         -0.9081   -4.3992    2.5895 C.3       1 <0>        -0.0368
     13 C10         0.0224   -3.4574    3.2885 C.ar      1 <0>        -0.0457
     14 C11         0.1986   -3.7223    4.6521 C.ar      1 <0>        -0.1150
     15 C12         0.9953   -2.9282    5.4417 C.ar      1 <0>        -0.1027
     16 C13         1.6349   -1.8386    4.8795 C.ar      1 <0>        -0.1076
     17 C14         1.4749   -1.5830    3.5386 C.ar      1 <0>        -0.1330
     18 C15         0.6805   -2.4016    2.7268 C.ar      1 <0>        -0.1121
     19 C16         0.6937   -2.0166    1.2726 C.3       1 <0>         0.2159
     20 H1          1.6746   -2.3185    0.9055 H         1 <0>         0.0814
     21 C17         0.7079   -0.4980    1.1840 C.3       1 <0>        -0.0074
     22 H2          1.0047    1.8421    0.0024 H         1 <0>         0.1257
     23 H3         -0.5450    1.8259   -0.8730 H         1 <0>         0.1282
     24 H4         -0.5280    1.8163    0.9069 H         1 <0>         0.1236
     25 H5         -1.7720   -0.4217    1.0720 H         1 <0>         0.1366
     26 H6         -2.0105    0.0169   -0.6426 H         1 <0>         0.1472
     27 H7         -2.2726   -2.4733   -0.1077 H         1 <0>         0.0996
     28 H8         -1.1080   -2.0865   -1.3927 H         1 <0>         0.0904
     29 H9         -0.3056   -6.9793    1.9383 H         1 <0>         0.1438
     30 H10         0.3326   -7.7894   -0.3307 H         1 <0>         0.1453
     31 H11         0.5666   -6.1671   -2.1633 H         1 <0>         0.1637
     32 H12        -1.8457   -3.8790    2.3937 H         1 <0>         0.0888
     33 H13        -1.1133   -5.2399    3.2522 H         1 <0>         0.0879
     34 H14        -0.3035   -4.5704    5.0938 H         1 <0>         0.1284
     35 H15         1.1202   -3.1526    6.4908 H         1 <0>         0.1325
     36 H16         2.2534   -1.1951    5.4877 H         1 <0>         0.1318
     37 H17         1.9733   -0.7306    3.1011 H         1 <0>         0.1205
     38 H18         1.7422   -0.1560    1.1466 H         1 <0>         0.1419
     39 H19         0.2340   -0.0876    2.0757 H         1 <0>         0.1388
     40 H20         0.4594   -0.3360   -0.8339 H         1 <0>         0.4313
@<TRIPOS>BOND
     1    1    2 1
     2    1   22 1
     3    1   23 1
     4    1   24 1
     5    2   21 1
     6    2    3 1
     7    2   40 1
     8    3    4 1
     9    3   25 1
    10    3   26 1
    11    4    5 1
    12    4   27 1
    13    4   28 1
    14    5   19 1
    15    5    6 1
    16    6   11 ar
    17    6    7 ar
    18    7    8 ar
    19    7   12 1
    20    8    9 ar
    21    8   29 1
    22    9   10 ar
    23    9   30 1
    24   10   11 ar
    25   10   31 1
    26   12   13 1
    27   12   32 1
    28   12   33 1
    29   13   18 ar
    30   13   14 ar
    31   14   15 ar
    32   14   34 1
    33   15   16 ar
    34   15   35 1
    35   16   17 ar
    36   16   36 1
    37   17   18 ar
    38   17   37 1
    39   18   19 1
    40   19   20 1
    41   19   21 1
    42   21   38 1
    43   21   39 1
@<TRIPOS>MOLECULE
ZINC19702119
   39    42     0     0     0
SMALL
USER_CHARGES

@<TRIPOS>ATOM
      1 C1         -0.0178    1.4648    0.0101 C.3       1 <0>         0.0209
      2 N1          0.0021   -0.0041    0.0020 N.3       1 <0>        -0.5267
      3 C2         -1.3696   -0.5520   -0.0129 C.3       1 <0>         0.0369
      4 C3         -1.2587   -2.0140   -0.4414 C.3       1 <0>         0.1508
      5 N2         -0.2104   -2.6979    0.3284 N.pl3     1 <0>        -0.6237
      6 C4         -0.0943   -4.0707    0.1064 C.ar      1 <0>         0.3753
      7 C5         -0.3267   -4.9738    1.1232 C.ar      1 <0>        -0.1410
      8 C6         -0.1059   -6.3221    0.9104 C.ar      1 <0>        -0.0580
      9 C7          0.2932   -6.7278   -0.3578 C.ar      1 <0>        -0.1849
     10 C8          0.4527   -5.7794   -1.3480 C.ar      1 <0>         0.1154
     11 N3          0.2613   -4.4979   -1.1005 N.ar      1 <0>        -0.4972
     12 C9         -0.9013   -4.4894    2.4157 C.3       1 <0>        -0.0291
     13 C10        -0.0060   -3.5560    3.1696 C.ar      1 <0>        -0.0590
     14 C11         0.1339   -3.8590    4.5295 C.ar      1 <0>        -0.1210
     15 C12         0.8955   -3.0778    5.3654 C.ar      1 <0>        -0.1186
     16 C13         1.5355   -1.9634    4.8545 C.ar      1 <0>        -0.1174
     17 C14         1.4109   -1.6701    3.5176 C.ar      1 <0>        -0.1238
     18 C15         0.6525   -2.4748    2.6589 C.ar      1 <0>        -0.0908
     19 C16         0.7020   -2.0462    1.2178 C.3       1 <0>         0.2293
     20 H1          1.6969   -2.3259    0.8715 H         1 <0>         0.0579
     21 C17         0.7034   -0.5254    1.1756 C.3       1 <0>         0.0547
     22 H2          1.0047    1.8421    0.0024 H         1 <0>         0.0713
     23 H3         -0.5450    1.8259   -0.8730 H         1 <0>         0.0737
     24 H4         -0.5280    1.8163    0.9069 H         1 <0>         0.0282
     25 H5         -1.8068   -0.4882    0.9835 H         1 <0>         0.0458
     26 H6         -1.9829   -0.0007   -0.7257 H         1 <0>         0.0907
     27 H7         -2.2131   -2.5122   -0.2709 H         1 <0>         0.0539
     28 H8         -1.0139   -2.0603   -1.5025 H         1 <0>         0.0678
     29 H9         -0.2394   -7.0394    1.7068 H         1 <0>         0.1364
     30 H10         0.4764   -7.7717   -0.5656 H         1 <0>         0.1367
     31 H11         0.7392   -6.0916   -2.3414 H         1 <0>         0.1559
     32 H12        -1.8406   -3.9771    2.2077 H         1 <0>         0.0849
     33 H13        -1.1129   -5.3527    3.0467 H         1 <0>         0.0801
     34 H14        -0.3687   -4.7265    4.9310 H         1 <0>         0.1207
     35 H15         0.9929   -3.3315    6.4106 H         1 <0>         0.1241
     36 H16         2.1272   -1.3304    5.4992 H         1 <0>         0.1247
     37 H17         1.9097   -0.7985    3.1202 H         1 <0>         0.1225
     38 H18         1.7347   -0.1731    1.1568 H         1 <0>         0.0868
     39 H19         0.2182   -0.1462    2.0750 H         1 <0>         0.0458
@<TRIPOS>BOND
     1    1    2 1
     2    1   22 1
     3    1   23 1
     4    1   24 1
     5    2   21 1
     6    2    3 1
     7    3    4 1
     8    3   25 1
     9    3   26 1
    10    4    5 1
    11    4   27 1
    12    4   28 1
    13    5   19 1
    14    5    6 1
    15    6   11 ar
    16    6    7 ar
    17    7    8 ar
    18    7   12 1
    19    8    9 ar
    20    8   29 1
    21    9   10 ar
    22    9   30 1
    23   10   11 ar
    24   10   31 1
    25   12   13 1
    26   12   32 1
    27   12   33 1
    28   13   18 ar
    29   13   14 ar
    30   14   15 ar
    31   14   34 1
    32   15   16 ar
    33   15   35 1
    34   16   17 ar
    35   16   36 1
    36   17   18 ar
    37   17   37 1
    38   18   19 1
    39   19   20 1
    40   19   21 1
    41   21   38 1
    42   21   39 1
@<TRIPOS>MOLECULE
ZINC13553349
   48    50     0     0     0
SMALL
USER_CHARGES
2-[1-(benzenesulfonyl)-5-methoxy-indol-3-yl]-N,N-dimethyl-ethanamine
@<TRIPOS>ATOM
      1 C1         -2.5623    5.4639    7.3360 C.3       1 <0>        -0.0482
      2 C2         -0.3065    6.2599    6.9612 C.3       1 <0>        -0.0422
      3 C3         -1.3648    4.8108    5.3355 C.3       1 <0>        -0.0062
      4 C4         -2.6475    4.6085    4.5265 C.3       1 <0>        -0.0700
      5 C5         -2.4323    3.5190    3.5078 C.2       1 <0>        -0.1594
      6 C6         -2.0675    3.6848    2.2266 C.2       1 <0>         0.0910
      7 N1         -1.9742    2.4687    1.6068 N.pl3     1 <0>        -0.8230
      8 C7         -2.2761    1.4631    2.5009 C.ar      1 <0>         0.0666
      9 C8         -2.5760    2.0781    3.7298 C.ar      1 <0>        -0.0420
     10 C9         -2.9225    1.2977    4.8346 C.ar      1 <0>        -0.1239
     11 C10        -2.9681   -0.0769    4.7115 C.ar      1 <0>         0.1296
     12 C11        -2.6712   -0.6826    3.4936 C.ar      1 <0>        -0.1667
     13 C12        -2.3278    0.0773    2.3975 C.ar      1 <0>        -0.0768
     14 O1         -3.3049   -0.8421    5.7841 O.3       1 <0>        -0.3144
     15 C13        -3.3331   -2.2573    5.5881 C.3       1 <0>         0.0228
     16 S1         -1.5544    2.2383    0.0216 S.o2      1 <0>         2.6686
     17 O2         -1.3035    3.5264   -0.5234 O.2       1 <0>        -0.9251
     18 O3         -2.5194    1.3527   -0.5295 O.2       1 <0>        -0.9171
     19 C14        -0.0167    1.3781    0.0096 C.ar      1 <0>        -0.6774
     20 C15         1.1709    2.0855    0.0021 C.ar      1 <0>        -0.0168
     21 C16         2.3773    1.4107   -0.0141 C.ar      1 <0>        -0.1355
     22 C17         2.3960    0.0285   -0.0217 C.ar      1 <0>        -0.0502
     23 C18         1.2084   -0.6789   -0.0136 C.ar      1 <0>        -0.1326
     24 C19         0.0021   -0.0041    0.0020 C.ar      1 <0>        -0.0202
     25 H1         -2.2086    4.5700    7.8497 H         1 <0>         0.1237
     26 H2         -2.6985    6.2684    8.0587 H         1 <0>         0.1227
     27 H3         -3.5127    5.2499    6.8471 H         1 <0>         0.1233
     28 H4          0.3830    6.6245    6.1998 H         1 <0>         0.1212
     29 H5         -0.4905    7.0475    7.6918 H         1 <0>         0.1226
     30 H6          0.1289    5.3948    7.4613 H         1 <0>         0.1224
     31 H7         -1.1065    3.8826    5.8453 H         1 <0>         0.1337
     32 H8         -0.5535    5.0951    4.6653 H         1 <0>         0.1311
     33 H9         -2.9058    5.5367    4.0167 H         1 <0>         0.0989
     34 H10        -3.4587    4.3242    5.1967 H         1 <0>         0.0992
     35 H11        -1.8786    4.6374    1.7541 H         1 <0>         0.1952
     36 H12        -3.1537    1.7664    5.7797 H         1 <0>         0.1338
     37 H13        -2.7105   -1.7584    3.4076 H         1 <0>         0.1451
     38 H14        -2.0994   -0.4030    1.4575 H         1 <0>         0.1341
     39 H15        -4.0598   -2.5025    4.8137 H         1 <0>         0.0610
     40 H16        -2.3453   -2.6013    5.2815 H         1 <0>         0.0595
     41 H17        -3.6155   -2.7475    6.5198 H         1 <0>         0.1067
     42 H18         1.1563    3.1654    0.0081 H         1 <0>         0.1418
     43 H19         3.3051    1.9634   -0.0207 H         1 <0>         0.1396
     44 H20         3.3385   -0.4987   -0.0343 H         1 <0>         0.1390
     45 H21         1.2231   -1.7587   -0.0199 H         1 <0>         0.1409
     46 H22        -0.9258   -0.5567    0.0079 H         1 <0>         0.1410
     47 N2         -1.5849    5.8958    6.3148 N.4       1 <0>        -0.3987
     48 H23        -1.9564    6.7176    5.8241 H         1 <0>         0.4313
@<TRIPOS>BOND
     1    1   25 1
     2    1   26 1
     3    1   27 1
     4    1   47 1
     5    2   28 1
     6    2   29 1
     7    2   30 1
     8    2   47 1
     9    3    4 1
    10    3   31 1
    11    3   32 1
    12    3   47 1
    13    4    5 1
    14    4   33 1
    15    4   34 1
    16    5    9 1
    17    5    6 2
    18    6    7 1
    19    6   35 1
    20    7    8 1
    21    7   16 1
    22    8   13 ar
    23    8    9 ar
    24    9   10 ar
    25   10   11 ar
    26   10   36 1
    27   11   12 ar
    28   11   14 1
    29   12   13 ar
    30   12   37 1
    31   13   38 1
    32   14   15 1
    33   15   39 1
    34   15   40 1
    35   15   41 1
    36   16   17 2
    37   16   18 2
    38   16   19 1
    39   19   24 ar
    40   19   20 ar
    41   20   21 ar
    42   20   42 1
    43   21   22 ar
    44   21   43 1
    45   22   23 ar
    46   22   44 1
    47   23   24 ar
    48   23   45 1
    49   24   46 1
    50   47   48 1
