@<TRIPOS>MOLECULE
ZINC52541473
   65    68     0     0     0
SMALL
USER_CHARGES

@<TRIPOS>ATOM
      1 C1          0.7296    2.3679    0.2240 C.3       1 <0>         0.0253
      2 O1          0.6046    0.9543    0.3920 O.3       1 <0>        -0.3054
      3 C2         -0.6460    0.4667    0.6114 C.ar      1 <0>         0.1182
      4 C3         -1.7290    1.3289    0.6581 C.ar      1 <0>        -0.2068
      5 C4         -2.9998    0.8318    0.8817 C.ar      1 <0>        -0.0835
      6 C5         -3.1941   -0.5255    1.0588 C.ar      1 <0>        -0.1513
      7 C6         -2.1187   -1.3927    1.0132 C.ar      1 <0>        -0.0866
      8 C7         -0.8416   -0.9018    0.7840 C.ar      1 <0>         0.1382
      9 N1          0.2482   -1.7785    0.7316 N.pl3     1 <0>        -0.6681
     10 C8          0.9991   -2.1230    1.9485 C.3       1 <0>         0.1545
     11 C9          2.4911   -1.8990    1.6796 C.3       1 <0>         0.0434
     12 N2          2.8852   -2.6421    0.4753 N.3       1 <0>        -0.5288
     13 C10         2.1777   -2.1456   -0.7126 C.3       1 <0>         0.0357
     14 C11         0.6692   -2.3844   -0.5407 C.3       1 <0>         0.1545
     15 C12         4.3403   -2.5940    0.2797 C.3       1 <0>         0.0385
     16 C13         4.7389   -3.5732   -0.8263 C.3       1 <0>         0.0970
     17 N3          6.1901   -3.5252   -1.0213 N.am      1 <0>        -0.5500
     18 C14         7.0277   -4.2929   -0.2136 C.ar      1 <0>         0.3611
     19 C15         6.4803   -5.2520    0.6312 C.ar      1 <0>        -0.2083
     20 C16         7.3231   -6.0073    1.4272 C.ar      1 <0>        -0.0478
     21 C17         8.6899   -5.7763    1.3506 C.ar      1 <0>        -0.2054
     22 C18         9.1645   -4.8073    0.4890 C.ar      1 <0>         0.1310
     23 N4          8.3370   -4.1058   -0.2619 N.ar      1 <0>        -0.4810
     24 C19         6.7153   -2.7389   -1.9817 C.2       1 <0>         0.5110
     25 O2          7.9062   -2.7723   -2.2087 O.2       1 <0>        -0.4678
     26 C20         5.8229   -1.8182   -2.7735 C.3       1 <0>        -0.1024
     27 C21         5.0577   -2.6274   -3.8226 C.3       1 <0>        -0.1152
     28 C22         4.1516   -1.6927   -4.6264 C.3       1 <0>        -0.1164
     29 C23         5.0044   -0.6309   -5.3237 C.3       1 <0>        -0.1226
     30 C24         5.7696    0.1783   -4.2746 C.3       1 <0>        -0.1187
     31 C25         6.6757   -0.7564   -3.4707 C.3       1 <0>        -0.1009
     32 H1          1.7760    2.6228    0.0568 H         1 <0>         0.0969
     33 H2          0.1367    2.6856   -0.6337 H         1 <0>         0.0541
     34 H3          0.3712    2.8734    1.1207 H         1 <0>         0.0539
     35 H4         -1.5807    2.3897    0.5201 H         1 <0>         0.1266
     36 H5         -3.8429    1.5058    0.9185 H         1 <0>         0.1242
     37 H6         -4.1884   -0.9091    1.2335 H         1 <0>         0.1246
     38 H7         -2.2731   -2.4525    1.1523 H         1 <0>         0.1290
     39 H8          0.6756   -1.4853    2.7712 H         1 <0>         0.0695
     40 H9          0.8257   -3.1688    2.2020 H         1 <0>         0.0579
     41 H10         2.6778   -0.8359    1.5284 H         1 <0>         0.0413
     42 H11         3.0714   -2.2531    2.5316 H         1 <0>         0.0777
     43 H12         2.3689   -1.0790   -0.8304 H         1 <0>         0.0431
     44 H13         2.5308   -2.6786   -1.5954 H         1 <0>         0.0770
     45 H14         0.4646   -3.4549   -0.5219 H         1 <0>         0.0581
     46 H15         0.1274   -1.9197   -1.3645 H         1 <0>         0.0695
     47 H16         4.6355   -1.5842   -0.0053 H         1 <0>         0.0388
     48 H17         4.8410   -2.8706    1.2076 H         1 <0>         0.0802
     49 H18         4.4438   -4.5830   -0.5413 H         1 <0>         0.0981
     50 H19         4.2383   -3.2966   -1.7542 H         1 <0>         0.1018
     51 H20         5.4118   -5.4051    0.6658 H         1 <0>         0.1391
     52 H21         6.9265   -6.7592    2.0934 H         1 <0>         0.1376
     53 H22         9.3749   -6.3484    1.9588 H         1 <0>         0.1354
     54 H23        10.2269   -4.6241    0.4260 H         1 <0>         0.1581
     55 H24         5.1150   -1.3323   -2.1021 H         1 <0>         0.0916
     56 H25         5.7656   -3.1134   -4.4940 H         1 <0>         0.0727
     57 H26         4.4501   -3.3839   -3.3258 H         1 <0>         0.0695
     58 H27         3.6064   -2.2692   -5.3738 H         1 <0>         0.0687
     59 H28         3.4437   -1.2068   -3.9550 H         1 <0>         0.0643
     60 H29         5.7123   -1.1168   -5.9951 H         1 <0>         0.0644
     61 H30         4.3588    0.0350   -5.8964 H         1 <0>         0.0643
     62 H31         6.3771    0.9348   -4.7713 H         1 <0>         0.0673
     63 H32         5.0617    0.6642   -3.6032 H         1 <0>         0.0612
     64 H33         7.2208   -0.1799   -2.7234 H         1 <0>         0.0662
     65 H34         7.3836   -1.2423   -4.1422 H         1 <0>         0.0754
@<TRIPOS>BOND
     1    1    2 1
     2    1   32 1
     3    1   33 1
     4    1   34 1
     5    2    3 1
     6    3    8 ar
     7    3    4 ar
     8    4    5 ar
     9    4   35 1
    10    5    6 ar
    11    5   36 1
    12    6    7 ar
    13    6   37 1
    14    7    8 ar
    15    7   38 1
    16    8    9 1
    17    9   14 1
    18    9   10 1
    19   10   11 1
    20   10   39 1
    21   10   40 1
    22   11   12 1
    23   11   41 1
    24   11   42 1
    25   12   13 1
    26   12   15 1
    27   13   14 1
    28   13   43 1
    29   13   44 1
    30   14   45 1
    31   14   46 1
    32   15   16 1
    33   15   47 1
    34   15   48 1
    35   16   17 1
    36   16   49 1
    37   16   50 1
    38   17   18 1
    39   17   24 am
    40   18   23 ar
    41   18   19 ar
    42   19   20 ar
    43   19   51 1
    44   20   21 ar
    45   20   52 1
    46   21   22 ar
    47   21   53 1
    48   22   23 ar
    49   22   54 1
    50   24   25 2
    51   24   26 1
    52   26   31 1
    53   26   27 1
    54   26   55 1
    55   27   28 1
    56   27   56 1
    57   27   57 1
    58   28   29 1
    59   28   58 1
    60   28   59 1
    61   29   30 1
    62   29   60 1
    63   29   61 1
    64   30   31 1
    65   30   62 1
    66   30   63 1
    67   31   64 1
    68   31   65 1
