@<TRIPOS>MOLECULE
ZINC20534273
   43    46     0     0     0
SMALL
USER_CHARGES
2-[[4-(4-chlorophenyl)piperazin-1-yl]methyl]imidazo[1,2-a]pyridine
@<TRIPOS>ATOM
      1 C1         -1.2403    1.7584    0.0175 C.2       1 <0>        -0.0215
      2 C2         -0.0126    1.0758    0.0080 C.2       1 <0>        -0.1135
      3 C3          1.1486    1.7634    0.0006 C.2       1 <0>         0.0831
      4 N1          1.1482    3.1282    0.0074 N.pl3     1 <0>        -0.3270
      5 C4          2.1557    4.0542    0.0023 C.2       1 <0>        -0.0298
      6 C5          1.5760    5.2745    0.0141 C.2       1 <0>         0.1041
      7 N2          0.2503    5.1168    0.0262 N.pl3     1 <0>        -0.5121
      8 C6         -0.0339    3.8221    0.0225 C.cat     1 <0>         0.3152
      9 C7         -1.2550    3.1185    0.0308 C.2       1 <0>        -0.1231
     10 C8          2.3045    6.5938    0.0137 C.3       1 <0>         0.1020
     11 N3          2.4215    7.0880   -1.3647 N.3       1 <0>        -0.5402
     12 C9          3.2888    6.2132   -2.1660 C.3       1 <0>         0.0471
     13 C10         3.3209    6.7162   -3.6112 C.3       1 <0>         0.0579
     14 N4          3.8100    8.1018   -3.6341 N.pl3     1 <0>        -0.4879
     15 C11         2.9427    8.9767   -2.8328 C.3       1 <0>         0.0479
     16 C12         2.9106    8.4736   -1.3876 C.3       1 <0>         0.0550
     17 C13         3.9214    8.5720   -4.9453 C.ar      1 <0>         0.1085
     18 C14         3.2491    9.7247   -5.3306 C.ar      1 <0>        -0.1566
     19 C15         3.3660   10.1906   -6.6255 C.ar      1 <0>        -0.0818
     20 C16         4.1420    9.5031   -7.5421 C.ar      1 <0>        -0.0557
     21 C17         4.8083    8.3512   -7.1625 C.ar      1 <0>        -0.0837
     22 C18         4.7000    7.8842   -5.8673 C.ar      1 <0>        -0.1262
     23 Cl1         4.2804   10.0872   -9.1710 Cl        1 <0>        -0.0636
     24 H1         -2.1682    1.2058    0.0189 H         1 <0>         0.1741
     25 H2          0.0021   -0.0041    0.0020 H         1 <0>         0.1825
     26 H3          2.0869    1.2287   -0.0113 H         1 <0>         0.1990
     27 H4          3.2158    3.8481   -0.0091 H         1 <0>         0.2210
     28 H5         -2.1929    3.6538    0.0422 H         1 <0>         0.1779
     29 H6          1.7441    7.3222    0.6181 H         1 <0>         0.1145
     30 H7          3.3089    6.4582    0.4411 H         1 <0>         0.0904
     31 H8          4.3069    6.2254   -1.7498 H         1 <0>         0.0591
     32 H9          2.8956    5.1861   -2.1429 H         1 <0>         0.0798
     33 H10         3.9921    6.0795   -4.2062 H         1 <0>         0.0935
     34 H11         2.3068    6.6772   -4.0356 H         1 <0>         0.0541
     35 H12         3.3361   10.0037   -2.8559 H         1 <0>         0.0981
     36 H13         1.9246    8.9646   -3.2490 H         1 <0>         0.0595
     37 H14         2.2391    9.1093   -0.7919 H         1 <0>         0.0946
     38 H15         3.9244    8.5117   -0.9625 H         1 <0>         0.0590
     39 H16         2.6392   10.2588   -4.6170 H         1 <0>         0.1358
     40 H17         2.8476   11.0897   -6.9242 H         1 <0>         0.1365
     41 H18         5.4138    7.8170   -7.8797 H         1 <0>         0.1379
     42 H19         5.2205    6.9854   -5.5715 H         1 <0>         0.1334
     43 H20        -0.4083    5.9978    0.0370 H         1 <0>         0.5014
@<TRIPOS>BOND
     1    1    9 2
     2    1    2 1
     3    1   24 1
     4    2    3 2
     5    2   25 1
     6    3    4 1
     7    3   26 1
     8    4    8 1
     9    4    5 1
    10    5    6 2
    11    5   27 1
    12    6    7 1
    13    6   10 1
    14    7    8 2
    15    7   43 1
    16    8    9 1
    17    9   28 1
    18   10   11 1
    19   10   29 1
    20   10   30 1
    21   11   16 1
    22   11   12 1
    23   12   13 1
    24   12   31 1
    25   12   32 1
    26   13   14 1
    27   13   33 1
    28   13   34 1
    29   14   15 1
    30   14   17 1
    31   15   16 1
    32   15   35 1
    33   15   36 1
    34   16   37 1
    35   16   38 1
    36   17   22 ar
    37   17   18 ar
    38   18   19 ar
    39   18   39 1
    40   19   20 ar
    41   19   40 1
    42   20   21 ar
    43   20   23 1
    44   21   22 ar
    45   21   41 1
    46   22   42 1
@<TRIPOS>MOLECULE
ZINC20534273
   42    45     0     0     0
SMALL
USER_CHARGES
2-[[4-(4-chlorophenyl)piperazin-1-yl]methyl]imidazo[1,2-a]pyridine
@<TRIPOS>ATOM
      1 C1         -1.2403    1.7584    0.0175 C.2       1 <0>        -0.1026
      2 C2         -0.0126    1.0758    0.0080 C.2       1 <0>        -0.1401
      3 C3          1.1486    1.7634    0.0006 C.2       1 <0>         0.0529
      4 N1          1.1482    3.1282    0.0074 N.pl3     1 <0>        -0.3610
      5 C4          2.1557    4.0542    0.0023 C.2       1 <0>        -0.0967
      6 C5          1.5760    5.2745    0.0141 C.2       1 <0>         0.0728
      7 N2          0.2503    5.1168    0.0262 N.2       1 <0>        -0.4736
      8 C6         -0.0339    3.8221    0.0225 C.2       1 <0>         0.2228
      9 C7         -1.2550    3.1185    0.0308 C.2       1 <0>        -0.0778
     10 C8          2.3045    6.5938    0.0137 C.3       1 <0>         0.1347
     11 N3          2.4215    7.0880   -1.3647 N.3       1 <0>        -0.5317
     12 C9          3.2888    6.2132   -2.1660 C.3       1 <0>         0.0530
     13 C10         3.3209    6.7162   -3.6112 C.3       1 <0>         0.0601
     14 N4          3.8100    8.1018   -3.6341 N.pl3     1 <0>        -0.4891
     15 C11         2.9427    8.9767   -2.8328 C.3       1 <0>         0.0500
     16 C12         2.9106    8.4736   -1.3876 C.3       1 <0>         0.0560
     17 C13         3.9214    8.5720   -4.9453 C.ar      1 <0>         0.1189
     18 C14         3.2491    9.7247   -5.3306 C.ar      1 <0>        -0.1590
     19 C15         3.3660   10.1906   -6.6255 C.ar      1 <0>        -0.0817
     20 C16         4.1420    9.5031   -7.5421 C.ar      1 <0>        -0.0618
     21 C17         4.8083    8.3512   -7.1625 C.ar      1 <0>        -0.0842
     22 C18         4.7000    7.8842   -5.8673 C.ar      1 <0>        -0.1294
     23 Cl1         4.2804   10.0872   -9.1710 Cl        1 <0>        -0.0730
     24 H1         -2.1682    1.2058    0.0189 H         1 <0>         0.1438
     25 H2          0.0021   -0.0041    0.0020 H         1 <0>         0.1517
     26 H3          2.0869    1.2287   -0.0113 H         1 <0>         0.1627
     27 H4          3.2158    3.8481   -0.0091 H         1 <0>         0.1794
     28 H5         -2.1929    3.6538    0.0422 H         1 <0>         0.1514
     29 H6          1.7441    7.3222    0.6181 H         1 <0>         0.0961
     30 H7          3.3089    6.4582    0.4411 H         1 <0>         0.0550
     31 H8          4.3069    6.2254   -1.7498 H         1 <0>         0.0464
     32 H9          2.8956    5.1861   -2.1429 H         1 <0>         0.0849
     33 H10         3.9921    6.0795   -4.2062 H         1 <0>         0.0874
     34 H11         2.3068    6.6772   -4.0356 H         1 <0>         0.0550
     35 H12         3.3361   10.0037   -2.8559 H         1 <0>         0.0908
     36 H13         1.9246    8.9646   -3.2490 H         1 <0>         0.0594
     37 H14         2.2391    9.1093   -0.7919 H         1 <0>         0.0896
     38 H15         3.9244    8.5117   -0.9625 H         1 <0>         0.0475
     39 H16         2.6392   10.2588   -4.6170 H         1 <0>         0.1369
     40 H17         2.8476   11.0897   -6.9242 H         1 <0>         0.1339
     41 H18         5.4138    7.8170   -7.8797 H         1 <0>         0.1350
     42 H19         5.2205    6.9854   -5.5715 H         1 <0>         0.1334
@<TRIPOS>BOND
     1    1    9 2
     2    1    2 1
     3    1   24 1
     4    2    3 2
     5    2   25 1
     6    3    4 1
     7    3   26 1
     8    4    8 1
     9    4    5 1
    10    5    6 2
    11    5   27 1
    12    6    7 1
    13    6   10 1
    14    7    8 2
    15    8    9 1
    16    9   28 1
    17   10   11 1
    18   10   29 1
    19   10   30 1
    20   11   16 1
    21   11   12 1
    22   12   13 1
    23   12   31 1
    24   12   32 1
    25   13   14 1
    26   13   33 1
    27   13   34 1
    28   14   15 1
    29   14   17 1
    30   15   16 1
    31   15   35 1
    32   15   36 1
    33   16   37 1
    34   16   38 1
    35   17   22 ar
    36   17   18 ar
    37   18   19 ar
    38   18   39 1
    39   19   20 ar
    40   19   40 1
    41   20   21 ar
    42   20   23 1
    43   21   22 ar
    44   21   41 1
    45   22   42 1
@<TRIPOS>MOLECULE
ZINC20668191
   47    50     0     0     0
SMALL
USER_CHARGES
2-[[4-(2-methoxyphenyl)piperazin-1-yl]methyl]imidazo[1,2-a]pyridine
@<TRIPOS>ATOM
      1 C1          5.0984   12.0164   -4.4692 C.3       1 <0>         0.0203
      2 O1          4.6646   10.6935   -4.1472 O.3       1 <0>        -0.3076
      3 C2          4.3516    9.8758   -5.1880 C.ar      1 <0>         0.1219
      4 C3          4.4601   10.3365   -6.4897 C.ar      1 <0>        -0.1888
      5 C4          4.1423    9.5037   -7.5469 C.ar      1 <0>        -0.0936
      6 C5          3.7159    8.2103   -7.3091 C.ar      1 <0>        -0.1339
      7 C6          3.6096    7.7413   -6.0132 C.ar      1 <0>        -0.1310
      8 C7          3.9215    8.5727   -4.9474 C.ar      1 <0>         0.0674
      9 N1          3.8100    8.1018   -3.6341 N.pl3     1 <0>        -0.4789
     10 C8          2.7458    8.8101   -2.9092 C.3       1 <0>         0.0585
     11 C9          2.7092    8.3235   -1.4586 C.3       1 <0>         0.0571
     12 N2          2.4809    6.8719   -1.4372 N.3       1 <0>        -0.5400
     13 C10         3.5451    6.1636   -2.1621 C.3       1 <0>         0.0493
     14 C11         3.5817    6.6502   -3.6127 C.3       1 <0>         0.0520
     15 C12         2.3638    6.3776   -0.0588 C.3       1 <0>         0.1013
     16 C13         1.8902    4.9471   -0.0766 C.2       1 <0>         0.1058
     17 C14         2.6823    3.8539   -0.0248 C.2       1 <0>        -0.0302
     18 N3          1.8629    2.7588   -0.0643 N.pl3     1 <0>        -0.3268
     19 C15         2.1130    1.4172   -0.0417 C.2       1 <0>         0.0833
     20 C16         1.0990    0.5282   -0.0940 C.2       1 <0>        -0.1140
     21 C17        -0.2306    0.9738   -0.1781 C.2       1 <0>        -0.0222
     22 C18        -0.4942    2.3081   -0.1951 C.2       1 <0>        -0.1229
     23 C19         0.5757    3.2239   -0.1403 C.cat     1 <0>         0.3145
     24 N4          0.6178    4.5488   -0.1463 N.pl3     1 <0>        -0.5120
     25 H1          5.3171   12.5664   -3.5420 H         1 <0>         0.1035
     26 H2          4.3053   12.5370   -5.0259 H         1 <0>         0.0566
     27 H3          6.0067   11.9641   -5.0875 H         1 <0>         0.0581
     28 H4          4.7932   11.3462   -6.6790 H         1 <0>         0.1331
     29 H5          4.2279    9.8647   -8.5613 H         1 <0>         0.1280
     30 H6          3.4692    7.5634   -8.1380 H         1 <0>         0.1262
     31 H7          3.2802    6.7292   -5.8303 H         1 <0>         0.1296
     32 H8          2.9457    9.8916   -2.9292 H         1 <0>         0.1008
     33 H9          1.7772    8.6073   -3.3895 H         1 <0>         0.0485
     34 H10         3.6683    8.5521   -0.9709 H         1 <0>         0.0587
     35 H11         1.8946    8.8317   -0.9218 H         1 <0>         0.0913
     36 H12         4.5137    6.3665   -1.6817 H         1 <0>         0.0578
     37 H13         3.3453    5.0821   -2.1421 H         1 <0>         0.0773
     38 H14         2.6227    6.4226   -4.1011 H         1 <0>         0.0523
     39 H15         4.3964    6.1429   -4.1502 H         1 <0>         0.0908
     40 H16         3.3451    6.4328    0.4351 H         1 <0>         0.0898
     41 H17         1.6405    6.9964    0.4925 H         1 <0>         0.1136
     42 H18         3.7606    3.8459    0.0364 H         1 <0>         0.2211
     43 H19         3.1317    1.0638    0.0184 H         1 <0>         0.1988
     44 H20         1.3109   -0.5306   -0.0756 H         1 <0>         0.1821
     45 H21        -1.0399    0.2602   -0.2243 H         1 <0>         0.1737
     46 H22        -1.5127    2.6622   -0.2555 H         1 <0>         0.1776
     47 H23        -0.1898    5.2939   -0.1969 H         1 <0>         0.5014
@<TRIPOS>BOND
     1    1    2 1
     2    1   25 1
     3    1   26 1
     4    1   27 1
     5    2    3 1
     6    3    8 ar
     7    3    4 ar
     8    4    5 ar
     9    4   28 1
    10    5    6 ar
    11    5   29 1
    12    6    7 ar
    13    6   30 1
    14    7    8 ar
    15    7   31 1
    16    8    9 1
    17    9   14 1
    18    9   10 1
    19   10   11 1
    20   10   32 1
    21   10   33 1
    22   11   12 1
    23   11   34 1
    24   11   35 1
    25   12   13 1
    26   12   15 1
    27   13   14 1
    28   13   36 1
    29   13   37 1
    30   14   38 1
    31   14   39 1
    32   15   16 1
    33   15   40 1
    34   15   41 1
    35   16   24 1
    36   16   17 2
    37   17   18 1
    38   17   42 1
    39   18   23 1
    40   18   19 1
    41   19   20 2
    42   19   43 1
    43   20   21 1
    44   20   44 1
    45   21   22 2
    46   21   45 1
    47   22   23 1
    48   22   46 1
    49   23   24 2
    50   24   47 1
@<TRIPOS>MOLECULE
ZINC14195406
   43    46     0     0     0
SMALL
USER_CHARGES
2-[[4-(3,4-dichlorophenyl)piperazin-1-yl]methyl]imidazo[1,2-a]pyridine
@<TRIPOS>ATOM
      1 C1         -1.2403    1.7584    0.0175 C.2       1 <0>        -0.0212
      2 C2         -0.0126    1.0758    0.0080 C.2       1 <0>        -0.1133
      3 C3          1.1486    1.7634    0.0006 C.2       1 <0>         0.0832
      4 N1          1.1482    3.1282    0.0074 N.pl3     1 <0>        -0.3270
      5 C4          2.1557    4.0542    0.0023 C.2       1 <0>        -0.0296
      6 C5          1.5760    5.2745    0.0141 C.2       1 <0>         0.1035
      7 N2          0.2503    5.1168    0.0262 N.pl3     1 <0>        -0.5122
      8 C6         -0.0339    3.8221    0.0225 C.cat     1 <0>         0.3154
      9 C7         -1.2550    3.1185    0.0308 C.2       1 <0>        -0.1233
     10 C8          2.3045    6.5938    0.0137 C.3       1 <0>         0.1023
     11 N3          2.4215    7.0880   -1.3647 N.3       1 <0>        -0.5404
     12 C9          3.2888    6.2132   -2.1660 C.3       1 <0>         0.0469
     13 C10         3.3209    6.7162   -3.6112 C.3       1 <0>         0.0566
     14 N4          3.8100    8.1018   -3.6341 N.pl3     1 <0>        -0.4862
     15 C11         2.9427    8.9767   -2.8328 C.3       1 <0>         0.0473
     16 C12         2.9106    8.4736   -1.3876 C.3       1 <0>         0.0549
     17 C13         3.9214    8.5720   -4.9453 C.ar      1 <0>         0.1228
     18 C14         3.2489    9.7250   -5.3305 C.ar      1 <0>        -0.1539
     19 C15         3.3653   10.1913   -6.6251 C.ar      1 <0>        -0.0686
     20 C16         4.1414    9.5049   -7.5423 C.ar      1 <0>        -0.0543
     21 C17         4.8081    8.3518   -7.1633 C.ar      1 <0>        -0.0056
     22 C18         4.6998    7.8843   -5.8669 C.ar      1 <0>        -0.1211
     23 Cl1         5.7809    7.4933   -8.3167 Cl        1 <0>        -0.0378
     24 Cl2         4.2801   10.0905   -9.1706 Cl        1 <0>        -0.0416
     25 H1         -2.1682    1.2058    0.0189 H         1 <0>         0.1741
     26 H2          0.0021   -0.0041    0.0020 H         1 <0>         0.1826
     27 H3          2.0869    1.2287   -0.0113 H         1 <0>         0.1991
     28 H4          3.2158    3.8481   -0.0091 H         1 <0>         0.2211
     29 H5         -2.1929    3.6538    0.0422 H         1 <0>         0.1779
     30 H6          1.7441    7.3222    0.6181 H         1 <0>         0.1148
     31 H7          3.3089    6.4582    0.4411 H         1 <0>         0.0907
     32 H8          4.3069    6.2254   -1.7498 H         1 <0>         0.0600
     33 H9          2.8956    5.1861   -2.1429 H         1 <0>         0.0809
     34 H10         3.9921    6.0795   -4.2062 H         1 <0>         0.0944
     35 H11         2.3068    6.6772   -4.0356 H         1 <0>         0.0565
     36 H12         3.3361   10.0037   -2.8559 H         1 <0>         0.0997
     37 H13         1.9246    8.9646   -3.2490 H         1 <0>         0.0616
     38 H14         2.2391    9.1093   -0.7919 H         1 <0>         0.0958
     39 H15         3.9244    8.5117   -0.9625 H         1 <0>         0.0598
     40 H16         2.6394   10.2590   -4.6166 H         1 <0>         0.1426
     41 H17         2.8464   11.0904   -6.9233 H         1 <0>         0.1465
     42 H18         5.2197    6.9850   -5.5713 H         1 <0>         0.1437
     43 H19        -0.4083    5.9978    0.0370 H         1 <0>         0.5013
@<TRIPOS>BOND
     1    1    9 2
     2    1    2 1
     3    1   25 1
     4    2    3 2
     5    2   26 1
     6    3    4 1
     7    3   27 1
     8    4    8 1
     9    4    5 1
    10    5    6 2
    11    5   28 1
    12    6    7 1
    13    6   10 1
    14    7    8 2
    15    7   43 1
    16    8    9 1
    17    9   29 1
    18   10   11 1
    19   10   30 1
    20   10   31 1
    21   11   16 1
    22   11   12 1
    23   12   13 1
    24   12   32 1
    25   12   33 1
    26   13   14 1
    27   13   34 1
    28   13   35 1
    29   14   15 1
    30   14   17 1
    31   15   16 1
    32   15   36 1
    33   15   37 1
    34   16   38 1
    35   16   39 1
    36   17   22 ar
    37   17   18 ar
    38   18   19 ar
    39   18   40 1
    40   19   20 ar
    41   19   41 1
    42   20   21 ar
    43   20   24 1
    44   21   22 ar
    45   21   23 1
    46   22   42 1
@<TRIPOS>MOLECULE
ZINC53151246
   50    53     0     0     0
SMALL
USER_CHARGES

@<TRIPOS>ATOM
      1 C1         -0.0173    1.4248    0.0099 C.3       1 <0>         0.0253
      2 O1          0.0021   -0.0041    0.0020 O.3       1 <0>        -0.3049
      3 C2          0.6063   -0.6076   -1.0566 C.ar      1 <0>         0.1177
      4 C3          1.1727    0.1584   -2.0619 C.ar      1 <0>        -0.2070
      5 C4          1.7862   -0.4565   -3.1379 C.ar      1 <0>        -0.0845
      6 C5          1.8369   -1.8361   -3.2138 C.ar      1 <0>        -0.1512
      7 C6          1.2745   -2.6077   -2.2144 C.ar      1 <0>        -0.0874
      8 C7          0.6620   -1.9977   -1.1294 C.ar      1 <0>         0.1398
      9 N1          0.0968   -2.7768   -0.1132 N.pl3     1 <0>        -0.6687
     10 C8         -1.3056   -3.2137   -0.1884 C.3       1 <0>         0.1540
     11 C9         -2.0009   -2.8467    1.1270 C.3       1 <0>         0.0424
     12 N2         -1.2370   -3.4016    2.2523 N.3       1 <0>        -0.5301
     13 C10         0.1078   -2.8148    2.3243 C.3       1 <0>         0.0425
     14 C11         0.8913   -3.1855    1.0551 C.3       1 <0>         0.1551
     15 C12        -1.9589   -3.2205    3.5188 C.3       1 <0>         0.1329
     16 C13        -1.2734   -4.0089    4.6049 C.2       1 <0>        -0.2129
     17 C14        -1.5427   -5.3371    4.9529 C.2       1 <0>         0.0787
     18 N3         -0.7483   -5.6718    5.9377 N.2       1 <0>        -0.2898
     19 N4          0.0534   -4.5660    6.2489 N.pl3     1 <0>        -0.3219
     20 C15        -0.2847   -3.5591    5.4119 C.2       1 <0>         0.0574
     21 C16         1.0357   -4.5141    7.2475 C.ar      1 <0>         0.1612
     22 C17         1.7565   -3.3456    7.4542 C.ar      1 <0>        -0.1434
     23 C18         2.7234   -3.2974    8.4393 C.ar      1 <0>        -0.0919
     24 C19         2.9739   -4.4114    9.2193 C.ar      1 <0>        -0.1300
     25 C20         2.2578   -5.5766    9.0158 C.ar      1 <0>        -0.0943
     26 C21         1.2859   -5.6293    8.0358 C.ar      1 <0>        -0.1203
     27 H1          1.0053    1.8021    0.0021 H         1 <0>         0.0534
     28 H2         -0.5445    1.7859   -0.8732 H         1 <0>         0.0539
     29 H3         -0.5275    1.7763    0.9067 H         1 <0>         0.0969
     30 H4          1.1348    1.2363   -2.0057 H         1 <0>         0.1265
     31 H5          2.2267    0.1425   -3.9212 H         1 <0>         0.1241
     32 H6          2.3168   -2.3119   -4.0562 H         1 <0>         0.1244
     33 H7          1.3151   -3.6852   -2.2764 H         1 <0>         0.1287
     34 H8         -1.8021   -2.7100   -1.0179 H         1 <0>         0.0684
     35 H9         -1.3456   -4.2930   -0.3350 H         1 <0>         0.0566
     36 H10        -2.0515   -1.7620    1.2213 H         1 <0>         0.0392
     37 H11        -3.0095   -3.2602    1.1329 H         1 <0>         0.0782
     38 H12         0.0278   -1.7305    2.4020 H         1 <0>         0.0379
     39 H13         0.6286   -3.2051    3.1987 H         1 <0>         0.0748
     40 H14         1.0584   -4.2622    1.0257 H         1 <0>         0.0554
     41 H15         1.8480   -2.6633    1.0481 H         1 <0>         0.0662
     42 H16        -1.9650   -2.1637    3.7857 H         1 <0>         0.0390
     43 H17        -2.9842   -3.5728    3.4062 H         1 <0>         0.0851
     44 H18        -2.2795   -5.9760    4.4889 H         1 <0>         0.1897
     45 H19         0.1539   -2.5723    5.3927 H         1 <0>         0.1720
     46 H20         1.5615   -2.4753    6.8452 H         1 <0>         0.1280
     47 H21         3.2846   -2.3888    8.6004 H         1 <0>         0.1330
     48 H22         3.7308   -4.3714    9.9887 H         1 <0>         0.1294
     49 H23         2.4559   -6.4452    9.6263 H         1 <0>         0.1328
     50 H24         0.7240   -6.5384    7.8800 H         1 <0>         0.1379
@<TRIPOS>BOND
     1    1    2 1
     2    1   27 1
     3    1   28 1
     4    1   29 1
     5    2    3 1
     6    3    8 ar
     7    3    4 ar
     8    4    5 ar
     9    4   30 1
    10    5    6 ar
    11    5   31 1
    12    6    7 ar
    13    6   32 1
    14    7    8 ar
    15    7   33 1
    16    8    9 1
    17    9   14 1
    18    9   10 1
    19   10   11 1
    20   10   34 1
    21   10   35 1
    22   11   12 1
    23   11   36 1
    24   11   37 1
    25   12   13 1
    26   12   15 1
    27   13   14 1
    28   13   38 1
    29   13   39 1
    30   14   40 1
    31   14   41 1
    32   15   16 1
    33   15   42 1
    34   15   43 1
    35   16   20 2
    36   16   17 1
    37   17   18 2
    38   17   44 1
    39   18   19 1
    40   19   20 1
    41   19   21 1
    42   20   45 1
    43   21   26 ar
    44   21   22 ar
    45   22   23 ar
    46   22   46 1
    47   23   24 ar
    48   23   47 1
    49   24   25 ar
    50   24   48 1
    51   25   26 ar
    52   25   49 1
    53   26   50 1
@<TRIPOS>MOLECULE
ZINC19873373
   43    46     0     0     0
SMALL
USER_CHARGES
2-[[4-(4-fluorophenyl)piperazin-1-yl]methyl]imidazo[1,2-a]pyridine
@<TRIPOS>ATOM
      1 C1         -1.2403    1.7584    0.0175 C.2       1 <0>        -0.0215
      2 C2         -0.0126    1.0758    0.0080 C.2       1 <0>        -0.1135
      3 C3          1.1486    1.7634    0.0006 C.2       1 <0>         0.0831
      4 N1          1.1482    3.1282    0.0074 N.pl3     1 <0>        -0.3270
      5 C4          2.1557    4.0542    0.0023 C.2       1 <0>        -0.0298
      6 C5          1.5760    5.2745    0.0141 C.2       1 <0>         0.1042
      7 N2          0.2503    5.1168    0.0262 N.pl3     1 <0>        -0.5121
      8 C6         -0.0339    3.8221    0.0225 C.cat     1 <0>         0.3152
      9 C7         -1.2550    3.1185    0.0308 C.2       1 <0>        -0.1231
     10 C8          2.3045    6.5938    0.0137 C.3       1 <0>         0.1020
     11 N3          2.4215    7.0880   -1.3647 N.3       1 <0>        -0.5403
     12 C9          3.2888    6.2132   -2.1660 C.3       1 <0>         0.0471
     13 C10         3.3209    6.7162   -3.6112 C.3       1 <0>         0.0573
     14 N4          3.8100    8.1018   -3.6341 N.pl3     1 <0>        -0.4869
     15 C11         2.9427    8.9767   -2.8328 C.3       1 <0>         0.0478
     16 C12         2.9106    8.4736   -1.3876 C.3       1 <0>         0.0551
     17 C13         3.9214    8.5722   -4.9460 C.ar      1 <0>         0.0928
     18 C14         3.2491    9.7248   -5.3310 C.ar      1 <0>        -0.1393
     19 C15         3.3645   10.1904   -6.6263 C.ar      1 <0>        -0.1257
     20 C16         4.1412    9.5030   -7.5435 C.ar      1 <0>         0.0804
     21 C17         4.8082    8.3507   -7.1633 C.ar      1 <0>        -0.1273
     22 C18         4.7000    7.8844   -5.8677 C.ar      1 <0>        -0.1087
     23 F1          4.2489    9.9575   -8.8112 F         1 <0>        -0.1369
     24 H1         -2.1682    1.2058    0.0189 H         1 <0>         0.1740
     25 H2          0.0021   -0.0041    0.0020 H         1 <0>         0.1825
     26 H3          2.0869    1.2287   -0.0113 H         1 <0>         0.1990
     27 H4          3.2158    3.8481   -0.0091 H         1 <0>         0.2211
     28 H5         -2.1929    3.6538    0.0422 H         1 <0>         0.1779
     29 H6          1.7441    7.3222    0.6181 H         1 <0>         0.1144
     30 H7          3.3089    6.4582    0.4411 H         1 <0>         0.0904
     31 H8          4.3069    6.2254   -1.7498 H         1 <0>         0.0591
     32 H9          2.8956    5.1861   -2.1429 H         1 <0>         0.0795
     33 H10         3.9921    6.0795   -4.2062 H         1 <0>         0.0932
     34 H11         2.3068    6.6772   -4.0356 H         1 <0>         0.0537
     35 H12         3.3361   10.0037   -2.8559 H         1 <0>         0.0980
     36 H13         1.9246    8.9646   -3.2490 H         1 <0>         0.0592
     37 H14         2.2391    9.1093   -0.7919 H         1 <0>         0.0944
     38 H15         3.9244    8.5117   -0.9625 H         1 <0>         0.0591
     39 H16         2.6398   10.2590   -4.6170 H         1 <0>         0.1367
     40 H17         2.8454   11.0891   -6.9249 H         1 <0>         0.1390
     41 H18         5.4139    7.8163   -7.8802 H         1 <0>         0.1404
     42 H19         5.2207    6.9858   -5.5715 H         1 <0>         0.1344
     43 H20        -0.4083    5.9978    0.0370 H         1 <0>         0.5014
@<TRIPOS>BOND
     1    1    9 2
     2    1    2 1
     3    1   24 1
     4    2    3 2
     5    2   25 1
     6    3    4 1
     7    3   26 1
     8    4    8 1
     9    4    5 1
    10    5    6 2
    11    5   27 1
    12    6    7 1
    13    6   10 1
    14    7    8 2
    15    7   43 1
    16    8    9 1
    17    9   28 1
    18   10   11 1
    19   10   29 1
    20   10   30 1
    21   11   16 1
    22   11   12 1
    23   12   13 1
    24   12   31 1
    25   12   32 1
    26   13   14 1
    27   13   33 1
    28   13   34 1
    29   14   15 1
    30   14   17 1
    31   15   16 1
    32   15   35 1
    33   15   36 1
    34   16   37 1
    35   16   38 1
    36   17   22 ar
    37   17   18 ar
    38   18   19 ar
    39   18   39 1
    40   19   20 ar
    41   19   40 1
    42   20   21 ar
    43   20   23 1
    44   21   22 ar
    45   21   41 1
    46   22   42 1
@<TRIPOS>MOLECULE
ZINC19873373
   44    47     0     0     0
SMALL
USER_CHARGES
2-[[4-(4-fluorophenyl)piperazin-1-yl]methyl]imidazo[1,2-a]pyridine
@<TRIPOS>ATOM
      1 C1         -1.2403    1.7584    0.0175 C.2       1 <0>         0.0045
      2 C2         -0.0126    1.0758    0.0080 C.2       1 <0>        -0.0993
      3 C3          1.1486    1.7634    0.0006 C.2       1 <0>         0.0865
      4 N1          1.1482    3.1282    0.0074 N.pl3     1 <0>        -0.3344
      5 C4          2.1557    4.0542    0.0023 C.2       1 <0>         0.0302
      6 C5          1.5760    5.2745    0.0141 C.2       1 <0>         0.0040
      7 N2          0.2503    5.1168    0.0262 N.pl3     1 <0>        -0.5252
      8 C6         -0.0339    3.8221    0.0225 C.cat     1 <0>         0.3405
      9 C7         -1.2550    3.1185    0.0308 C.2       1 <0>        -0.1308
     10 C8          2.3045    6.5938    0.0137 C.3       1 <0>         0.0686
     11 N3          2.4215    7.0880   -1.3647 N.4       1 <0>        -0.4068
     12 C9          3.2888    6.2132   -2.1660 C.3       1 <0>        -0.0076
     13 C10         3.3209    6.7162   -3.6112 C.3       1 <0>         0.0244
     14 N4          3.8100    8.1018   -3.6341 N.pl3     1 <0>        -0.4811
     15 C11         2.9427    8.9767   -2.8328 C.3       1 <0>         0.0165
     16 C12         2.9106    8.4736   -1.3876 C.3       1 <0>        -0.0005
     17 C13         3.9214    8.5722   -4.9460 C.ar      1 <0>         0.0648
     18 C14         3.2491    9.7248   -5.3310 C.ar      1 <0>        -0.1307
     19 C15         3.3645   10.1904   -6.6263 C.ar      1 <0>        -0.1264
     20 C16         4.1412    9.5030   -7.5435 C.ar      1 <0>         0.1046
     21 C17         4.8082    8.3507   -7.1633 C.ar      1 <0>        -0.1269
     22 C18         4.7000    7.8844   -5.8677 C.ar      1 <0>        -0.0961
     23 F1          4.2489    9.9575   -8.8112 F         1 <0>        -0.1267
     24 H1         -2.1682    1.2058    0.0189 H         1 <0>         0.1844
     25 H2          0.0021   -0.0041    0.0020 H         1 <0>         0.1932
     26 H3          2.0869    1.2287   -0.0113 H         1 <0>         0.2089
     27 H4          3.2158    3.8481   -0.0091 H         1 <0>         0.2325
     28 H5         -2.1929    3.6538    0.0422 H         1 <0>         0.1860
     29 H6          1.7441    7.3222    0.6181 H         1 <0>         0.1656
     30 H7          3.3089    6.4582    0.4411 H         1 <0>         0.1743
     31 H8          4.3069    6.2254   -1.7498 H         1 <0>         0.1499
     32 H9          2.8956    5.1861   -2.1429 H         1 <0>         0.1299
     33 H10         3.9921    6.0795   -4.2062 H         1 <0>         0.1342
     34 H11         2.3068    6.6772   -4.0356 H         1 <0>         0.0698
     35 H12         3.3361   10.0037   -2.8559 H         1 <0>         0.1397
     36 H13         1.9246    8.9646   -3.2490 H         1 <0>         0.0745
     37 H14         2.2391    9.1093   -0.7919 H         1 <0>         0.1483
     38 H15         3.9244    8.5117   -0.9625 H         1 <0>         0.1487
     39 H16         2.6398   10.2590   -4.6170 H         1 <0>         0.1367
     40 H17         2.8454   11.0891   -6.9249 H         1 <0>         0.1460
     41 H18         5.4139    7.8163   -7.8802 H         1 <0>         0.1480
     42 H19         5.2207    6.9858   -5.5715 H         1 <0>         0.1379
     43 H20        -0.4083    5.9978    0.0370 H         1 <0>         0.5025
     44 H21         1.4174    7.0746   -1.8137 H         1 <0>         0.4370
@<TRIPOS>BOND
     1    1    9 2
     2    1    2 1
     3    1   24 1
     4    2    3 2
     5    2   25 1
     6    3    4 1
     7    3   26 1
     8    4    8 1
     9    4    5 1
    10    5    6 2
    11    5   27 1
    12    6    7 1
    13    6   10 1
    14    7    8 2
    15    7   43 1
    16    8    9 1
    17    9   28 1
    18   10   11 1
    19   10   29 1
    20   10   30 1
    21   11   16 1
    22   11   12 1
    23   11   44 1
    24   12   13 1
    25   12   31 1
    26   12   32 1
    27   13   14 1
    28   13   33 1
    29   13   34 1
    30   14   15 1
    31   14   17 1
    32   15   16 1
    33   15   35 1
    34   15   36 1
    35   16   37 1
    36   16   38 1
    37   17   22 ar
    38   17   18 ar
    39   18   19 ar
    40   18   39 1
    41   19   20 ar
    42   19   40 1
    43   20   21 ar
    44   20   23 1
    45   21   22 ar
    46   21   41 1
    47   22   42 1
@<TRIPOS>MOLECULE
ZINC19873373
   42    45     0     0     0
SMALL
USER_CHARGES
2-[[4-(4-fluorophenyl)piperazin-1-yl]methyl]imidazo[1,2-a]pyridine
@<TRIPOS>ATOM
      1 C1         -1.2403    1.7584    0.0175 C.2       1 <0>        -0.1027
      2 C2         -0.0126    1.0758    0.0080 C.2       1 <0>        -0.1401
      3 C3          1.1486    1.7634    0.0006 C.2       1 <0>         0.0529
      4 N1          1.1482    3.1282    0.0074 N.pl3     1 <0>        -0.3610
      5 C4          2.1557    4.0542    0.0023 C.2       1 <0>        -0.0967
      6 C5          1.5760    5.2745    0.0141 C.2       1 <0>         0.0728
      7 N2          0.2503    5.1168    0.0262 N.2       1 <0>        -0.4736
      8 C6         -0.0339    3.8221    0.0225 C.2       1 <0>         0.2228
      9 C7         -1.2550    3.1185    0.0308 C.2       1 <0>        -0.0778
     10 C8          2.3045    6.5938    0.0137 C.3       1 <0>         0.1347
     11 N3          2.4215    7.0880   -1.3647 N.3       1 <0>        -0.5317
     12 C9          3.2888    6.2132   -2.1660 C.3       1 <0>         0.0531
     13 C10         3.3209    6.7162   -3.6112 C.3       1 <0>         0.0596
     14 N4          3.8100    8.1018   -3.6341 N.pl3     1 <0>        -0.4883
     15 C11         2.9427    8.9767   -2.8328 C.3       1 <0>         0.0498
     16 C12         2.9106    8.4736   -1.3876 C.3       1 <0>         0.0561
     17 C13         3.9214    8.5722   -4.9460 C.ar      1 <0>         0.1034
     18 C14         3.2491    9.7248   -5.3310 C.ar      1 <0>        -0.1421
     19 C15         3.3645   10.1904   -6.6263 C.ar      1 <0>        -0.1251
     20 C16         4.1412    9.5030   -7.5435 C.ar      1 <0>         0.0702
     21 C17         4.8082    8.3507   -7.1633 C.ar      1 <0>        -0.1273
     22 C18         4.7000    7.8844   -5.8677 C.ar      1 <0>        -0.1123
     23 F1          4.2489    9.9575   -8.8112 F         1 <0>        -0.1417
     24 H1         -2.1682    1.2058    0.0189 H         1 <0>         0.1437
     25 H2          0.0021   -0.0041    0.0020 H         1 <0>         0.1517
     26 H3          2.0869    1.2287   -0.0113 H         1 <0>         0.1627
     27 H4          3.2158    3.8481   -0.0091 H         1 <0>         0.1794
     28 H5         -2.1929    3.6538    0.0422 H         1 <0>         0.1514
     29 H6          1.7441    7.3222    0.6181 H         1 <0>         0.0961
     30 H7          3.3089    6.4582    0.4411 H         1 <0>         0.0550
     31 H8          4.3069    6.2254   -1.7498 H         1 <0>         0.0464
     32 H9          2.8956    5.1861   -2.1429 H         1 <0>         0.0846
     33 H10         3.9921    6.0795   -4.2062 H         1 <0>         0.0871
     34 H11         2.3068    6.6772   -4.0356 H         1 <0>         0.0546
     35 H12         3.3361   10.0037   -2.8559 H         1 <0>         0.0907
     36 H13         1.9246    8.9646   -3.2490 H         1 <0>         0.0590
     37 H14         2.2391    9.1093   -0.7919 H         1 <0>         0.0895
     38 H15         3.9244    8.5117   -0.9625 H         1 <0>         0.0475
     39 H16         2.6398   10.2590   -4.6170 H         1 <0>         0.1377
     40 H17         2.8454   11.0891   -6.9249 H         1 <0>         0.1361
     41 H18         5.4139    7.8163   -7.8802 H         1 <0>         0.1373
     42 H19         5.2207    6.9858   -5.5715 H         1 <0>         0.1343
@<TRIPOS>BOND
     1    1    9 2
     2    1    2 1
     3    1   24 1
     4    2    3 2
     5    2   25 1
     6    3    4 1
     7    3   26 1
     8    4    8 1
     9    4    5 1
    10    5    6 2
    11    5   27 1
    12    6    7 1
    13    6   10 1
    14    7    8 2
    15    8    9 1
    16    9   28 1
    17   10   11 1
    18   10   29 1
    19   10   30 1
    20   11   16 1
    21   11   12 1
    22   12   13 1
    23   12   31 1
    24   12   32 1
    25   13   14 1
    26   13   33 1
    27   13   34 1
    28   14   15 1
    29   14   17 1
    30   15   16 1
    31   15   35 1
    32   15   36 1
    33   16   37 1
    34   16   38 1
    35   17   22 ar
    36   17   18 ar
    37   18   19 ar
    38   18   39 1
    39   19   20 ar
    40   19   40 1
    41   20   21 ar
    42   20   23 1
    43   21   22 ar
    44   21   41 1
    45   22   42 1
@<TRIPOS>MOLECULE
ZINC00537822
   50    52     0     0     0
SMALL
USER_CHARGES

@<TRIPOS>ATOM
      1 C1         -0.0169    1.3952    0.0097 C.ar      1 <0>        -0.0260
      2 C2          1.1683    2.0970    0.0022 C.ar      1 <0>        -0.1650
      3 C3          2.3789    1.4198   -0.0130 C.ar      1 <0>         0.1439
      4 C4          2.4047    0.0329   -0.0212 C.ar      1 <0>        -0.1670
      5 C5          1.2267   -0.6810   -0.0142 C.ar      1 <0>        -0.0432
      6 C6          0.0021   -0.0041    0.0020 C.ar      1 <0>        -0.1967
      7 C7         -1.2591   -0.7596    0.0105 C.2       1 <0>         0.4038
      8 O1         -2.3189   -0.1702    0.0242 O.2       1 <0>        -0.4483
      9 C8         -1.2348   -2.2664    0.0022 C.3       1 <0>        -0.1653
     10 C9         -2.6689   -2.7996    0.0135 C.3       1 <0>        -0.1429
     11 C10        -2.6443   -4.3293    0.0051 C.3       1 <0>        -0.0092
     12 N1         -4.0211   -4.8413    0.0160 N.4       1 <0>        -0.3830
     13 C11        -4.6726   -4.4620    1.2755 C.3       1 <0>        -0.0093
     14 C12        -6.1318   -4.9225    1.2582 C.3       1 <0>        -0.1330
     15 C13        -6.1791   -6.4445    1.0954 C.3       1 <0>         0.1746
     16 C14        -5.4322   -6.8346   -0.1834 C.3       1 <0>        -0.1706
     17 C15        -3.9990   -6.3033   -0.1127 C.3       1 <0>        -0.0017
     18 C16        -7.6135   -6.8966    0.9991 C.ar      1 <0>        -0.1262
     19 C17        -8.5661   -6.0599    0.4482 C.ar      1 <0>        -0.1006
     20 C18        -9.8818   -6.4740    0.3596 C.ar      1 <0>        -0.1039
     21 C19       -10.2453   -7.7262    0.8224 C.ar      1 <0>        -0.0247
     22 C20        -9.2914   -8.5631    1.3735 C.ar      1 <0>        -0.1016
     23 C21        -7.9750   -8.1501    1.4564 C.ar      1 <0>        -0.0934
     24 Cl1       -11.8977   -8.2468    0.7119 Cl        1 <0>        -0.0500
     25 O2         -5.5554   -7.0652    2.2213 O.3       1 <0>        -0.5474
     26 F1          3.5378    2.1141   -0.0204 F         1 <0>        -0.1258
     27 H1         -0.9587    1.9236    0.0260 H         1 <0>         0.1459
     28 H2          1.1551    3.1769    0.0077 H         1 <0>         0.1477
     29 H3          3.3506   -0.4883   -0.0334 H         1 <0>         0.1469
     30 H4          1.2482   -1.7608   -0.0213 H         1 <0>         0.1412
     31 H5         -0.7241   -2.6166   -0.8948 H         1 <0>         0.1127
     32 H6         -0.7064   -2.6261    0.8850 H         1 <0>         0.1127
     33 H7         -3.1796   -2.4493    0.9105 H         1 <0>         0.0952
     34 H8         -3.1973   -2.4398   -0.8693 H         1 <0>         0.0947
     35 H9         -2.1335   -4.6796   -0.8919 H         1 <0>         0.1333
     36 H10        -2.1158   -4.6891    0.8880 H         1 <0>         0.1327
     37 H11        -4.1530   -4.9339    2.1093 H         1 <0>         0.1388
     38 H12        -4.6353   -3.3788    1.3915 H         1 <0>         0.1356
     39 H13        -6.6132   -4.6415    2.1949 H         1 <0>         0.1238
     40 H14        -6.6524   -4.4509    0.4248 H         1 <0>         0.1045
     41 H15        -5.4137   -7.9204   -0.2771 H         1 <0>         0.1175
     42 H16        -5.9384   -6.4027   -1.0467 H         1 <0>         0.1009
     43 H17        -3.4644   -6.5795   -1.0215 H         1 <0>         0.1329
     44 H18        -3.4937   -6.7360    0.7507 H         1 <0>         0.1354
     45 H19        -8.2824   -5.0823    0.0874 H         1 <0>         0.1334
     46 H20       -10.6260   -5.8201   -0.0704 H         1 <0>         0.1408
     47 H21        -9.5746   -9.5405    1.7352 H         1 <0>         0.1414
     48 H22        -7.2294   -8.8051    1.8823 H         1 <0>         0.1323
     49 H23        -5.5495   -8.0314    2.1846 H         1 <0>         0.3907
     50 H24        -4.5327   -4.4442   -0.7578 H         1 <0>         0.4215
@<TRIPOS>BOND
     1    1    6 ar
     2    1    2 ar
     3    1   27 1
     4    2    3 ar
     5    2   28 1
     6    3    4 ar
     7    3   26 1
     8    4    5 ar
     9    4   29 1
    10    5    6 ar
    11    5   30 1
    12    6    7 1
    13    7    8 2
    14    7    9 1
    15    9   10 1
    16    9   31 1
    17    9   32 1
    18   10   11 1
    19   10   33 1
    20   10   34 1
    21   11   12 1
    22   11   35 1
    23   11   36 1
    24   12   17 1
    25   12   13 1
    26   12   50 1
    27   13   14 1
    28   13   37 1
    29   13   38 1
    30   14   15 1
    31   14   39 1
    32   14   40 1
    33   15   16 1
    34   15   18 1
    35   15   25 1
    36   16   17 1
    37   16   41 1
    38   16   42 1
    39   17   43 1
    40   17   44 1
    41   18   23 ar
    42   18   19 ar
    43   19   20 ar
    44   19   45 1
    45   20   21 ar
    46   20   46 1
    47   21   22 ar
    48   21   24 1
    49   22   23 ar
    50   22   47 1
    51   23   48 1
    52   25   49 1
