@<TRIPOS>MOLECULE
ZINC29130869
   21    22     0     0     0
SMALL
USER_CHARGES

@<TRIPOS>ATOM
      1 C1         -0.0168    1.3851    0.0097 C.ar      1 <0>        -0.1114
      2 C2          1.1695    2.0923    0.0021 C.ar      1 <0>        -0.0557
      3 C3          2.3765    1.4166   -0.0142 C.ar      1 <0>        -0.0325
      4 C4          2.3977    0.0325   -0.0291 C.ar      1 <0>         0.0004
      5 C5          1.2119   -0.6819   -0.0241 C.ar      1 <0>        -0.1257
      6 C6          0.0021   -0.0041    0.0020 C.ar      1 <0>         0.1557
      7 N1         -1.2115   -0.7080    0.0366 N.pl3     1 <0>        -0.6439
      8 C7         -1.1703   -2.0782   -0.1764 C.cat     1 <0>         0.7629
      9 N2         -0.0513   -2.7297    0.3259 N.pl3     1 <0>        -0.7367
     10 C8          1.2613   -2.1888   -0.0559 C.3       1 <0>         0.1619
     11 N3         -2.1192   -2.7123   -0.8059 N.pl3     1 <0>        -0.7135
     12 Cl1         3.9156   -0.8096   -0.0547 Cl        1 <0>        -0.0101
     13 Cl2         3.8674    2.3060   -0.0167 Cl        1 <0>        -0.0128
     14 H1         -0.9593    1.9121    0.0260 H         1 <0>         0.1571
     15 H2          1.1549    3.1722    0.0086 H         1 <0>         0.1643
     16 H3         -2.0510   -0.2519    0.2042 H         1 <0>         0.4492
     17 H4          1.5138   -2.5230   -1.0622 H         1 <0>         0.1084
     18 H5          2.0175   -2.5425    0.6450 H         1 <0>         0.1321
     19 H6         -2.8871   -2.2251   -1.1432 H         1 <0>         0.4475
     20 H7         -0.1322   -3.5063    0.9014 H         1 <0>         0.4498
     21 H8         -2.0575   -3.6714   -0.9369 H         1 <0>         0.4529
@<TRIPOS>BOND
     1    1    6 ar
     2    1    2 ar
     3    1   14 1
     4    2    3 ar
     5    2   15 1
     6    3    4 ar
     7    3   13 1
     8    4    5 ar
     9    4   12 1
    10    5   10 1
    11    5    6 ar
    12    6    7 1
    13    7    8 1
    14    7   16 1
    15    8    9 1
    16    8   11 2
    17    9   10 1
    18    9   20 1
    19   10   17 1
    20   10   18 1
    21   11   19 1
    22   11   21 1
@<TRIPOS>MOLECULE
ZINC02539813
   29    30     0     0     0
SMALL
USER_CHARGES

@<TRIPOS>ATOM
      1 C1         -0.0169    1.3975    0.0097 C.ar      1 <0>        -0.0643
      2 C2          1.1463    2.1089    0.0024 C.ar      1 <0>        -0.1252
      3 C3          2.3728    1.4480   -0.0128 C.ar      1 <0>         0.1197
      4 C4          2.4053    0.0394   -0.0207 C.ar      1 <0>        -0.1125
      5 C5          1.2161   -0.6846   -0.0130 C.ar      1 <0>        -0.0121
      6 C6          0.0021   -0.0041    0.0020 C.ar      1 <0>        -0.1565
      7 C7         -1.2668   -0.7591    0.0106 C.2       1 <0>         0.5664
      8 O1         -1.2509   -1.9747    0.0039 O.2       1 <0>        -0.5461
      9 N1         -2.4427   -0.1006    0.0258 N.am      1 <0>        -0.8483
     10 C8          3.8230   -0.3326   -0.0371 C.2       1 <0>        -0.1957
     11 C9          4.5266    0.8101   -0.0381 C.2       1 <0>         0.0855
     12 N2          3.6763    1.8825   -0.0237 N.pl3     1 <0>        -0.5837
     13 H1          3.9530    2.8122   -0.0215 H         1 <0>         0.4262
     14 C10         4.3836   -1.7314   -0.0499 C.3       1 <0>        -0.0648
     15 C11         4.4419   -2.2443   -1.4902 C.3       1 <0>        -0.0085
     16 N3          4.9884   -3.6078   -1.5026 N.4       1 <0>        -0.6386
     17 H2         -0.9624    1.9192    0.0261 H         1 <0>         0.1348
     18 H3          1.1168    3.1884    0.0082 H         1 <0>         0.1333
     19 H4          1.2355   -1.7645   -0.0193 H         1 <0>         0.1349
     20 H5         -2.4554    0.8693    0.0312 H         1 <0>         0.4024
     21 H6         -3.2762   -0.5966    0.0315 H         1 <0>         0.4094
     22 H7          5.6046    0.8742   -0.0483 H         1 <0>         0.1771
     23 H8          5.3877   -1.7243    0.3742 H         1 <0>         0.0945
     24 H9          3.7434   -2.3848    0.5429 H         1 <0>         0.0952
     25 H10         3.4379   -2.2514   -1.9143 H         1 <0>         0.1343
     26 H11         5.0821   -1.5909   -2.0829 H         1 <0>         0.1335
     27 H12         5.9178   -3.6013   -1.1100 H         1 <0>         0.4344
     28 H13         4.3958   -4.2127   -0.9539 H         1 <0>         0.4362
     29 H14         5.0268   -3.9461   -2.4524 H         1 <0>         0.4385
@<TRIPOS>BOND
     1    1    6 ar
     2    1    2 ar
     3    1   17 1
     4    2    3 ar
     5    2   18 1
     6    3   12 1
     7    3    4 ar
     8    4    5 ar
     9    4   10 1
    10    5    6 ar
    11    5   19 1
    12    6    7 1
    13    7    8 2
    14    7    9 am
    15    9   20 1
    16    9   21 1
    17   10   11 2
    18   10   14 1
    19   11   12 1
    20   11   22 1
    21   12   13 1
    22   14   15 1
    23   14   23 1
    24   14   24 1
    25   15   16 1
    26   15   25 1
    27   15   26 1
    28   16   27 1
    29   16   28 1
    30   16   29 1
@<TRIPOS>MOLECULE
ZINC03825965
   61    64     0     0     0
SMALL
USER_CHARGES
2-[4-[4-(7-methoxy-1-naphthyl)piperazin-1-yl]butyl]-4-methyl-1,2,4-triazine-3,5-dione
@<TRIPOS>ATOM
      1 C1         -2.0231    1.8137    0.6582 C.3       1 <0>         0.0742
      2 N1         -0.7874    2.5524    0.3867 N.am      1 <0>        -0.5564
      3 C2         -0.8326    3.8813    0.1583 C.2       1 <0>         0.5084
      4 O1         -1.8956    4.4738    0.1762 O.2       1 <0>        -0.4669
      5 C3          0.4140    4.6017   -0.1163 C.2       1 <0>         0.0634
      6 N2          1.5380    3.9407   -0.1287 N.2       1 <0>        -0.1777
      7 N3          1.5393    2.5628    0.1185 N.am      1 <0>        -0.4527
      8 C4          0.3932    1.9057    0.3704 C.2       1 <0>         0.6789
      9 O2          0.4233    0.7087    0.5818 O.2       1 <0>        -0.5327
     10 C5          2.8060    1.8269    0.1029 C.3       1 <0>         0.1443
     11 C6          3.0823    1.3171   -1.3129 C.3       1 <0>        -0.1367
     12 C7          4.4051    0.5485   -1.3292 C.3       1 <0>        -0.1456
     13 C8          4.6814    0.0387   -2.7450 C.3       1 <0>        -0.0029
     14 C9          7.0843    0.1963   -2.4877 C.3       1 <0>        -0.0008
     15 C10         8.3766   -0.6219   -2.4340 C.3       1 <0>         0.0217
     16 N4          8.5611   -1.3257   -3.7108 N.pl3     1 <0>        -0.4829
     17 C11         7.4284   -2.2213   -3.9837 C.3       1 <0>         0.0173
     18 C12         6.1361   -1.4030   -4.0374 C.3       1 <0>         0.0026
     19 C13         9.7664   -2.0260   -3.7256 C.ar      1 <0>         0.0812
     20 C14        10.4947   -2.1813   -2.5657 C.ar      1 <0>        -0.1408
     21 C15        11.6964   -2.8835   -2.5687 C.ar      1 <0>        -0.1158
     22 C16        12.1912   -3.4252   -3.7158 C.ar      1 <0>        -0.0881
     23 C17        11.4824   -3.2847   -4.9213 C.ar      1 <0>        -0.0708
     24 C18        10.2549   -2.5774   -4.9297 C.ar      1 <0>        -0.0049
     25 C19         9.5469   -2.4379   -6.1332 C.ar      1 <0>        -0.1649
     26 C20        10.0499   -2.9838   -7.2801 C.ar      1 <0>         0.1412
     27 C21        11.2610   -3.6818   -7.2702 C.ar      1 <0>        -0.1852
     28 C22        11.9704   -3.8345   -6.1198 C.ar      1 <0>        -0.0583
     29 O3          9.3633   -2.8476   -8.4452 O.3       1 <0>        -0.3171
     30 C23         9.9390   -3.4413   -9.6106 C.3       1 <0>         0.0231
     31 H1         -2.2167    1.8112    1.7308 H         1 <0>         0.0809
     32 H2         -2.8540    2.2926    0.1401 H         1 <0>         0.0986
     33 H3         -1.9180    0.7877    0.3055 H         1 <0>         0.0965
     34 H4          0.4017    5.6648   -0.3060 H         1 <0>         0.2278
     35 H5          3.6143    2.4882    0.4152 H         1 <0>         0.1043
     36 H6          2.7433    0.9812    0.7878 H         1 <0>         0.1061
     37 H7          2.2740    0.6558   -1.6252 H         1 <0>         0.0811
     38 H8          3.1449    2.1627   -1.9978 H         1 <0>         0.0840
     39 H9          5.2134    1.2098   -1.0169 H         1 <0>         0.0927
     40 H10         4.3425   -0.2971   -0.6443 H         1 <0>         0.0923
     41 H11         3.8731   -0.6226   -3.0573 H         1 <0>         0.1313
     42 H12         4.7441    0.8843   -3.4299 H         1 <0>         0.1342
     43 H13         7.1581    0.9411   -3.2801 H         1 <0>         0.1413
     44 H14         6.9304    0.6962   -1.5314 H         1 <0>         0.1384
     45 H15         8.3135   -1.3486   -1.6240 H         1 <0>         0.0709
     46 H16         9.2218    0.0441   -2.2604 H         1 <0>         0.1291
     47 H17         7.3545   -2.9661   -3.1914 H         1 <0>         0.0693
     48 H18         7.5822   -2.7212   -4.9400 H         1 <0>         0.1333
     49 H19         5.2909   -2.0691   -4.2110 H         1 <0>         0.1378
     50 H20         6.1987   -0.6764   -4.8475 H         1 <0>         0.1413
     51 H21        10.1265   -1.7571   -1.6432 H         1 <0>         0.1270
     52 H22        12.2479   -2.9965   -1.6471 H         1 <0>         0.1296
     53 H23        13.1276   -3.9630   -3.6992 H         1 <0>         0.1330
     54 H24         8.6099   -1.9012   -6.1528 H         1 <0>         0.1365
     55 H25        11.6388   -4.1055   -8.1890 H         1 <0>         0.1364
     56 H26        12.9046   -4.3763   -6.1269 H         1 <0>         0.1387
     57 H27         9.2919   -3.2592  -10.4686 H         1 <0>         0.1058
     58 H28        10.9195   -3.0024   -9.7954 H         1 <0>         0.0600
     59 H29        10.0448   -4.5152   -9.4568 H         1 <0>         0.0595
     60 N5          5.9513   -0.7185   -2.7404 N.4       1 <0>        -0.3980
     61 H30         5.9174   -1.4221   -1.9934 H         1 <0>         0.4253
@<TRIPOS>BOND
     1    1    2 1
     2    1   31 1
     3    1   32 1
     4    1   33 1
     5    2    8 am
     6    2    3 am
     7    3    4 2
     8    3    5 1
     9    5    6 2
    10    5   34 1
    11    6    7 1
    12    7    8 am
    13    7   10 1
    14    8    9 2
    15   10   11 1
    16   10   35 1
    17   10   36 1
    18   11   12 1
    19   11   37 1
    20   11   38 1
    21   12   13 1
    22   12   39 1
    23   12   40 1
    24   13   41 1
    25   13   42 1
    26   13   60 1
    27   14   15 1
    28   14   43 1
    29   14   44 1
    30   14   60 1
    31   15   16 1
    32   15   45 1
    33   15   46 1
    34   16   17 1
    35   16   19 1
    36   17   18 1
    37   17   47 1
    38   17   48 1
    39   18   49 1
    40   18   50 1
    41   18   60 1
    42   19   24 ar
    43   19   20 ar
    44   20   21 ar
    45   20   51 1
    46   21   22 ar
    47   21   52 1
    48   22   23 ar
    49   22   53 1
    50   23   28 ar
    51   23   24 ar
    52   24   25 ar
    53   25   26 ar
    54   25   54 1
    55   26   27 ar
    56   26   29 1
    57   27   28 ar
    58   27   55 1
    59   28   56 1
    60   29   30 1
    61   30   57 1
    62   30   58 1
    63   30   59 1
    64   60   61 1
@<TRIPOS>MOLECULE
ZINC28759893
   34    36     0     0     0
SMALL
USER_CHARGES
8-piperazin-1-ylnaphthalen-2-ol
@<TRIPOS>ATOM
      1 C1          2.3966    0.0295   -0.0633 C.ar      1 <0>        -0.1196
      2 C2          1.2348   -0.6788   -0.0144 C.ar      1 <0>        -0.0856
      3 C3          0.0033   -0.0043    0.0453 C.ar      1 <0>        -0.0751
      4 C4         -1.2111   -0.7113    0.0971 C.ar      1 <0>        -0.0591
      5 C5         -2.3867   -0.0297    0.1548 C.ar      1 <0>        -0.1378
      6 C6         -2.4070    1.3681    0.1629 C.ar      1 <0>         0.1774
      7 C7         -1.2453    2.0856    0.1198 C.ar      1 <0>        -0.2327
      8 C8         -0.0159    1.4123    0.0540 C.ar      1 <0>        -0.0026
      9 C9          1.2040    2.1205    0.0020 C.ar      1 <0>         0.0737
     10 C10         2.3906    1.4213   -0.0554 C.ar      1 <0>        -0.1402
     11 N1          1.2088    3.5145    0.0090 N.pl3     1 <0>        -0.4829
     12 C11         2.5683    4.0355    0.2093 C.3       1 <0>         0.0176
     13 C12         2.5195    5.5631    0.2903 C.3       1 <0>         0.0028
     14 N2          1.9303    6.0980   -0.9452 N.4       1 <0>        -0.5383
     15 C13         0.5709    5.5770   -1.1455 C.3       1 <0>         0.0001
     16 C14         0.6197    4.0494   -1.2265 C.3       1 <0>         0.0135
     17 O1         -3.5975    2.0215    0.2212 O.3       1 <0>        -0.5040
     18 H1          3.3383   -0.4973   -0.1094 H         1 <0>         0.1292
     19 H2          1.2597   -1.7585   -0.0211 H         1 <0>         0.1335
     20 H3         -1.2103   -1.7912    0.0915 H         1 <0>         0.1424
     21 H4         -3.3175   -0.5760    0.1945 H         1 <0>         0.1373
     22 H5         -1.2733    3.1652    0.1275 H         1 <0>         0.1313
     23 H6          3.3261    1.9595   -0.0950 H         1 <0>         0.1254
     24 H7          2.9819    3.6308    1.1448 H         1 <0>         0.1278
     25 H8          3.2053    3.7322   -0.6347 H         1 <0>         0.0706
     26 H9          1.9052    5.8652    1.1513 H         1 <0>         0.1373
     27 H10         3.5395    5.9566    0.4116 H         1 <0>         0.1413
     28 H11         1.8832    7.1953   -0.8838 H         1 <0>         0.4582
     29 H12        -0.0660    5.8802   -0.3015 H         1 <0>         0.1363
     30 H13         0.1572    5.9817   -2.0809 H         1 <0>         0.1410
     31 H14         1.2344    3.7463   -2.0869 H         1 <0>         0.0683
     32 H15        -0.4000    3.6549   -1.3473 H         1 <0>         0.1300
     33 H16        -3.6216    3.1212    0.2279 H         1 <0>         0.4342
     34 H17         2.5516    5.8052   -1.8044 H         1 <0>         0.4487
@<TRIPOS>BOND
     1    1   10 ar
     2    1    2 ar
     3    1   18 1
     4    2    3 ar
     5    2   19 1
     6    3    8 ar
     7    3    4 ar
     8    4    5 ar
     9    4   20 1
    10    5    6 ar
    11    5   21 1
    12    6    7 ar
    13    6   17 1
    14    7    8 ar
    15    7   22 1
    16    8    9 ar
    17    9   10 ar
    18    9   11 1
    19   10   23 1
    20   11   16 1
    21   11   12 1
    22   12   13 1
    23   12   24 1
    24   12   25 1
    25   13   14 1
    26   13   26 1
    27   13   27 1
    28   14   15 1
    29   14   28 1
    30   14   34 1
    31   15   16 1
    32   15   29 1
    33   15   30 1
    34   16   31 1
    35   16   32 1
    36   17   33 1
@<TRIPOS>MOLECULE
ZINC71754993
   49    52     0     0     0
SMALL
USER_CHARGES

@<TRIPOS>ATOM
      1 C1          2.6170   -2.6358   -1.1889 C.3       1 <0>        -0.1671
      2 C2          2.2134   -1.1611   -1.2456 C.3       1 <0>         0.1069
      3 N1          0.7528   -1.0529   -1.2130 N.am      1 <0>        -0.6114
      4 C3          0.0461   -1.0616    0.0703 C.3       1 <0>         0.0994
      5 C4         -0.0614    0.3687    0.6029 C.3       1 <0>        -0.1765
      6 C5          0.0592   -0.9454   -2.3636 C.2       1 <0>         0.5267
      7 O1          0.6474   -0.8703   -3.4215 O.2       1 <0>        -0.5333
      8 C6         -1.4473   -0.9186   -2.3355 C.3       1 <0>        -0.0725
      9 H1         -1.8080   -1.4645   -1.4638 H         1 <0>         0.1146
     10 C7         -1.9990   -1.5624   -3.6126 C.3       1 <0>         0.0770
     11 N2         -3.4593   -1.4331   -3.6037 N.3       1 <0>        -0.5484
     12 C8         -3.9081   -0.0485   -3.6742 C.3       1 <0>         0.1385
     13 H2         -3.8294    0.2578   -4.7173 H         1 <0>         0.0457
     14 C9         -5.3934    0.0321   -3.2953 C.3       1 <0>        -0.0232
     15 C10        -5.8207    1.4760   -3.2538 C.2       1 <0>        -0.1681
     16 C11        -6.9734    2.1212   -3.3973 C.2       1 <0>         0.0572
     17 N3         -6.7828    3.4861   -3.2468 N.pl3     1 <0>        -0.5952
     18 H3         -7.4843    4.1531   -3.3095 H         1 <0>         0.4163
     19 C12        -5.4715    3.7584   -2.9981 C.ar      1 <0>         0.1107
     20 C13        -4.8308    2.5163   -3.0000 C.ar      1 <0>        -0.1310
     21 C14        -3.4506    2.3050   -2.7990 C.ar      1 <0>        -0.0034
     22 C15        -2.7031    3.4367   -2.5663 C.ar      1 <0>        -0.1283
     23 C16        -3.3241    4.6838   -2.5516 C.ar      1 <0>        -0.0962
     24 C17        -4.6837    4.8842   -2.7614 C.ar      1 <0>        -0.1216
     25 C18        -3.0445    0.8889   -2.8726 C.2       1 <0>        -0.0548
     26 C19        -1.9279    0.5065   -2.2758 C.2       1 <0>        -0.1279
     27 C20        -4.0657   -2.2382   -4.6723 C.3       1 <0>         0.0274
     28 H4          2.2786   -3.0692   -0.2477 H         1 <0>         0.0559
     29 H5          2.1583   -3.1703   -2.0208 H         1 <0>         0.0579
     30 H6          3.7017   -2.7185   -1.2577 H         1 <0>         0.0673
     31 H7          2.6359   -0.6355   -0.3892 H         1 <0>         0.0755
     32 H8          2.5902   -0.7164   -2.1667 H         1 <0>         0.0872
     33 H9         -0.9534   -1.4738   -0.0682 H         1 <0>         0.0851
     34 H10         0.5964   -1.6747    0.7839 H         1 <0>         0.0811
     35 H11        -0.5106    0.3537    1.5960 H         1 <0>         0.0701
     36 H12         0.9333    0.8106    0.6607 H         1 <0>         0.0594
     37 H13        -0.6835    0.9606   -0.0684 H         1 <0>         0.0612
     38 H14        -1.5914   -1.0526   -4.4855 H         1 <0>         0.0533
     39 H15        -1.7248   -2.6170   -3.6391 H         1 <0>         0.0845
     40 H16        -5.9874   -0.5018   -4.0371 H         1 <0>         0.0765
     41 H17        -5.5435   -0.4200   -2.3149 H         1 <0>         0.0843
     42 H18        -7.9232    1.6497   -3.6022 H         1 <0>         0.1695
     43 H19        -1.6396    3.3585   -2.3953 H         1 <0>         0.1220
     44 H20        -2.7091    5.5517   -2.3648 H         1 <0>         0.1224
     45 H21        -5.1135    5.8748   -2.7421 H         1 <0>         0.1285
     46 H22        -1.3518    1.2331   -1.7222 H         1 <0>         0.1200
     47 H23        -3.7498   -3.2763   -4.5689 H         1 <0>         0.0734
     48 H24        -5.1517   -2.1799   -4.5994 H         1 <0>         0.0744
     49 H25        -3.7455   -1.8558   -5.6415 H         1 <0>         0.0291
@<TRIPOS>BOND
     1    1    2 1
     2    1   28 1
     3    1   29 1
     4    1   30 1
     5    2    3 1
     6    2   31 1
     7    2   32 1
     8    3    4 1
     9    3    6 am
    10    4    5 1
    11    4   33 1
    12    4   34 1
    13    5   35 1
    14    5   36 1
    15    5   37 1
    16    6    7 2
    17    6    8 1
    18    8    9 1
    19    8   26 1
    20    8   10 1
    21   10   11 1
    22   10   38 1
    23   10   39 1
    24   11   12 1
    25   11   27 1
    26   12   13 1
    27   12   25 1
    28   12   14 1
    29   14   15 1
    30   14   40 1
    31   14   41 1
    32   15   20 1
    33   15   16 2
    34   16   17 1
    35   16   42 1
    36   17   18 1
    37   17   19 1
    38   19   24 ar
    39   19   20 ar
    40   20   21 ar
    41   21   22 ar
    42   21   25 1
    43   22   23 ar
    44   22   43 1
    45   23   24 ar
    46   23   44 1
    47   24   45 1
    48   25   26 2
    49   26   46 1
    50   27   47 1
    51   27   48 1
    52   27   49 1
@<TRIPOS>MOLECULE
ZINC71754993
   50    53     0     0     0
SMALL
USER_CHARGES

@<TRIPOS>ATOM
      1 C1         -4.4131    1.6542    2.7709 C.3       1 <0>        -0.1692
      2 C2         -3.1002    1.6745    1.9857 C.3       1 <0>         0.1077
      3 N1         -3.2120    0.7884    0.8243 N.am      1 <0>        -0.6044
      4 C3         -3.6997    1.3136   -0.4534 C.3       1 <0>         0.0980
      5 C4         -2.5178    1.8262   -1.2787 C.3       1 <0>        -0.1810
      6 C5         -2.8661   -0.5098    0.9314 C.2       1 <0>         0.5240
      7 O1         -2.5501   -0.9662    2.0097 O.2       1 <0>        -0.5069
      8 C6         -2.8722   -1.3943   -0.2887 C.3       1 <0>        -0.1042
      9 H1         -2.7358   -0.7873   -1.1837 H         1 <0>         0.1306
     10 C7         -4.2036   -2.1497   -0.3737 C.3       1 <0>         0.0021
     11 N2         -4.1503   -3.0574   -1.5221 N.4       1 <0>        -0.3772
     12 C8         -3.1649   -4.1132   -1.3324 C.3       1 <0>         0.0727
     13 H2         -3.6138   -4.8485   -0.6647 H         1 <0>         0.1401
     14 C9         -2.9105   -4.8224   -2.6700 C.3       1 <0>        -0.0390
     15 C10        -1.8064   -5.8325   -2.5003 C.2       1 <0>        -0.2014
     16 C11        -1.4541   -6.9552   -3.1179 C.2       1 <0>         0.0960
     17 N3         -0.3151   -7.4883   -2.5346 N.pl3     1 <0>        -0.5871
     18 H3          0.1234   -8.3046   -2.8215 H         1 <0>         0.4245
     19 C12         0.1019   -6.7038   -1.5020 C.ar      1 <0>         0.1104
     20 C13        -0.8165   -5.6518   -1.4449 C.ar      1 <0>        -0.1254
     21 C14        -0.7954   -4.5939   -0.5123 C.ar      1 <0>        -0.0281
     22 C15         0.2416   -4.6193    0.3924 C.ar      1 <0>        -0.0998
     23 C16         1.1732   -5.6542    0.3464 C.ar      1 <0>        -0.0987
     24 C17         1.1382   -6.6995   -0.5693 C.ar      1 <0>        -0.0978
     25 C18        -1.9016   -3.6317   -0.6709 C.2       1 <0>        -0.0695
     26 C19        -1.7626   -2.4072   -0.1876 C.2       1 <0>        -0.1111
     27 C20        -5.4735   -3.6664   -1.7125 C.3       1 <0>        -0.0520
     28 H4         -4.3299    2.3134    3.6350 H         1 <0>         0.0742
     29 H5         -5.2253    1.9965    2.1296 H         1 <0>         0.0570
     30 H6         -4.6195    0.6382    3.1076 H         1 <0>         0.0594
     31 H7         -2.8938    2.6904    1.6490 H         1 <0>         0.0854
     32 H8         -2.2879    1.3322    2.6269 H         1 <0>         0.0886
     33 H9         -4.2089    0.5208   -1.0014 H         1 <0>         0.0700
     34 H10        -4.3955    2.1319   -0.2680 H         1 <0>         0.0939
     35 H11        -2.8686    2.1332   -2.2639 H         1 <0>         0.0759
     36 H12        -2.0638    2.6783   -0.7728 H         1 <0>         0.0695
     37 H13        -1.7789    1.0322   -1.3872 H         1 <0>         0.0580
     38 H14        -4.3580   -2.7236    0.5400 H         1 <0>         0.1434
     39 H15        -5.0199   -1.4395   -0.5058 H         1 <0>         0.1437
     40 H16        -3.8204   -5.3293   -2.9914 H         1 <0>         0.0997
     41 H17        -2.6190   -4.0881   -3.4210 H         1 <0>         0.0934
     42 H18        -1.9802   -7.3903   -3.9547 H         1 <0>         0.1758
     43 H19         0.3329   -3.8400    1.1346 H         1 <0>         0.1302
     44 H20         1.9754   -5.6435    1.0695 H         1 <0>         0.1317
     45 H21         1.8852   -7.4794   -0.5582 H         1 <0>         0.1373
     46 H22        -0.8304   -2.1256    0.2794 H         1 <0>         0.1476
     47 H23        -6.2103   -2.8845   -1.8961 H         1 <0>         0.1309
     48 H24        -5.4422   -4.3438   -2.5658 H         1 <0>         0.1309
     49 H25        -5.7497   -4.2228   -0.8168 H         1 <0>         0.1266
     50 H26        -3.9112   -2.5291   -2.3478 H         1 <0>         0.4234
@<TRIPOS>BOND
     1    1    2 1
     2    1   28 1
     3    1   29 1
     4    1   30 1
     5    2    3 1
     6    2   31 1
     7    2   32 1
     8    3    4 1
     9    3    6 am
    10    4    5 1
    11    4   33 1
    12    4   34 1
    13    5   35 1
    14    5   36 1
    15    5   37 1
    16    6    7 2
    17    6    8 1
    18    8    9 1
    19    8   26 1
    20    8   10 1
    21   10   11 1
    22   10   38 1
    23   10   39 1
    24   11   12 1
    25   11   27 1
    26   11   50 1
    27   12   13 1
    28   12   25 1
    29   12   14 1
    30   14   15 1
    31   14   40 1
    32   14   41 1
    33   15   20 1
    34   15   16 2
    35   16   17 1
    36   16   42 1
    37   17   18 1
    38   17   19 1
    39   19   24 ar
    40   19   20 ar
    41   20   21 ar
    42   21   22 ar
    43   21   25 1
    44   22   23 ar
    45   22   43 1
    46   23   24 ar
    47   23   44 1
    48   24   45 1
    49   25   26 2
    50   26   46 1
    51   27   47 1
    52   27   48 1
    53   27   49 1
@<TRIPOS>MOLECULE
ZINC13805803
   41    42     0     0     0
SMALL
USER_CHARGES
2-(2-ethyl-5-methoxy-1H-indol-3-yl)-N,N-dimethyl-ethanamine
@<TRIPOS>ATOM
      1 C1         -0.5324   -2.0518   -2.9154 C.3       1 <0>        -0.1494
      2 C2         -1.8562   -2.3550   -2.2107 C.3       1 <0>        -0.0751
      3 C3         -1.5806   -2.8367   -0.8096 C.2       1 <0>         0.1256
      4 C4         -1.3886   -2.0415    0.2549 C.2       1 <0>        -0.2066
      5 C5         -1.1617   -2.9160    1.4080 C.ar      1 <0>        -0.0554
      6 C6         -0.9137   -2.6879    2.7635 C.ar      1 <0>        -0.1287
      7 C7         -0.7404   -3.7604    3.6150 C.ar      1 <0>         0.1168
      8 C8         -0.8120   -5.0628    3.1270 C.ar      1 <0>        -0.1757
      9 C9         -1.0559   -5.2994    1.7928 C.ar      1 <0>        -0.0790
     10 C10        -1.2334   -4.2323    0.9184 C.ar      1 <0>         0.0635
     11 N1         -1.4859   -4.1489   -0.4347 N.pl3     1 <0>        -0.5834
     12 H1         -1.5852   -4.9075   -1.0310 H         1 <0>         0.4205
     13 O1         -0.4983   -3.5443    4.9356 O.3       1 <0>        -0.3182
     14 C11        -0.3286   -4.6982    5.7613 C.3       1 <0>         0.0253
     15 C12        -1.4090   -0.5347    0.2631 C.3       1 <0>        -0.0590
     16 C13         0.0021   -0.0041    0.0020 C.3       1 <0>        -0.0102
     17 C14         1.3463    2.0098   -0.0000 C.3       1 <0>        -0.0426
     18 C15        -0.8017    1.9868   -1.1173 C.3       1 <0>        -0.0479
     19 H2          0.0737   -2.9568   -2.9550 H         1 <0>         0.0624
     20 H3         -0.7318   -1.7034   -3.9288 H         1 <0>         0.0715
     21 H4          0.0038   -1.2791   -2.3644 H         1 <0>         0.0503
     22 H5         -2.3924   -3.1277   -2.7616 H         1 <0>         0.0840
     23 H6         -2.4624   -1.4500   -2.1711 H         1 <0>         0.0915
     24 H7         -0.8583   -1.6783    3.1432 H         1 <0>         0.1270
     25 H8         -0.6746   -5.8951    3.8015 H         1 <0>         0.1373
     26 H9         -1.1090   -6.3135    1.4251 H         1 <0>         0.1291
     27 H10        -0.1423   -4.3856    6.7888 H         1 <0>         0.1042
     28 H11        -1.2320   -5.3071    5.7250 H         1 <0>         0.0580
     29 H12         0.5179   -5.2822    5.4001 H         1 <0>         0.0574
     30 H13        -1.7561   -0.1814    1.2341 H         1 <0>         0.0920
     31 H14        -2.0819   -0.1762   -0.5158 H         1 <0>         0.0894
     32 H15         0.3492   -0.3574   -0.9689 H         1 <0>         0.1307
     33 H16         0.6750   -0.3626    0.7809 H         1 <0>         0.1304
     34 H17         1.8658    1.6723   -0.8968 H         1 <0>         0.1215
     35 H18         1.3024    3.0989    0.0063 H         1 <0>         0.1222
     36 H19         1.8828    1.6627    0.8830 H         1 <0>         0.1213
     37 H20        -1.8268    1.6230   -1.0465 H         1 <0>         0.1224
     38 H21        -0.8000    3.0764   -1.0873 H         1 <0>         0.1224
     39 H22        -0.3600    1.6485   -2.0545 H         1 <0>         0.1222
     40 N2         -0.0305    1.4733    0.0344 N.4       1 <0>        -0.3989
     41 H23        -0.4856    1.7779    0.9029 H         1 <0>         0.4311
@<TRIPOS>BOND
     1    1    2 1
     2    1   19 1
     3    1   20 1
     4    1   21 1
     5    2    3 1
     6    2   22 1
     7    2   23 1
     8    3   11 1
     9    3    4 2
    10    4    5 1
    11    4   15 1
    12    5   10 ar
    13    5    6 ar
    14    6    7 ar
    15    6   24 1
    16    7    8 ar
    17    7   13 1
    18    8    9 ar
    19    8   25 1
    20    9   10 ar
    21    9   26 1
    22   10   11 1
    23   11   12 1
    24   13   14 1
    25   14   27 1
    26   14   28 1
    27   14   29 1
    28   15   16 1
    29   15   30 1
    30   15   31 1
    31   16   32 1
    32   16   33 1
    33   16   40 1
    34   17   34 1
    35   17   35 1
    36   17   36 1
    37   17   40 1
    38   18   37 1
    39   18   38 1
    40   18   39 1
    41   18   40 1
    42   40   41 1
@<TRIPOS>MOLECULE
ZINC19418965
   25    27     0     0     0
SMALL
USER_CHARGES

@<TRIPOS>ATOM
      1 C1         -0.0164    1.3616    0.0095 C.ar      1 <0>        -0.1454
      2 C2          1.1695    2.0833    0.0021 C.ar      1 <0>        -0.0997
      3 C3          2.3848    1.4354   -0.0136 C.ar      1 <0>        -0.1295
      4 C4          2.4283    0.0454   -0.0218 C.ar      1 <0>         0.0961
      5 C5          1.2225   -0.6835   -0.0137 C.ar      1 <0>        -0.0978
      6 C6          0.0021   -0.0041    0.0020 C.ar      1 <0>        -0.0713
      7 C7          1.6088   -2.0882   -0.0263 C.2       1 <0>        -0.1591
      8 C8          2.9566   -2.1372   -0.0397 C.2       1 <0>         0.0694
      9 N1          3.4598   -0.8692   -0.0378 N.pl3     1 <0>        -0.5861
     10 H1          4.4034   -0.6444   -0.0464 H         1 <0>         0.4138
     11 C9          3.7316   -3.4345   -0.0523 C.3       1 <0>         0.1245
     12 N2          2.8254   -4.5211    0.3537 N.3       1 <0>        -0.6853
     13 C10         1.5870   -4.5132   -0.4375 C.3       1 <0>         0.0560
     14 C11         0.7260   -3.3100   -0.0273 C.3       1 <0>        -0.0425
     15 H2         -0.9614    1.8843    0.0259 H         1 <0>         0.1229
     16 H3          1.1388    3.1629    0.0083 H         1 <0>         0.1256
     17 H4          3.3020    2.0056   -0.0198 H         1 <0>         0.1194
     18 H5         -0.9252   -0.5577    0.0086 H         1 <0>         0.1211
     19 H6          4.1088   -3.6271   -1.0567 H         1 <0>         0.0518
     20 H7          4.5651   -3.3710    0.6473 H         1 <0>         0.0906
     21 H8          3.2861   -5.4169    0.2954 H         1 <0>         0.3535
     22 H9          1.8330   -4.4399   -1.4969 H         1 <0>         0.0367
     23 H10         1.0338   -5.4347   -0.2558 H         1 <0>         0.0824
     24 H11         0.3182   -3.4712    0.9706 H         1 <0>         0.0782
     25 H12        -0.0865   -3.1773   -0.7416 H         1 <0>         0.0748
@<TRIPOS>BOND
     1    1    6 ar
     2    1    2 ar
     3    1   15 1
     4    2    3 ar
     5    2   16 1
     6    3    4 ar
     7    3   17 1
     8    4    9 1
     9    4    5 ar
    10    5    6 ar
    11    5    7 1
    12    6   18 1
    13    7   14 1
    14    7    8 2
    15    8    9 1
    16    8   11 1
    17    9   10 1
    18   11   12 1
    19   11   19 1
    20   11   20 1
    21   12   13 1
    22   12   21 1
    23   13   14 1
    24   13   22 1
    25   13   23 1
    26   14   24 1
    27   14   25 1
@<TRIPOS>MOLECULE
ZINC13531276
   49    52     0     0     0
SMALL
USER_CHARGES

@<TRIPOS>ATOM
      1 C1         -0.8422   -1.4281    2.5852 C.3       1 <0>        -0.1676
      2 C2          0.1578   -0.2702    2.5803 C.3       1 <0>         0.1087
      3 N1          0.8272   -0.2085    1.2786 N.am      1 <0>        -0.6114
      4 C3          0.1969    0.5031    0.1638 C.3       1 <0>         0.0974
      5 C4          0.5280    1.9939    0.2580 C.3       1 <0>        -0.1731
      6 C5          2.0228   -0.8063    1.1066 C.2       1 <0>         0.5270
      7 O1          2.5101   -1.4575    2.0063 O.2       1 <0>        -0.5326
      8 C6          2.7540   -0.6657   -0.2035 C.3       1 <0>        -0.0724
      9 H1          2.6436    0.3520   -0.5782 H         1 <0>         0.1166
     10 C7          4.2401   -0.9832   -0.0020 C.3       1 <0>         0.0789
     11 N2          4.9057   -0.9353   -1.3074 N.3       1 <0>        -0.5480
     12 C8          4.4367   -1.9669   -2.2235 C.3       1 <0>         0.1392
     13 H2          4.9348   -2.8939   -1.9395 H         1 <0>         0.0480
     14 C9          4.8913   -1.6340   -3.6512 C.3       1 <0>        -0.0299
     15 C10         4.3040   -2.6373   -4.6092 C.2       1 <0>        -0.1090
     16 C11         3.0719   -3.3348   -4.2609 C.ar      1 <0>        -0.1338
     17 C12         2.3503   -3.1762   -3.0588 C.ar      1 <0>         0.0057
     18 C13         1.2066   -3.9331   -2.9472 C.ar      1 <0>        -0.1269
     19 C14         0.8414   -4.7900   -3.9838 C.ar      1 <0>        -0.0861
     20 C15         1.5641   -4.9481   -5.1605 C.ar      1 <0>        -0.1209
     21 C16         2.7272   -4.1934   -5.3083 C.ar      1 <0>         0.1291
     22 N3          3.7073   -4.0334   -6.2415 N.pl3     1 <0>        -0.5792
     23 H3          3.7473   -4.5046   -7.0884 H         1 <0>         0.4202
     24 C17         4.6395   -3.1026   -5.8093 C.2       1 <0>         0.0680
     25 Br1         6.1685   -2.5703   -6.7863 Br        1 <0>         0.0100
     26 C18         2.9547   -2.2126   -2.1201 C.2       1 <0>        -0.0572
     27 C19         2.1917   -1.6384   -1.2050 C.2       1 <0>        -0.1258
     28 C20         6.3658   -0.9898   -1.1561 C.3       1 <0>         0.0266
     29 H4         -0.3148   -2.3644    2.4031 H         1 <0>         0.0586
     30 H5         -1.3402   -1.4740    3.5536 H         1 <0>         0.0668
     31 H6         -1.5841   -1.2707    1.8022 H         1 <0>         0.0553
     32 H7         -0.3696    0.6662    2.7624 H         1 <0>         0.0758
     33 H8          0.8997   -0.4275    3.3632 H         1 <0>         0.0859
     34 H9          0.5726    0.1063   -0.7793 H         1 <0>         0.0857
     35 H10        -0.8836    0.3672    0.2105 H         1 <0>         0.0802
     36 H11         0.0591    2.5233   -0.5715 H         1 <0>         0.0701
     37 H12         0.1523    2.3906    1.2011 H         1 <0>         0.0596
     38 H13         1.6085    2.1297    0.2113 H         1 <0>         0.0597
     39 H14         4.6857   -0.2442    0.6638 H         1 <0>         0.0869
     40 H15         4.3470   -1.9794    0.4273 H         1 <0>         0.0529
     41 H16         4.5499   -0.6337   -3.9177 H         1 <0>         0.0927
     42 H17         5.9792   -1.6736   -3.7050 H         1 <0>         0.0835
     43 H18         0.5947   -3.8637   -2.0600 H         1 <0>         0.1259
     44 H19        -0.0623   -5.3694   -3.8648 H         1 <0>         0.1264
     45 H20         1.2372   -5.6303   -5.9313 H         1 <0>         0.1327
     46 H21         1.1361   -1.8655   -1.1822 H         1 <0>         0.1204
     47 H22         6.6504   -1.9470   -0.7193 H         1 <0>         0.0300
     48 H23         6.8366   -0.8820   -2.1333 H         1 <0>         0.0748
     49 H24         6.6940   -0.1808   -0.5035 H         1 <0>         0.0748
@<TRIPOS>BOND
     1    1    2 1
     2    1   29 1
     3    1   30 1
     4    1   31 1
     5    2    3 1
     6    2   32 1
     7    2   33 1
     8    3    4 1
     9    3    6 am
    10    4    5 1
    11    4   34 1
    12    4   35 1
    13    5   36 1
    14    5   37 1
    15    5   38 1
    16    6    7 2
    17    6    8 1
    18    8    9 1
    19    8   27 1
    20    8   10 1
    21   10   11 1
    22   10   39 1
    23   10   40 1
    24   11   12 1
    25   11   28 1
    26   12   13 1
    27   12   26 1
    28   12   14 1
    29   14   15 1
    30   14   41 1
    31   14   42 1
    32   15   24 2
    33   15   16 1
    34   16   21 ar
    35   16   17 ar
    36   17   18 ar
    37   17   26 1
    38   18   19 ar
    39   18   43 1
    40   19   20 ar
    41   19   44 1
    42   20   21 ar
    43   20   45 1
    44   21   22 1
    45   22   23 1
    46   22   24 1
    47   24   25 1
    48   26   27 2
    49   27   46 1
    50   28   47 1
    51   28   48 1
    52   28   49 1
@<TRIPOS>MOLECULE
ZINC03995669
   41    42     0     0     0
SMALL
USER_CHARGES

@<TRIPOS>ATOM
      1 C1         -0.0187    1.5258    0.0104 C.3       1 <0>        -0.1567
      2 C2          0.0021   -0.0041    0.0020 C.3       1 <0>        -0.1505
      3 C3         -1.4333   -0.5336    0.0129 C.3       1 <0>        -0.0151
      4 N1         -1.4134   -2.0025    0.0048 N.4       1 <0>        -0.5080
      5 C4         -2.7915   -2.5110    0.0152 C.3       1 <0>         0.0279
      6 H1         -3.3476   -2.0812   -0.8179 H         1 <0>         0.1451
      7 C5         -3.4705   -2.1353    1.3376 C.3       1 <0>        -0.1409
      8 C6         -4.9583   -2.4618    1.2247 C.3       1 <0>        -0.0656
      9 C7         -5.1551   -3.8761    0.7453 C.ar      1 <0>        -0.1146
     10 C8         -4.1572   -4.5951    0.1282 C.ar      1 <0>        -0.0506
     11 C9         -4.4067   -5.8936   -0.2974 C.ar      1 <0>        -0.1476
     12 C10        -5.6443   -6.4724   -0.1032 C.ar      1 <0>        -0.0705
     13 C11        -6.6476   -5.7564    0.5203 C.ar      1 <0>        -0.1980
     14 C12        -6.4045   -4.4607    0.9438 C.ar      1 <0>         0.1359
     15 O1         -7.3906   -3.7545    1.5569 O.3       1 <0>        -0.3145
     16 C13        -8.6477   -4.4116    1.7297 C.3       1 <0>         0.0238
     17 C14        -2.7790   -4.0334   -0.1056 C.3       1 <0>        -0.0591
     18 H2         -2.4412   -4.3119   -1.1039 H         1 <0>         0.1075
     19 C15        -1.8160   -4.6139    0.9320 C.3       1 <0>        -0.1723
     20 H3          1.0039    1.9031    0.0027 H         1 <0>         0.0777
     21 H4         -0.5459    1.8868   -0.8726 H         1 <0>         0.0674
     22 H5         -0.5289    1.8773    0.9072 H         1 <0>         0.0673
     23 H6          0.5123   -0.3556   -0.8948 H         1 <0>         0.0864
     24 H7          0.5293   -0.3651    0.8851 H         1 <0>         0.0860
     25 H8         -1.9435   -0.1821    0.9097 H         1 <0>         0.1336
     26 H9         -1.9605   -0.1726   -0.8702 H         1 <0>         0.1325
     27 H10        -0.9411   -2.3279   -0.8254 H         1 <0>         0.4281
     28 H11        -3.0295   -2.7091    2.1527 H         1 <0>         0.0948
     29 H12        -3.3418   -1.0696    1.5266 H         1 <0>         0.0932
     30 H13        -5.4271   -2.3448    2.2017 H         1 <0>         0.0981
     31 H14        -5.4244   -1.7747    0.5184 H         1 <0>         0.0862
     32 H15        -3.6243   -6.4558   -0.7856 H         1 <0>         0.1272
     33 H16        -5.8279   -7.4829   -0.4375 H         1 <0>         0.1332
     34 H17        -7.6175   -6.2051    0.6764 H         1 <0>         0.1357
     35 H18        -9.0492   -4.6899    0.7553 H         1 <0>         0.0602
     36 H19        -8.5093   -5.3074    2.3350 H         1 <0>         0.0601
     37 H20        -9.3436   -3.7386    2.2306 H         1 <0>         0.1071
     38 H21        -2.1444   -4.3295    1.9316 H         1 <0>         0.0770
     39 H22        -1.8042   -5.7006    0.8489 H         1 <0>         0.0902
     40 H23        -0.8133   -4.2250    0.7546 H         1 <0>         0.0562
     41 H24        -0.9254   -2.3367    0.8222 H         1 <0>         0.4256
@<TRIPOS>BOND
     1    1    2 1
     2    1   20 1
     3    1   21 1
     4    1   22 1
     5    2    3 1
     6    2   23 1
     7    2   24 1
     8    3    4 1
     9    3   25 1
    10    3   26 1
    11    4    5 1
    12    4   27 1
    13    4   41 1
    14    5    6 1
    15    5   17 1
    16    5    7 1
    17    7    8 1
    18    7   28 1
    19    7   29 1
    20    8    9 1
    21    8   30 1
    22    8   31 1
    23    9   14 ar
    24    9   10 ar
    25   10   11 ar
    26   10   17 1
    27   11   12 ar
    28   11   32 1
    29   12   13 ar
    30   12   33 1
    31   13   14 ar
    32   13   34 1
    33   14   15 1
    34   15   16 1
    35   16   35 1
    36   16   36 1
    37   16   37 1
    38   17   18 1
    39   17   19 1
    40   19   38 1
    41   19   39 1
    42   19   40 1
@<TRIPOS>MOLECULE
ZINC02516045
   33    35     0     0     0
SMALL
USER_CHARGES

@<TRIPOS>ATOM
      1 C1         -0.0164    1.3568    0.0095 C.ar      1 <0>        -0.1126
      2 C2          1.1685    2.0902    0.0021 C.ar      1 <0>        -0.1056
      3 C3          2.3785    1.4660   -0.0127 C.ar      1 <0>        -0.1107
      4 C4          2.4369    0.0637   -0.0208 C.ar      1 <0>        -0.0518
      5 C5          1.2329   -0.6830   -0.0133 C.ar      1 <0>        -0.0490
      6 C6          0.0021   -0.0041    0.0020 C.ar      1 <0>        -0.1001
      7 C7          1.2897   -2.0870   -0.0204 C.ar      1 <0>        -0.0877
      8 C8          2.4960   -2.7188   -0.0343 C.ar      1 <0>        -0.1184
      9 C9          3.6853   -1.9966   -0.0413 C.ar      1 <0>        -0.1083
     10 C10         3.6728   -0.6178   -0.0357 C.ar      1 <0>         0.1496
     11 N1          4.8691    0.0961   -0.0437 N.pl3     1 <0>        -0.6725
     12 C11         5.5338    0.4724    1.2136 C.3       1 <0>         0.1164
     13 C12         7.0032    0.0457    1.1328 C.3       1 <0>        -0.0236
     14 N2          7.6138    0.6222   -0.0717 N.4       1 <0>        -0.5026
     15 C13         6.9746    0.0667   -1.2713 C.3       1 <0>        -0.0233
     16 C14         5.5067    0.4896   -1.3097 C.3       1 <0>         0.1159
     17 H1         -0.9633    1.8759    0.0259 H         1 <0>         0.1287
     18 H2          1.1264    3.1693    0.0079 H         1 <0>         0.1252
     19 H3          3.2888    2.0471   -0.0187 H         1 <0>         0.1205
     20 H4         -0.9241   -0.5595    0.0082 H         1 <0>         0.1330
     21 H5          0.3773   -2.6647   -0.0144 H         1 <0>         0.1332
     22 H6          2.5301   -3.7982   -0.0396 H         1 <0>         0.1296
     23 H7          4.6289   -2.5219   -0.0517 H         1 <0>         0.1206
     24 H8          5.4729    1.5520    1.3511 H         1 <0>         0.0790
     25 H9          5.0507   -0.0340    2.0491 H         1 <0>         0.1164
     26 H10         7.5342    0.4020    2.0155 H         1 <0>         0.1398
     27 H11         7.0639   -1.0416    1.0862 H         1 <0>         0.1321
     28 H12         7.4939    1.6240   -0.0616 H         1 <0>         0.4274
     29 H13         7.4845    0.4385   -2.1601 H         1 <0>         0.1402
     30 H14         7.0361   -1.0212   -1.2452 H         1 <0>         0.1320
     31 H15         5.0057   -0.0055   -2.1415 H         1 <0>         0.1165
     32 H16         5.4430    1.5709   -1.4312 H         1 <0>         0.0785
     33 H17         8.5988    0.4040   -0.0854 H         1 <0>         0.4316
@<TRIPOS>BOND
     1    1    6 ar
     2    1    2 ar
     3    1   17 1
     4    2    3 ar
     5    2   18 1
     6    3    4 ar
     7    3   19 1
     8    4   10 ar
     9    4    5 ar
    10    5    6 ar
    11    5    7 ar
    12    6   20 1
    13    7    8 ar
    14    7   21 1
    15    8    9 ar
    16    8   22 1
    17    9   10 ar
    18    9   23 1
    19   10   11 1
    20   11   16 1
    21   11   12 1
    22   12   13 1
    23   12   24 1
    24   12   25 1
    25   13   14 1
    26   13   26 1
    27   13   27 1
    28   14   15 1
    29   14   28 1
    30   14   33 1
    31   15   16 1
    32   15   29 1
    33   15   30 1
    34   16   31 1
    35   16   32 1
@<TRIPOS>MOLECULE
ZINC03716177
   33    35     0     0     0
SMALL
USER_CHARGES
1-(2-naphthyl)piperazine
@<TRIPOS>ATOM
      1 C1         -0.0126    1.0758    0.0080 C.ar      1 <0>        -0.1119
      2 C2         -1.2348    1.7455    0.0175 C.ar      1 <0>        -0.0997
      3 C3         -1.2880    3.1053    0.0310 C.ar      1 <0>        -0.1149
      4 C4         -0.0946    3.8484    0.0236 C.ar      1 <0>        -0.0318
      5 C5         -0.1122    5.2526    0.0308 C.ar      1 <0>        -0.1143
      6 C6          1.0780    5.9460    0.0227 C.ar      1 <0>         0.0845
      7 C7          2.3015    5.2649    0.0079 C.ar      1 <0>        -0.1631
      8 C8          2.3444    3.9066    0.0002 C.ar      1 <0>        -0.0683
      9 C9          1.1485    3.1673    0.0081 C.ar      1 <0>        -0.0637
     10 C10         1.1628    1.7621    0.0004 C.ar      1 <0>        -0.1017
     11 N1          1.0644    7.3421    0.0298 N.pl3     1 <0>        -0.4868
     12 C11         0.3072    7.8555    1.1799 C.3       1 <0>         0.0231
     13 C12         0.2487    9.3832    1.1078 C.3       1 <0>         0.0009
     14 C13         2.3726    9.4098   -0.0529 C.3       1 <0>         0.0010
     15 C14         2.4311    7.8821    0.0192 C.3       1 <0>         0.0188
     16 H1          0.0021   -0.0041    0.0020 H         1 <0>         0.1295
     17 H2         -2.1530    1.1770    0.0188 H         1 <0>         0.1295
     18 H3         -2.2422    3.6111    0.0429 H         1 <0>         0.1298
     19 H4         -1.0519    5.7849    0.0430 H         1 <0>         0.1314
     20 H5          3.2237    5.8268    0.0024 H         1 <0>         0.1274
     21 H6          3.2959    3.3957   -0.0113 H         1 <0>         0.1341
     22 H7          2.1021    1.2291   -0.0118 H         1 <0>         0.1315
     23 H8         -0.7049    7.4514    1.1587 H         1 <0>         0.1276
     24 H9          0.8003    7.5537    2.1040 H         1 <0>         0.0697
     25 H10        -0.2876    9.7679    1.9753 H         1 <0>         0.1412
     26 H11        -0.2685    9.6847    0.1970 H         1 <0>         0.1406
     27 H12         3.3847    9.8139   -0.0316 H         1 <0>         0.1413
     28 H13         1.8798    9.7116   -0.9771 H         1 <0>         0.1404
     29 H14         2.9483    7.5806    0.9301 H         1 <0>         0.0716
     30 H15         2.9675    7.4971   -0.8480 H         1 <0>         0.1296
     31 N2          1.6190    9.9295    1.1040 N.4       1 <0>        -0.5189
     32 H16         2.0960    9.6543    1.9705 H         1 <0>         0.4313
     33 H17         1.5754   10.9537    1.0477 H         1 <0>         0.4401
@<TRIPOS>BOND
     1    1   10 ar
     2    1    2 ar
     3    1   16 1
     4    2    3 ar
     5    2   17 1
     6    3    4 ar
     7    3   18 1
     8    4    9 ar
     9    4    5 ar
    10    5    6 ar
    11    5   19 1
    12    6    7 ar
    13    6   11 1
    14    7    8 ar
    15    7   20 1
    16    8    9 ar
    17    8   21 1
    18    9   10 ar
    19   10   22 1
    20   11   15 1
    21   11   12 1
    22   12   13 1
    23   12   23 1
    24   12   24 1
    25   13   25 1
    26   13   26 1
    27   13   31 1
    28   14   15 1
    29   14   27 1
    30   14   28 1
    31   14   31 1
    32   15   29 1
    33   15   30 1
    34   31   32 1
    35   31   33 1
@<TRIPOS>MOLECULE
ZINC03995702
   50    51     0     0     0
SMALL
USER_CHARGES

@<TRIPOS>ATOM
      1 C1          0.0304    1.5048    0.1935 C.3       1 <0>        -0.1557
      2 C2          0.0290   -0.0246    0.1511 C.3       1 <0>        -0.1477
      3 C3         -1.4134   -0.5320    0.0981 C.3       1 <0>        -0.0241
      4 N1         -1.4134   -1.9901   -0.0807 N.4       1 <0>        -0.3824
      5 C4         -0.8124   -2.6280    1.0982 C.3       1 <0>        -0.0194
      6 C5         -1.6937   -2.3707    2.3222 C.3       1 <0>        -0.1512
      7 C6         -1.0014   -2.9162    3.5728 C.3       1 <0>        -0.1554
      8 C7         -2.7944   -2.4636   -0.2430 C.3       1 <0>         0.0227
      9 H1         -3.3661   -2.2440    0.6587 H         1 <0>         0.1447
     10 C8         -2.7952   -3.9752   -0.4995 C.3       1 <0>        -0.1399
     11 C9         -4.2365   -4.4754   -0.4251 C.3       1 <0>        -0.0646
     12 C10        -5.1318   -3.6432   -1.3052 C.ar      1 <0>        -0.1137
     13 C11        -4.7687   -2.3984   -1.7660 C.ar      1 <0>        -0.0490
     14 C12        -5.6449   -1.6788   -2.5685 C.ar      1 <0>        -0.1480
     15 C13        -6.8747   -2.2017   -2.9129 C.ar      1 <0>        -0.0706
     16 C14        -7.2416   -3.4529   -2.4569 C.ar      1 <0>        -0.1985
     17 C15        -6.3726   -4.1728   -1.6544 C.ar      1 <0>         0.1360
     18 O1         -6.7322   -5.4037   -1.2044 O.3       1 <0>        -0.3144
     19 C16        -8.0173   -5.8887   -1.5985 C.3       1 <0>         0.0239
     20 C17        -3.4384   -1.7701   -1.4418 C.3       1 <0>        -0.0580
     21 H2         -3.5852   -0.7151   -1.2105 H         1 <0>         0.1055
     22 C18        -2.5134   -1.8958   -2.6540 C.3       1 <0>        -0.1728
     23 H3          1.0580    1.8663    0.2312 H         1 <0>         0.0773
     24 H4         -0.4589    1.8935   -0.6996 H         1 <0>         0.0667
     25 H5         -0.5069    1.8442    1.0790 H         1 <0>         0.0669
     26 H6          0.5663   -0.3641   -0.7345 H         1 <0>         0.0841
     27 H7          0.5183   -0.4133    1.0442 H         1 <0>         0.0869
     28 H8         -1.9216   -0.2802    1.0289 H         1 <0>         0.1328
     29 H9         -1.9329   -0.0635   -0.7378 H         1 <0>         0.1325
     30 H10        -0.7308   -3.7016    0.9285 H         1 <0>         0.1323
     31 H11         0.1798   -2.2110    1.2708 H         1 <0>         0.1334
     32 H12        -1.8552   -1.2986    2.4347 H         1 <0>         0.0851
     33 H13        -2.6532   -2.8708    2.1907 H         1 <0>         0.0877
     34 H14        -0.8399   -3.9882    3.4603 H         1 <0>         0.0674
     35 H15        -0.0419   -2.4160    3.7044 H         1 <0>         0.0662
     36 H16        -1.6293   -2.7328    4.4448 H         1 <0>         0.0765
     37 H17        -2.3862   -4.1799   -1.4889 H         1 <0>         0.0939
     38 H18        -2.1930   -4.4765    0.2582 H         1 <0>         0.0931
     39 H19        -4.2739   -5.5140   -0.7539 H         1 <0>         0.0980
     40 H20        -4.5861   -4.4124    0.6054 H         1 <0>         0.0851
     41 H21        -5.3610   -0.7001   -2.9261 H         1 <0>         0.1265
     42 H22        -7.5485   -1.6342   -3.5377 H         1 <0>         0.1328
     43 H23        -8.2022   -3.8676   -2.7248 H         1 <0>         0.1355
     44 H24        -8.7887   -5.2082   -1.2381 H         1 <0>         0.0600
     45 H25        -8.0651   -5.9489   -2.6858 H         1 <0>         0.0600
     46 H26        -8.1783   -6.8790   -1.1724 H         1 <0>         0.1069
     47 H27        -2.3557   -2.9498   -2.8830 H         1 <0>         0.0776
     48 H28        -2.9696   -1.4020   -3.5119 H         1 <0>         0.0902
     49 H29        -1.5558   -1.4253   -2.4307 H         1 <0>         0.0557
     50 H30        -0.8775   -2.2282   -0.9018 H         1 <0>         0.4211
@<TRIPOS>BOND
     1    1    2 1
     2    1   23 1
     3    1   24 1
     4    1   25 1
     5    2    3 1
     6    2   26 1
     7    2   27 1
     8    3    4 1
     9    3   28 1
    10    3   29 1
    11    4    5 1
    12    4    8 1
    13    4   50 1
    14    5    6 1
    15    5   30 1
    16    5   31 1
    17    6    7 1
    18    6   32 1
    19    6   33 1
    20    7   34 1
    21    7   35 1
    22    7   36 1
    23    8    9 1
    24    8   20 1
    25    8   10 1
    26   10   11 1
    27   10   37 1
    28   10   38 1
    29   11   12 1
    30   11   39 1
    31   11   40 1
    32   12   17 ar
    33   12   13 ar
    34   13   14 ar
    35   13   20 1
    36   14   15 ar
    37   14   41 1
    38   15   16 ar
    39   15   42 1
    40   16   17 ar
    41   16   43 1
    42   17   18 1
    43   18   19 1
    44   19   44 1
    45   19   45 1
    46   19   46 1
    47   20   21 1
    48   20   22 1
    49   22   47 1
    50   22   48 1
    51   22   49 1
@<TRIPOS>MOLECULE
ZINC03982174
   53    55     0     0     0
SMALL
USER_CHARGES

@<TRIPOS>ATOM
      1 C1          2.1158    1.7135    3.3059 C.3       1 <0>        -0.1544
      2 C2          2.1509    0.1993    3.5221 C.3       1 <0>        -0.1038
      3 C3          2.7723   -0.4786    2.2975 C.3       1 <0>        -0.1441
      4 C4          2.7317   -1.9966    2.4861 C.3       1 <0>        -0.0059
      5 N1          1.3399   -2.4374    2.6376 N.4       1 <0>        -0.3834
      6 C5          0.7597   -1.8475    3.8500 C.3       1 <0>        -0.0118
      7 C6          0.7244   -0.3238    3.7139 C.3       1 <0>        -0.1441
      8 C7          1.3001   -3.9023    2.7402 C.3       1 <0>        -0.0045
      9 C8         -0.1556   -4.3720    2.7727 C.3       1 <0>        -0.1908
     10 C9         -0.1990   -5.9010    2.7415 C.3       1 <0>         0.1608
     11 H1          0.3544   -6.2698    1.8778 H         1 <0>         0.0878
     12 C10         0.4129   -6.4701    4.0389 C.3       1 <0>        -0.1316
     13 C11        -0.5015   -7.6840    4.3511 C.3       1 <0>        -0.1316
     14 C12        -1.8825   -7.1619    3.8821 C.3       1 <0>         0.1163
     15 N2         -1.5940   -6.3604    2.6749 N.pl3     1 <0>        -1.0081
     16 S1         -2.6611   -6.0315    1.4520 S.o2      1 <0>         2.7082
     17 O1         -3.9563   -6.0165    2.0363 O.2       1 <0>        -0.9386
     18 O2         -2.1335   -4.9204    0.7405 O.2       1 <0>        -0.9565
     19 C13        -2.6238   -7.4020    0.3453 C.ar      1 <0>        -0.6657
     20 C14        -1.7285   -7.4147   -0.7086 C.ar      1 <0>        -0.0333
     21 C15        -1.6967   -8.4885   -1.5787 C.ar      1 <0>        -0.1193
     22 C16        -2.5601   -9.5518   -1.3975 C.ar      1 <0>        -0.0847
     23 C17        -3.4591   -9.5415   -0.3411 C.ar      1 <0>         0.0957
     24 C18        -3.4848   -8.4653    0.5344 C.ar      1 <0>        -0.0487
     25 O3         -4.3093  -10.5862   -0.1607 O.3       1 <0>        -0.4910
     26 H2          1.6670    2.1943    4.1751 H         1 <0>         0.0672
     27 H3          3.1316    2.0847    3.1695 H         1 <0>         0.0671
     28 H4          1.5240    1.9403    2.4191 H         1 <0>         0.0622
     29 H5          2.7449   -0.0289    4.4070 H         1 <0>         0.0881
     30 H6          2.2074   -0.2074    1.4056 H         1 <0>         0.0888
     31 H7          3.8066   -0.1531    2.1870 H         1 <0>         0.1123
     32 H8          3.1735   -2.4823    1.6160 H         1 <0>         0.1306
     33 H9          3.2970   -2.2667    3.3780 H         1 <0>         0.1283
     34 H10        -0.2543   -2.2232    3.9869 H         1 <0>         0.1308
     35 H11         1.3671   -2.1208    4.7129 H         1 <0>         0.1289
     36 H12         0.2950    0.1123    4.6158 H         1 <0>         0.1120
     37 H13         0.1171   -0.0494    2.8514 H         1 <0>         0.0890
     38 H14         1.8042   -4.3406    1.8789 H         1 <0>         0.1338
     39 H15         1.8037   -4.2162    3.6545 H         1 <0>         0.1320
     40 H16        -0.6327   -4.0135    3.6849 H         1 <0>         0.0958
     41 H17        -0.6847   -3.9757    1.9061 H         1 <0>         0.1165
     42 H18         1.4400   -6.7940    3.8711 H         1 <0>         0.0885
     43 H19         0.3656   -5.7350    4.8423 H         1 <0>         0.0812
     44 H20        -0.1989   -8.5592    3.7761 H         1 <0>         0.0818
     45 H21        -0.5088   -7.9034    5.4187 H         1 <0>         0.0920
     46 H22        -2.5391   -7.9958    3.6341 H         1 <0>         0.0819
     47 H23        -2.3344   -6.5386    4.6537 H         1 <0>         0.0804
     48 H24        -1.0533   -6.5842   -0.8524 H         1 <0>         0.1402
     49 H25        -0.9966   -8.4961   -2.4010 H         1 <0>         0.1414
     50 H26        -2.5354  -10.3902   -2.0779 H         1 <0>         0.1428
     51 H27        -4.1805   -8.4571    1.3604 H         1 <0>         0.1470
     52 H28        -3.9569  -11.2870    0.4047 H         1 <0>         0.3975
     53 H29         0.8058   -2.1440    1.8333 H         1 <0>         0.4248
@<TRIPOS>BOND
     1    1    2 1
     2    1   26 1
     3    1   27 1
     4    1   28 1
     5    2    7 1
     6    2    3 1
     7    2   29 1
     8    3    4 1
     9    3   30 1
    10    3   31 1
    11    4    5 1
    12    4   32 1
    13    4   33 1
    14    5    6 1
    15    5    8 1
    16    5   53 1
    17    6    7 1
    18    6   34 1
    19    6   35 1
    20    7   36 1
    21    7   37 1
    22    8    9 1
    23    8   38 1
    24    8   39 1
    25    9   10 1
    26    9   40 1
    27    9   41 1
    28   10   11 1
    29   10   15 1
    30   10   12 1
    31   12   13 1
    32   12   42 1
    33   12   43 1
    34   13   14 1
    35   13   44 1
    36   13   45 1
    37   14   15 1
    38   14   46 1
    39   14   47 1
    40   15   16 1
    41   16   17 2
    42   16   18 2
    43   16   19 1
    44   19   24 ar
    45   19   20 ar
    46   20   21 ar
    47   20   48 1
    48   21   22 ar
    49   21   49 1
    50   22   23 ar
    51   22   50 1
    52   23   24 ar
    53   23   25 1
    54   24   51 1
    55   25   52 1
@<TRIPOS>MOLECULE
ZINC13130932
   26    28     0     0     0
SMALL
USER_CHARGES

@<TRIPOS>ATOM
      1 C1         -0.0184    1.5028    0.0103 C.3       1 <0>        -0.1061
      2 C2          0.0021   -0.0041    0.0020 C.2       1 <0>         0.2317
      3 N1          0.0060   -0.6709   -1.1125 N.2       1 <0>        -0.5109
      4 C3         -0.0148   -2.1242   -1.1868 C.3       1 <0>         0.0439
      5 C4          0.7509   -2.7891   -0.0416 C.3       1 <0>        -0.0759
      6 C5          0.3756   -2.1016    1.2461 C.2       1 <0>        -0.1366
      7 C6          0.0244   -0.7727    1.2555 C.2       1 <0>         0.0283
      8 N2         -0.2646   -0.3909    2.5401 N.pl3     1 <0>        -0.5573
      9 H1         -0.5435    0.4953    2.8189 H         1 <0>         0.4208
     10 C7         -0.0935   -1.4706    3.3620 C.ar      1 <0>         0.0996
     11 C8          0.3045   -2.5684    2.5557 C.ar      1 <0>        -0.0958
     12 C9          0.5553   -3.8247    3.1289 C.ar      1 <0>        -0.0656
     13 C10         0.3833   -3.9379    4.4845 C.ar      1 <0>        -0.1463
     14 C11        -0.0194   -2.8697    5.2700 C.ar      1 <0>        -0.0943
     15 C12        -0.2523   -1.6182    4.7379 C.ar      1 <0>        -0.1286
     16 H2          1.0042    1.8801    0.0026 H         1 <0>         0.0870
     17 H3         -0.5455    1.8639   -0.8728 H         1 <0>         0.0879
     18 H4         -0.5286    1.8543    0.9071 H         1 <0>         0.0710
     19 H5         -1.0506   -2.4625   -1.1599 H         1 <0>         0.0802
     20 H6          0.4292   -2.4340   -2.1328 H         1 <0>         0.0977
     21 H7          0.4825   -3.8441    0.0146 H         1 <0>         0.0871
     22 H8          1.8230   -2.6893   -0.2112 H         1 <0>         0.0777
     23 H9          0.8696   -4.6656    2.5285 H         1 <0>         0.1302
     24 H10         0.5682   -4.8917    4.9561 H         1 <0>         0.1204
     25 H11        -0.1375   -3.0183    6.3332 H         1 <0>         0.1244
     26 H12        -0.5630   -0.7931    5.3616 H         1 <0>         0.1296
@<TRIPOS>BOND
     1    1    2 1
     2    1   16 1
     3    1   17 1
     4    1   18 1
     5    2    7 1
     6    2    3 2
     7    3    4 1
     8    4    5 1
     9    4   19 1
    10    4   20 1
    11    5    6 1
    12    5   21 1
    13    5   22 1
    14    6   11 1
    15    6    7 2
    16    7    8 1
    17    8    9 1
    18    8   10 1
    19   10   15 ar
    20   10   11 ar
    21   11   12 ar
    22   12   13 ar
    23   12   23 1
    24   13   14 ar
    25   13   24 1
    26   14   15 ar
    27   14   25 1
    28   15   26 1
@<TRIPOS>MOLECULE
ZINC00057058
   26    27     0     0     0
SMALL
USER_CHARGES

@<TRIPOS>ATOM
      1 C1         -0.0168    1.3880    0.0097 C.ar      1 <0>        -0.1182
      2 C2          1.1587    2.1055    0.0023 C.ar      1 <0>        -0.1024
      3 C3          2.3795    1.4398   -0.0129 C.ar      1 <0>         0.0862
      4 C4          2.4019    0.0334   -0.0206 C.ar      1 <0>        -0.0842
      5 C5          1.2039   -0.6838   -0.0130 C.ar      1 <0>        -0.1143
      6 C6          0.0021   -0.0041    0.0020 C.ar      1 <0>         0.0953
      7 O1         -1.1679   -0.6972    0.0094 O.3       1 <0>        -0.4959
      8 C7          3.8159   -0.3493   -0.0361 C.2       1 <0>        -0.2101
      9 C8          4.5307    0.7870   -0.0369 C.2       1 <0>         0.0918
     10 N1          3.6908    1.8667   -0.0231 N.pl3     1 <0>        -0.5866
     11 H1          3.9751    2.7941   -0.0208 H         1 <0>         0.4248
     12 C9          4.3642   -1.7530   -0.0489 C.3       1 <0>        -0.0616
     13 C10         4.4190   -2.2661   -1.4892 C.3       1 <0>        -0.0080
     14 N2          4.9535   -3.6343   -1.5017 N.4       1 <0>        -0.6389
     15 H2         -0.9621    1.9101    0.0260 H         1 <0>         0.1389
     16 H3          1.1325    3.1852    0.0080 H         1 <0>         0.1315
     17 H4          1.2172   -1.7637   -0.0192 H         1 <0>         0.1256
     18 H5         -1.5147   -0.8930   -0.8718 H         1 <0>         0.3922
     19 H6          5.6093    0.8408   -0.0472 H         1 <0>         0.1750
     20 H7          5.3681   -1.7548    0.3759 H         1 <0>         0.0927
     21 H8          3.7180   -2.4009    0.5433 H         1 <0>         0.0925
     22 H9          3.4152   -2.2643   -1.9140 H         1 <0>         0.1329
     23 H10         5.0652   -1.6182   -2.0814 H         1 <0>         0.1331
     24 H11         5.8827   -3.6360   -1.1085 H         1 <0>         0.4347
     25 H12         4.3553   -4.2341   -0.9535 H         1 <0>         0.4353
     26 H13         4.9896   -3.9727   -2.4515 H         1 <0>         0.4379
@<TRIPOS>BOND
     1    1    6 ar
     2    1    2 ar
     3    1   15 1
     4    2    3 ar
     5    2   16 1
     6    3   10 1
     7    3    4 ar
     8    4    5 ar
     9    4    8 1
    10    5    6 ar
    11    5   17 1
    12    6    7 1
    13    7   18 1
    14    8    9 2
    15    8   12 1
    16    9   10 1
    17    9   19 1
    18   10   11 1
    19   12   13 1
    20   12   20 1
    21   12   21 1
    22   13   14 1
    23   13   22 1
    24   13   23 1
    25   14   24 1
    26   14   25 1
    27   14   26 1
@<TRIPOS>MOLECULE
ZINC19796155
   42    45     0     0     0
SMALL
USER_CHARGES

@<TRIPOS>ATOM
      1 C1         -0.0670    1.4396   -0.3852 C.3       1 <0>         0.0243
      2 N1         -0.0229   -0.0169   -0.1987 N.3       1 <0>        -0.5428
      3 C2          0.3808   -0.6943   -1.4380 C.3       1 <0>         0.0399
      4 C3          0.2401   -2.2095   -1.2572 C.3       1 <0>         0.1263
      5 N2          0.9912   -2.6085   -0.0572 N.pl3     1 <0>        -0.5953
      6 C4          0.7394   -1.8803    1.1955 C.3       1 <0>         0.1122
      7 C5          0.8604   -0.3781    0.9181 C.3       1 <0>         0.0393
      8 C6          1.9051   -3.6365   -0.1053 C.2       1 <0>         0.5098
      9 N3          2.1670   -4.1290   -1.2643 N.2       1 <0>        -0.6041
     10 C7          3.0130   -5.1503   -1.5719 C.ar      1 <0>         0.1655
     11 C8          2.6280   -6.0848   -2.5372 C.ar      1 <0>        -0.1058
     12 C9          3.4872   -7.1047   -2.8991 C.ar      1 <0>        -0.0230
     13 C10         4.7348   -7.2069   -2.3106 C.ar      1 <0>        -0.1209
     14 C11         5.1212   -6.2977   -1.3402 C.ar      1 <0>        -0.1017
     15 C12         4.2618   -5.2835   -0.9546 C.ar      1 <0>         0.1117
     16 N4          4.6314   -4.4326    0.1003 N.pl3     1 <0>        -0.7261
     17 C13         3.8434   -4.4184    1.2519 C.ar      1 <0>         0.2140
     18 C14         2.4943   -4.0640    1.1729 C.ar      1 <0>        -0.1453
     19 C15         1.7072   -4.1133    2.3240 C.ar      1 <0>        -0.0723
     20 C16         2.2727   -4.4729    3.5311 C.ar      1 <0>        -0.1389
     21 C17         3.6189   -4.7825    3.6069 C.ar      1 <0>        -0.0765
     22 C18         4.3974   -4.7629    2.4751 C.ar      1 <0>        -0.1433
     23 Cl1         2.9987   -8.2627   -4.0966 Cl        1 <0>        -0.0679
     24 H1          0.9359    1.8090   -0.5992 H         1 <0>         0.0255
     25 H2         -0.7279    1.6794   -1.2181 H         1 <0>         0.0711
     26 H3         -0.4416    1.9111    0.5233 H         1 <0>         0.0709
     27 H4         -0.2581   -0.3649   -2.2574 H         1 <0>         0.0878
     28 H5          1.4186   -0.4499   -1.6647 H         1 <0>         0.0378
     29 H6         -0.8117   -2.4673   -1.1334 H         1 <0>         0.0720
     30 H7          0.6453   -2.7216   -2.1299 H         1 <0>         0.1060
     31 H8         -0.2645   -2.1065    1.5551 H         1 <0>         0.0792
     32 H9          1.4746   -2.1748    1.9444 H         1 <0>         0.0984
     33 H10         1.8915   -0.1381    0.6586 H         1 <0>         0.0379
     34 H11         0.5693    0.1807    1.8075 H         1 <0>         0.0892
     35 H12         1.6558   -6.0097   -3.0016 H         1 <0>         0.1375
     36 H13         5.4083   -7.9971   -2.6081 H         1 <0>         0.1357
     37 H14         6.0961   -6.3802   -0.8829 H         1 <0>         0.1326
     38 H15         5.4169   -3.8679    0.0299 H         1 <0>         0.4097
     39 H16         0.6563   -3.8699    2.2709 H         1 <0>         0.1344
     40 H17         1.6613   -4.5124    4.4205 H         1 <0>         0.1323
     41 H18         4.0571   -5.0467    4.5580 H         1 <0>         0.1317
     42 H19         5.4473   -5.0071    2.5424 H         1 <0>         0.1313
@<TRIPOS>BOND
     1    1    2 1
     2    1   24 1
     3    1   25 1
     4    1   26 1
     5    2    7 1
     6    2    3 1
     7    3    4 1
     8    3   27 1
     9    3   28 1
    10    4    5 1
    11    4   29 1
    12    4   30 1
    13    5    6 1
    14    5    8 1
    15    6    7 1
    16    6   31 1
    17    6   32 1
    18    7   33 1
    19    7   34 1
    20    8   18 1
    21    8    9 2
    22    9   10 1
    23   10   15 ar
    24   10   11 ar
    25   11   12 ar
    26   11   35 1
    27   12   13 ar
    28   12   23 1
    29   13   14 ar
    30   13   36 1
    31   14   15 ar
    32   14   37 1
    33   15   16 1
    34   16   17 1
    35   16   38 1
    36   17   22 ar
    37   17   18 ar
    38   18   19 ar
    39   19   20 ar
    40   19   39 1
    41   20   21 ar
    42   20   40 1
    43   21   22 ar
    44   21   41 1
    45   22   42 1
@<TRIPOS>MOLECULE
ZINC19796155
   44    47     0     0     0
SMALL
USER_CHARGES

@<TRIPOS>ATOM
      1 C1         -1.5703   -0.0018   -1.9302 C.3       1 <0>        -0.0497
      2 N1         -0.7527   -0.7171   -0.9414 N.4       1 <0>        -0.3854
      3 C2         -1.0498   -2.1535   -1.0104 C.3       1 <0>        -0.0252
      4 C3         -0.2839   -2.8861    0.0962 C.3       1 <0>         0.1048
      5 N2          1.1441   -2.5548   -0.0269 N.pl3     1 <0>        -0.7052
      6 C4          1.5202   -1.1363   -0.1296 C.3       1 <0>         0.1049
      7 C5          0.6692   -0.4862   -1.2256 C.3       1 <0>        -0.0251
      8 C6          2.0831   -3.5253   -0.0448 C.2       1 <0>         0.6309
      9 C7          2.6112   -3.9094    1.2074 C.ar      1 <0>        -0.2438
     10 C8          2.0495   -3.1929    2.2728 C.ar      1 <0>         0.0055
     11 C9          2.4602   -3.4528    3.5483 C.ar      1 <0>        -0.1817
     12 C10         3.4265   -4.4148    3.8208 C.ar      1 <0>         0.0489
     13 C11         4.0101   -5.1439    2.8276 C.ar      1 <0>        -0.2233
     14 C12         3.6302   -4.9235    1.4921 C.ar      1 <0>         0.3343
     15 N3          4.2865   -5.7106    0.6358 N.pl3     1 <0>        -0.6131
     16 C13         4.1767   -5.7728   -0.7271 C.ar      1 <0>         0.1589
     17 C14         5.0408   -6.7320   -1.2562 C.ar      1 <0>        -0.1157
     18 C15         5.0795   -6.9478   -2.6222 C.ar      1 <0>        -0.0495
     19 C16         4.2642   -6.2154   -3.4643 C.ar      1 <0>        -0.0338
     20 C17         3.4016   -5.2585   -2.9468 C.ar      1 <0>        -0.0846
     21 C18         3.3520   -5.0321   -1.5848 C.ar      1 <0>         0.0769
     22 N4          2.4115   -4.0290   -1.2719 N.pl3     1 <0>        -0.5773
     23 Cl1         4.3195   -6.4929   -5.1771 Cl        1 <0>        -0.0159
     24 H1         -1.3348   -0.3678   -2.9295 H         1 <0>         0.1246
     25 H2         -2.6262   -0.1724   -1.7203 H         1 <0>         0.1321
     26 H3         -1.3566    1.0656   -1.8745 H         1 <0>         0.1321
     27 H4         -2.1201   -2.3101   -0.8766 H         1 <0>         0.1569
     28 H5         -0.7442   -2.5415   -1.9820 H         1 <0>         0.1344
     29 H6         -0.6518   -2.5648    1.0707 H         1 <0>         0.1155
     30 H7         -0.4211   -3.9618   -0.0138 H         1 <0>         0.1302
     31 H8          1.3345   -0.6383    0.8220 H         1 <0>         0.1155
     32 H9          2.5758   -1.0551   -0.3891 H         1 <0>         0.1302
     33 H10         0.9228   -0.9247   -2.1907 H         1 <0>         0.1344
     34 H11         0.8655    0.5856   -1.2504 H         1 <0>         0.1569
     35 H12         1.2975   -2.4405    2.0860 H         1 <0>         0.1502
     36 H13         2.0243   -2.8976    4.3657 H         1 <0>         0.1496
     37 H14         3.7223   -4.5886    4.8448 H         1 <0>         0.1558
     38 H15         4.7590   -5.8851    3.0650 H         1 <0>         0.1623
     39 H16         5.6790   -7.3052   -0.6001 H         1 <0>         0.1677
     40 H17         5.7487   -7.6901   -3.0316 H         1 <0>         0.1653
     41 H18         2.7675   -4.6896   -3.6107 H         1 <0>         0.1565
     42 H19         1.9393   -3.6432   -2.0263 H         1 <0>         0.4255
     43 H20         4.9278   -6.3202    1.0333 H         1 <0>         0.4372
     44 H21        -0.9695   -0.3754   -0.0171 H         1 <0>         0.4310
@<TRIPOS>BOND
     1    1    2 1
     2    1   24 1
     3    1   25 1
     4    1   26 1
     5    2    7 1
     6    2    3 1
     7    2   44 1
     8    3    4 1
     9    3   27 1
    10    3   28 1
    11    4    5 1
    12    4   29 1
    13    4   30 1
    14    5    6 1
    15    5    8 1
    16    6    7 1
    17    6   31 1
    18    6   32 1
    19    7   33 1
    20    7   34 1
    21    8   22 1
    22    8    9 2
    23    9   14 ar
    24    9   10 ar
    25   10   11 ar
    26   10   35 1
    27   11   12 ar
    28   11   36 1
    29   12   13 ar
    30   12   37 1
    31   13   14 ar
    32   13   38 1
    33   14   15 2
    34   15   16 1
    35   15   43 1
    36   16   21 ar
    37   16   17 ar
    38   17   18 ar
    39   17   39 1
    40   18   19 ar
    41   18   40 1
    42   19   20 ar
    43   19   23 1
    44   20   21 ar
    45   20   41 1
    46   21   22 1
    47   22   42 1
@<TRIPOS>MOLECULE
ZINC19796155
   43    46     0     0     0
SMALL
USER_CHARGES

@<TRIPOS>ATOM
      1 C1         -0.0523    1.4387   -0.3863 C.3       1 <0>        -0.0469
      2 N1         -0.0147   -0.0168   -0.1908 N.4       1 <0>        -0.3852
      3 C2          0.4863   -0.6601   -1.4120 C.3       1 <0>        -0.0213
      4 C3          0.4181   -2.1823   -1.2510 C.3       1 <0>         0.1002
      5 N2          1.1441   -2.5548   -0.0269 N.pl3     1 <0>        -0.6180
      6 C4          0.8178   -1.8405    1.2170 C.3       1 <0>         0.0860
      7 C5          0.8671   -0.3344    0.9395 C.3       1 <0>        -0.0221
      8 C6          2.1017   -3.5432   -0.0451 C.2       1 <0>         0.5019
      9 N3          2.4234   -4.0210   -1.1951 N.2       1 <0>        -0.5760
     10 C7          3.3217   -5.0050   -1.4750 C.ar      1 <0>         0.1390
     11 C8          3.0096   -5.9522   -2.4541 C.ar      1 <0>        -0.0932
     12 C9          3.9229   -6.9340   -2.7877 C.ar      1 <0>        -0.0267
     13 C10         5.1529   -6.9852   -2.1572 C.ar      1 <0>        -0.1032
     14 C11         5.4673   -6.0631   -1.1730 C.ar      1 <0>        -0.1031
     15 C12         4.5533   -5.0871   -0.8155 C.ar      1 <0>         0.1235
     16 N4          4.8505   -4.2243    0.2524 N.pl3     1 <0>        -0.7273
     17 C13         4.0239   -4.2464    1.3765 C.ar      1 <0>         0.2173
     18 C14         2.6645   -3.9489    1.2520 C.ar      1 <0>        -0.1537
     19 C15         1.8414   -4.0345    2.3754 C.ar      1 <0>        -0.0841
     20 C16         2.3802   -4.3733    3.6007 C.ar      1 <0>        -0.1334
     21 C17         3.7349   -4.6261    3.7220 C.ar      1 <0>        -0.0692
     22 C18         4.5500   -4.5705    2.6174 C.ar      1 <0>        -0.1369
     23 Cl1         3.5248   -8.1083   -4.0027 Cl        1 <0>        -0.0551
     24 H1          0.9534    1.8033   -0.5956 H         1 <0>         0.1211
     25 H2         -0.7066    1.6758   -1.2253 H         1 <0>         0.1256
     26 H3         -0.4316    1.9169    0.5167 H         1 <0>         0.1252
     27 H4         -0.1269   -0.3565   -2.2605 H         1 <0>         0.1425
     28 H5          1.5196   -0.3587   -1.5839 H         1 <0>         0.1315
     29 H6         -0.6226   -2.4957   -1.1694 H         1 <0>         0.0898
     30 H7          0.8819   -2.6629   -2.1125 H         1 <0>         0.1431
     31 H8         -0.1827   -2.1194    1.5479 H         1 <0>         0.0960
     32 H9          1.5457   -2.0950    1.9873 H         1 <0>         0.1385
     33 H10         1.8889   -0.0428    0.6965 H         1 <0>         0.1320
     34 H11         0.5345    0.2092    1.8238 H         1 <0>         0.1439
     35 H12         2.0515   -5.9169   -2.9512 H         1 <0>         0.1396
     36 H13         5.8689   -7.7454   -2.4325 H         1 <0>         0.1422
     37 H14         6.4287   -6.1057   -0.6827 H         1 <0>         0.1382
     38 H15         5.6134   -3.6267    0.2096 H         1 <0>         0.4129
     39 H16         0.7836   -3.8354    2.2868 H         1 <0>         0.1314
     40 H17         1.7411   -4.4409    4.4686 H         1 <0>         0.1357
     41 H18         4.1512   -4.8742    4.6872 H         1 <0>         0.1370
     42 H19         5.6063   -4.7705    2.7202 H         1 <0>         0.1363
     43 H20        -0.9456   -0.3526    0.0057 H         1 <0>         0.4250
@<TRIPOS>BOND
     1    1    2 1
     2    1   24 1
     3    1   25 1
     4    1   26 1
     5    2    7 1
     6    2    3 1
     7    2   43 1
     8    3    4 1
     9    3   27 1
    10    3   28 1
    11    4    5 1
    12    4   29 1
    13    4   30 1
    14    5    6 1
    15    5    8 1
    16    6    7 1
    17    6   31 1
    18    6   32 1
    19    7   33 1
    20    7   34 1
    21    8   18 1
    22    8    9 2
    23    9   10 1
    24   10   15 ar
    25   10   11 ar
    26   11   12 ar
    27   11   35 1
    28   12   13 ar
    29   12   23 1
    30   13   14 ar
    31   13   36 1
    32   14   15 ar
    33   14   37 1
    34   15   16 1
    35   16   17 1
    36   16   38 1
    37   17   22 ar
    38   17   18 ar
    39   18   19 ar
    40   19   20 ar
    41   19   39 1
    42   20   21 ar
    43   20   40 1
    44   21   22 ar
    45   21   41 1
    46   22   42 1
@<TRIPOS>MOLECULE
ZINC52955754
   78    85     0     0     0
SMALL
USER_CHARGES

@<TRIPOS>ATOM
      1 C1         -0.0187    1.5258    0.0104 C.3       1 <0>        -0.1598
      2 C2          0.0021   -0.0041    0.0020 C.3       1 <0>         0.3133
      3 C3         -1.4086   -0.5377    0.0380 C.2       1 <0>         0.4974
      4 O1         -2.2623   -0.3468   -0.8020 O.2       1 <0>        -0.4339
      5 N1         -1.5558   -1.2594    1.1573 N.am      1 <0>        -0.6473
      6 C4         -2.7811   -1.9072    1.6465 C.3       1 <0>         0.1676
      7 H1         -3.6534   -1.4191    1.2119 H         1 <0>         0.1300
      8 C5         -2.8196   -1.7737    3.1514 C.2       1 <0>         0.5375
      9 O2         -3.8398   -2.0375    3.7517 O.2       1 <0>        -0.5175
     10 N2         -1.7377   -1.3673    3.8288 N.am      1 <0>        -0.6093
     11 C6         -1.4988   -1.5056    5.2814 C.3       1 <0>         0.1034
     12 C7         -0.0115   -1.9469    5.3401 C.3       1 <0>        -0.1312
     13 C8          0.6366   -1.0970    4.2194 C.3       1 <0>        -0.1233
     14 C9         -0.5254   -0.7335    3.2794 C.3       1 <0>         0.1538
     15 H2         -0.6515    0.3483    3.2363 H         1 <0>         0.1080
     16 C10        -0.2721   -1.3061    1.8801 C.3       1 <0>         0.4673
     17 O3          0.6632   -0.4897    1.1757 O.3       1 <0>        -0.3435
     18 O4          0.1968   -2.6529    1.9727 O.3       1 <0>        -0.5263
     19 C11        -2.7719   -3.3873    1.2591 C.3       1 <0>        -0.0853
     20 C12        -2.8289   -3.5142   -0.2414 C.ar      1 <0>        -0.0817
     21 C13        -4.0511   -3.5865   -0.8831 C.ar      1 <0>        -0.1070
     22 C14        -4.1034   -3.7029   -2.2595 C.ar      1 <0>        -0.1106
     23 C15        -2.9333   -3.7466   -2.9944 C.ar      1 <0>        -0.1120
     24 C16        -1.7111   -3.6735   -2.3528 C.ar      1 <0>        -0.1118
     25 C17        -1.6589   -3.5527   -0.9767 C.ar      1 <0>        -0.1084
     26 N3          0.6928   -0.4872   -1.1962 N.am      1 <0>        -0.7275
     27 C18         0.2164   -0.1795   -2.4188 C.2       1 <0>         0.5285
     28 O5         -0.7840    0.4974   -2.5271 O.2       1 <0>        -0.4880
     29 C19         0.9270   -0.6765   -3.6514 C.3       1 <0>        -0.0630
     30 H3          0.9504   -1.7663   -3.6472 H         1 <0>         0.1181
     31 C20         0.1958   -0.1806   -4.9041 C.3       1 <0>         0.0825
     32 N4          0.9628   -0.5942   -6.0830 N.3       1 <0>        -0.5483
     33 C21         2.2749    0.0353   -6.1576 C.3       1 <0>         0.1366
     34 H4          2.1214    1.0445   -6.5397 H         1 <0>         0.0461
     35 C22         3.1440   -0.7043   -7.1841 C.3       1 <0>        -0.0234
     36 C23         4.5347   -0.1256   -7.1705 C.2       1 <0>        -0.1688
     37 C24         5.5321   -0.0509   -8.0454 C.2       1 <0>         0.0582
     38 N5          6.6182    0.6012   -7.4823 N.pl3     1 <0>        -0.5950
     39 H5          7.4585    0.7703   -7.9365 H         1 <0>         0.4165
     40 C25         6.3388    0.9715   -6.2015 C.ar      1 <0>         0.1104
     41 C26         5.0313    0.5354   -5.9692 C.ar      1 <0>        -0.1301
     42 C27         4.3076    0.7145   -4.7717 C.ar      1 <0>        -0.0067
     43 C28         4.9810    1.3610   -3.7605 C.ar      1 <0>        -0.1265
     44 C29         6.2881    1.7959   -3.9689 C.ar      1 <0>        -0.0972
     45 C30         6.9904    1.6250   -5.1564 C.ar      1 <0>        -0.1200
     46 C31         2.9379    0.1689   -4.8123 C.2       1 <0>        -0.0470
     47 C32         2.3326   -0.1393   -3.6774 C.2       1 <0>        -0.1416
     48 C33         0.1978   -0.3645   -7.3159 C.3       1 <0>         0.0279
     49 H6          1.0039    1.9031    0.0027 H         1 <0>         0.0833
     50 H7         -0.5459    1.8868   -0.8726 H         1 <0>         0.1032
     51 H8         -0.5289    1.8773    0.9072 H         1 <0>         0.0737
     52 H9         -1.6393   -0.5513    5.7890 H         1 <0>         0.0802
     53 H10        -2.1465   -2.2711    5.7087 H         1 <0>         0.0906
     54 H11         0.4254   -1.7068    6.3094 H         1 <0>         0.0885
     55 H12         0.0852   -3.0108    5.1238 H         1 <0>         0.0801
     56 H13         1.0829   -0.1947    4.6375 H         1 <0>         0.0861
     57 H14         1.3872   -1.6807    3.6865 H         1 <0>         0.0960
     58 H15         0.3344   -3.0811    1.1167 H         1 <0>         0.3836
     59 H16        -1.8589   -3.8540    1.6289 H         1 <0>         0.0892
     60 H17        -3.6372   -3.8833    1.6988 H         1 <0>         0.0994
     61 H18        -4.9653   -3.5523   -0.3090 H         1 <0>         0.1218
     62 H19        -5.0583   -3.7601   -2.7608 H         1 <0>         0.1222
     63 H20        -2.9741   -3.8383   -4.0697 H         1 <0>         0.1212
     64 H21        -0.7969   -3.7080   -2.9269 H         1 <0>         0.1181
     65 H22        -0.7041   -3.4918   -0.4758 H         1 <0>         0.1024
     66 H23         1.4930   -1.0287   -1.1096 H         1 <0>         0.4081
     67 H24        -0.8016   -0.6185   -4.9437 H         1 <0>         0.0907
     68 H25         0.1212    0.9066   -4.8785 H         1 <0>         0.0484
     69 H26         3.1881   -1.7628   -6.9279 H         1 <0>         0.0843
     70 H27         2.7115   -0.5880   -8.1778 H         1 <0>         0.0767
     71 H28         5.5011   -0.4425   -9.0514 H         1 <0>         0.1696
     72 H29         4.4981    1.5309   -2.8095 H         1 <0>         0.1228
     73 H30         6.7885    2.2989   -3.1547 H         1 <0>         0.1226
     74 H31         8.0028    1.9848   -5.2653 H         1 <0>         0.1286
     75 H32         2.8644   -0.0119   -2.7461 H         1 <0>         0.1203
     76 H33         0.0241    0.7041   -7.4419 H         1 <0>         0.0291
     77 H34         0.7605   -0.7442   -8.1687 H         1 <0>         0.0740
     78 H35        -0.7588   -0.8831   -7.2519 H         1 <0>         0.0741
@<TRIPOS>BOND
     1    1    2 1
     2    1   49 1
     3    1   50 1
     4    1   51 1
     5    2   17 1
     6    2    3 1
     7    2   26 1
     8    3    4 2
     9    3    5 am
    10    5   16 1
    11    5    6 1
    12    6    7 1
    13    6    8 1
    14    6   19 1
    15    8    9 2
    16    8   10 am
    17   10   14 1
    18   10   11 1
    19   11   12 1
    20   11   52 1
    21   11   53 1
    22   12   13 1
    23   12   54 1
    24   12   55 1
    25   13   14 1
    26   13   56 1
    27   13   57 1
    28   14   15 1
    29   14   16 1
    30   16   17 1
    31   16   18 1
    32   18   58 1
    33   19   20 1
    34   19   59 1
    35   19   60 1
    36   20   25 ar
    37   20   21 ar
    38   21   22 ar
    39   21   61 1
    40   22   23 ar
    41   22   62 1
    42   23   24 ar
    43   23   63 1
    44   24   25 ar
    45   24   64 1
    46   25   65 1
    47   26   27 am
    48   26   66 1
    49   27   28 2
    50   27   29 1
    51   29   30 1
    52   29   47 1
    53   29   31 1
    54   31   32 1
    55   31   67 1
    56   31   68 1
    57   32   33 1
    58   32   48 1
    59   33   34 1
    60   33   46 1
    61   33   35 1
    62   35   36 1
    63   35   69 1
    64   35   70 1
    65   36   41 1
    66   36   37 2
    67   37   38 1
    68   37   71 1
    69   38   39 1
    70   38   40 1
    71   40   45 ar
    72   40   41 ar
    73   41   42 ar
    74   42   43 ar
    75   42   46 1
    76   43   44 ar
    77   43   72 1
    78   44   45 ar
    79   44   73 1
    80   45   74 1
    81   46   47 2
    82   47   75 1
    83   48   76 1
    84   48   77 1
    85   48   78 1
@<TRIPOS>MOLECULE
ZINC29131039
   25    26     0     0     0
SMALL
USER_CHARGES

@<TRIPOS>ATOM
      1 C1         -0.0173    1.4248    0.0099 C.3       1 <0>         0.0243
      2 O1          0.0021   -0.0041    0.0020 O.3       1 <0>        -0.3223
      3 C2         -1.2010   -0.6378    0.0101 C.ar      1 <0>         0.1390
      4 C3         -2.3738    0.0970    0.0195 C.ar      1 <0>        -0.1742
      5 C4         -3.5987   -0.5462    0.0281 C.ar      1 <0>        -0.0561
      6 C5         -3.6613   -1.9292    0.0283 C.ar      1 <0>        -0.1113
      7 C6         -2.5010   -2.6723    0.0194 C.ar      1 <0>        -0.0949
      8 C7         -1.2590   -2.0362    0.0031 C.ar      1 <0>         0.0664
      9 N1         -0.1079   -2.7774   -0.0161 N.pl3     1 <0>        -0.5622
     10 C8         -0.1304   -4.0522   -0.3217 C.cat     1 <0>         0.7296
     11 N2         -1.3204   -4.6719   -0.6272 N.pl3     1 <0>        -0.7063
     12 C9         -2.5528   -4.1810    0.0222 C.3       1 <0>         0.1592
     13 N3          1.0389   -4.7721   -0.3376 N.pl3     1 <0>        -0.8006
     14 H1          1.0053    1.8021    0.0021 H         1 <0>         0.1140
     15 H2         -0.5445    1.7859   -0.8732 H         1 <0>         0.0671
     16 H3         -0.5275    1.7763    0.9067 H         1 <0>         0.0677
     17 H4         -2.3326    1.1762    0.0204 H         1 <0>         0.1505
     18 H5         -4.5101    0.0332    0.0350 H         1 <0>         0.1480
     19 H6         -4.6202   -2.4259    0.0359 H         1 <0>         0.1498
     20 H7         -1.3463   -5.4160   -1.2488 H         1 <0>         0.4438
     21 H8         -2.6140   -4.5464    1.0473 H         1 <0>         0.1097
     22 H9         -3.4196   -4.5217   -0.5442 H         1 <0>         0.1325
     23 H10         1.8791   -4.3373   -0.1229 H         1 <0>         0.4376
     24 H11         1.0247   -5.7153   -0.5634 H         1 <0>         0.4421
     25 H12         0.7373   -2.3528    0.1993 H         1 <0>         0.4466
@<TRIPOS>BOND
     1    1    2 1
     2    1   14 1
     3    1   15 1
     4    1   16 1
     5    2    3 1
     6    3    8 ar
     7    3    4 ar
     8    4    5 ar
     9    4   17 1
    10    5    6 ar
    11    5   18 1
    12    6    7 ar
    13    6   19 1
    14    7   12 1
    15    7    8 ar
    16    8    9 1
    17    9   10 2
    18    9   25 1
    19   10   11 1
    20   10   13 1
    21   11   12 1
    22   11   20 1
    23   12   21 1
    24   12   22 1
    25   13   23 1
    26   13   24 1
@<TRIPOS>MOLECULE
ZINC28255523
   21    22     0     0     0
SMALL
USER_CHARGES

@<TRIPOS>ATOM
      1 C1         -0.0167    1.3803    0.0096 C.ar      1 <0>        -0.0993
      2 C2          1.1690    2.0938    0.0021 C.ar      1 <0>        -0.0801
      3 C3          2.3794    1.4321   -0.0141 C.ar      1 <0>        -0.1134
      4 C4          2.4064    0.0364   -0.0223 C.ar      1 <0>         0.1000
      5 C5          1.2042   -0.6751   -0.0129 C.ar      1 <0>        -0.1338
      6 C6          0.0021   -0.0041    0.0020 C.ar      1 <0>        -0.0741
      7 C7          1.2445   -2.1841   -0.0180 C.3       1 <0>         0.1566
      8 N1          2.5052   -2.5981   -0.6537 N.pl3     1 <0>        -0.7023
      9 C8          3.6541   -1.9075   -0.3471 C.cat     1 <0>         0.7332
     10 N2          3.5991   -0.6331   -0.0412 N.pl3     1 <0>        -0.5738
     11 N3          4.8642   -2.5546   -0.3616 N.pl3     1 <0>        -0.7988
     12 H1         -0.9603    1.9053    0.0260 H         1 <0>         0.1445
     13 H2          1.1467    3.1736    0.0087 H         1 <0>         0.1464
     14 H3          3.3029    1.9919   -0.0208 H         1 <0>         0.1435
     15 H4         -0.9255   -0.5571    0.0074 H         1 <0>         0.1471
     16 H5          1.2070   -2.5578    1.0053 H         1 <0>         0.1058
     17 H6          0.3995   -2.5741   -0.5854 H         1 <0>         0.1305
     18 H7          2.5254   -3.3419   -1.2760 H         1 <0>         0.4437
     19 H8          4.9076   -3.4969   -0.5877 H         1 <0>         0.4428
     20 H9          5.6761   -2.0697   -0.1457 H         1 <0>         0.4382
     21 H10         4.4168   -0.1582    0.1750 H         1 <0>         0.4434
@<TRIPOS>BOND
     1    1    6 ar
     2    1    2 ar
     3    1   12 1
     4    2    3 ar
     5    2   13 1
     6    3    4 ar
     7    3   14 1
     8    4   10 1
     9    4    5 ar
    10    5    6 ar
    11    5    7 1
    12    6   15 1
    13    7    8 1
    14    7   16 1
    15    7   17 1
    16    8    9 1
    17    8   18 1
    18    9   10 2
    19    9   11 1
    20   10   21 1
    21   11   19 1
    22   11   20 1
@<TRIPOS>MOLECULE
ZINC03870312
   44    45     0     0     0
SMALL
USER_CHARGES

@<TRIPOS>ATOM
      1 C1          2.0344   -2.4614   -1.6117 C.3       1 <0>        -0.1564
      2 C2          1.0053   -1.9689   -0.5924 C.3       1 <0>        -0.1483
      3 C3         -0.3778   -2.5081   -0.9628 C.3       1 <0>        -0.0221
      4 N1         -1.3660   -2.0352    0.0160 N.4       1 <0>        -0.3808
      5 C4         -1.4822   -0.5735   -0.0727 C.3       1 <0>        -0.0216
      6 C5         -2.3990   -0.0662    1.0422 C.3       1 <0>        -0.1495
      7 C6         -2.5852    1.4458    0.9011 C.3       1 <0>        -0.1554
      8 C7         -2.6701   -2.6483   -0.2695 C.3       1 <0>         0.0206
      9 H1         -3.4102   -2.2854    0.4437 H         1 <0>         0.1433
     10 C8         -2.5573   -4.1738   -0.1653 C.3       1 <0>        -0.1378
     11 C9         -3.9635   -4.7663   -0.2291 C.3       1 <0>        -0.0773
     12 C10        -4.7118   -4.2271   -1.4202 C.ar      1 <0>        -0.0686
     13 C11        -5.8362   -4.9235   -1.8466 C.ar      1 <0>        -0.1219
     14 C12        -6.5697   -4.4809   -2.9279 C.ar      1 <0>        -0.0880
     15 C13        -6.1863   -3.3333   -3.5952 C.ar      1 <0>        -0.1382
     16 C14        -5.0658   -2.6373   -3.1752 C.ar      1 <0>         0.1143
     17 C15        -4.3230   -3.0871   -2.0847 C.ar      1 <0>        -0.1167
     18 C16        -3.1061   -2.2922   -1.6893 C.3       1 <0>        -0.0851
     19 O1         -4.6876   -1.5082   -3.8302 O.3       1 <0>        -0.4961
     20 H2          3.0198   -2.0773   -1.3478 H         1 <0>         0.0776
     21 H3          2.0564   -3.5512   -1.6083 H         1 <0>         0.0671
     22 H4          1.7603   -2.1066   -2.6052 H         1 <0>         0.0669
     23 H5          1.2794   -2.3236    0.4012 H         1 <0>         0.0858
     24 H6          0.9833   -0.8791   -0.5958 H         1 <0>         0.0856
     25 H7         -0.6520   -2.1533   -1.9563 H         1 <0>         0.1318
     26 H8         -0.3558   -3.5978   -0.9594 H         1 <0>         0.1333
     27 H9         -0.4954   -0.1233    0.0354 H         1 <0>         0.1342
     28 H10        -1.9020   -0.3004   -1.0408 H         1 <0>         0.1308
     29 H11        -3.3680   -0.5600    0.9687 H         1 <0>         0.0835
     30 H12        -1.9507   -0.2883    2.0106 H         1 <0>         0.0869
     31 H13        -3.0336    1.6679   -0.0673 H         1 <0>         0.0659
     32 H14        -3.2384    1.8072    1.6954 H         1 <0>         0.0773
     33 H15        -1.6163    1.9396    0.9746 H         1 <0>         0.0677
     34 H16        -1.9603   -4.5552   -0.9937 H         1 <0>         0.0927
     35 H17        -2.0879   -4.4434    0.7807 H         1 <0>         0.0935
     36 H18        -3.8932   -5.8510   -0.3098 H         1 <0>         0.0995
     37 H19        -4.5039   -4.5084    0.6817 H         1 <0>         0.0910
     38 H20        -6.1386   -5.8204   -1.3266 H         1 <0>         0.1319
     39 H21        -7.4413   -5.0301   -3.2522 H         1 <0>         0.1360
     40 H22        -6.7582   -2.9810   -4.4410 H         1 <0>         0.1369
     41 H23        -3.3398   -1.2287   -1.7374 H         1 <0>         0.0954
     42 H24        -2.2928   -2.5125   -2.3808 H         1 <0>         0.0981
     43 H25        -5.0813   -0.6984   -3.4777 H         1 <0>         0.3928
     44 H26        -1.0692   -2.2933    0.9451 H         1 <0>         0.4233
@<TRIPOS>BOND
     1    1    2 1
     2    1   20 1
     3    1   21 1
     4    1   22 1
     5    2    3 1
     6    2   23 1
     7    2   24 1
     8    3    4 1
     9    3   25 1
    10    3   26 1
    11    4    5 1
    12    4    8 1
    13    4   44 1
    14    5    6 1
    15    5   27 1
    16    5   28 1
    17    6    7 1
    18    6   29 1
    19    6   30 1
    20    7   31 1
    21    7   32 1
    22    7   33 1
    23    8    9 1
    24    8   18 1
    25    8   10 1
    26   10   11 1
    27   10   34 1
    28   10   35 1
    29   11   12 1
    30   11   36 1
    31   11   37 1
    32   12   17 ar
    33   12   13 ar
    34   13   14 ar
    35   13   38 1
    36   14   15 ar
    37   14   39 1
    38   15   16 ar
    39   15   40 1
    40   16   17 ar
    41   16   19 1
    42   17   18 1
    43   18   41 1
    44   18   42 1
    45   19   43 1
@<TRIPOS>MOLECULE
ZINC03870313
   44    45     0     0     0
SMALL
USER_CHARGES

@<TRIPOS>ATOM
      1 C1          1.4413   -2.5874   -2.4342 C.3       1 <0>        -0.1558
      2 C2          0.7544   -2.1400   -1.1423 C.3       1 <0>        -0.1491
      3 C3         -0.7443   -2.4339   -1.2335 C.3       1 <0>        -0.0201
      4 N1         -1.4039   -2.0044    0.0068 N.4       1 <0>        -0.3818
      5 C4         -1.3254   -0.5420    0.1221 C.3       1 <0>        -0.0189
      6 C5         -1.8949   -0.1056    1.4734 C.3       1 <0>        -0.1495
      7 C6         -1.6913    1.4004    1.6503 C.3       1 <0>        -0.1554
      8 C7         -2.8130   -2.4186   -0.0191 C.3       1 <0>         0.0212
      9 H1         -3.3345   -1.9999    0.8417 H         1 <0>         0.1439
     10 C8         -3.4725   -1.9253   -1.3124 C.3       1 <0>        -0.1372
     11 C9         -4.9780   -2.1583   -1.2047 C.3       1 <0>        -0.0775
     12 C10        -5.2664   -3.5813   -0.8033 C.ar      1 <0>        -0.0684
     13 C11        -6.5491   -4.0680   -1.0239 C.ar      1 <0>        -0.1225
     14 C12        -6.8811   -5.3604   -0.6738 C.ar      1 <0>        -0.0878
     15 C13        -5.9313   -6.1820   -0.0976 C.ar      1 <0>        -0.1384
     16 C14        -4.6513   -5.7025    0.1215 C.ar      1 <0>         0.1150
     17 C15        -4.3156   -4.3974   -0.2354 C.ar      1 <0>        -0.1164
     18 C16        -2.9018   -3.9428    0.0171 C.3       1 <0>        -0.0892
     19 O1         -3.7160   -6.5091    0.6885 O.3       1 <0>        -0.4966
     20 H2          2.5091   -2.3780   -2.3693 H         1 <0>         0.0777
     21 H3          1.2888   -3.6574   -2.5750 H         1 <0>         0.0667
     22 H4          1.0155   -2.0454   -3.2786 H         1 <0>         0.0666
     23 H5          1.1802   -2.6819   -0.2979 H         1 <0>         0.0859
     24 H6          0.9069   -1.0699   -1.0015 H         1 <0>         0.0859
     25 H7         -1.1702   -1.8919   -2.0779 H         1 <0>         0.1316
     26 H8         -0.8968   -3.5039   -1.3743 H         1 <0>         0.1312
     27 H9         -0.2845   -0.2270    0.0477 H         1 <0>         0.1340
     28 H10        -1.9022   -0.0828   -0.6807 H         1 <0>         0.1313
     29 H11        -2.9599   -0.3350    1.5100 H         1 <0>         0.0855
     30 H12        -1.3808   -0.6382    2.2735 H         1 <0>         0.0852
     31 H13        -2.2054    1.9330    0.8503 H         1 <0>         0.0669
     32 H14        -2.0971    1.7113    2.6130 H         1 <0>         0.0774
     33 H15        -0.6264    1.6298    1.6137 H         1 <0>         0.0669
     34 H16        -3.2741   -0.8615   -1.4430 H         1 <0>         0.0923
     35 H17        -3.0749   -2.4804   -2.1620 H         1 <0>         0.0927
     36 H18        -5.3938   -1.4827   -0.4571 H         1 <0>         0.0903
     37 H19        -5.4430   -1.9557   -2.1695 H         1 <0>         0.0990
     38 H20        -7.2937   -3.4279   -1.4736 H         1 <0>         0.1316
     39 H21        -7.8809   -5.7290   -0.8494 H         1 <0>         0.1360
     40 H22        -6.1865   -7.1938    0.1811 H         1 <0>         0.1370
     41 H23        -2.2487   -4.3592   -0.7498 H         1 <0>         0.0928
     42 H24        -2.5786   -4.2985    0.9954 H         1 <0>         0.1031
     43 H25        -3.2026   -7.0244    0.0514 H         1 <0>         0.3942
     44 H26        -0.9429   -2.4293    0.7974 H         1 <0>         0.4229
@<TRIPOS>BOND
     1    1    2 1
     2    1   20 1
     3    1   21 1
     4    1   22 1
     5    2    3 1
     6    2   23 1
     7    2   24 1
     8    3    4 1
     9    3   25 1
    10    3   26 1
    11    4    5 1
    12    4    8 1
    13    4   44 1
    14    5    6 1
    15    5   27 1
    16    5   28 1
    17    6    7 1
    18    6   29 1
    19    6   30 1
    20    7   31 1
    21    7   32 1
    22    7   33 1
    23    8    9 1
    24    8   18 1
    25    8   10 1
    26   10   11 1
    27   10   34 1
    28   10   35 1
    29   11   12 1
    30   11   36 1
    31   11   37 1
    32   12   17 ar
    33   12   13 ar
    34   13   14 ar
    35   13   38 1
    36   14   15 ar
    37   14   39 1
    38   15   16 ar
    39   15   40 1
    40   16   17 ar
    41   16   19 1
    42   17   18 1
    43   18   41 1
    44   18   42 1
    45   19   43 1
@<TRIPOS>MOLECULE
ZINC13805807
   45    47     0     0     0
SMALL
USER_CHARGES
2-(5-methoxy-2-phenyl-1H-indol-3-yl)-N,N-dimethyl-ethanamine
@<TRIPOS>ATOM
      1 C1          0.9367    3.5236    3.8235 C.3       1 <0>        -0.0473
      2 C2          2.6846    3.3677    5.4917 C.3       1 <0>        -0.0422
      3 C3          3.2364    3.1964    3.1404 C.3       1 <0>        -0.0042
      4 C4          3.0203    3.8619    1.7798 C.3       1 <0>        -0.0668
      5 C5          3.9359    3.2326    0.7616 C.2       1 <0>        -0.1881
      6 C6          5.2943    3.6602    0.4313 C.ar      1 <0>        -0.0555
      7 C7          6.1239    4.6868    0.8933 C.ar      1 <0>        -0.1271
      8 C8          7.3881    4.8341    0.3598 C.ar      1 <0>         0.1172
      9 C9          7.8365    3.9667   -0.6334 C.ar      1 <0>        -0.1729
     10 C10         7.0288    2.9519   -1.0960 C.ar      1 <0>        -0.0795
     11 C11         5.7511    2.7854   -0.5721 C.ar      1 <0>         0.0695
     12 N1          4.7371    1.8854   -0.8270 N.pl3     1 <0>        -0.5803
     13 H1          4.7794    1.1668   -1.4772 H         1 <0>         0.4215
     14 C12         3.6571    2.1606   -0.0209 C.2       1 <0>         0.1622
     15 C13         2.3846    1.4070   -0.0132 C.ar      1 <0>        -0.0518
     16 C14         1.1668    2.0883    0.0021 C.ar      1 <0>        -0.1031
     17 C15        -0.0167    1.3793    0.0096 C.ar      1 <0>        -0.1168
     18 C16         0.0021   -0.0041    0.0020 C.ar      1 <0>        -0.1030
     19 C17         1.2061   -0.6855   -0.0127 C.ar      1 <0>        -0.1110
     20 C18         2.3966    0.0116   -0.0204 C.ar      1 <0>        -0.1027
     21 O1          8.1992    5.8306    0.8053 O.3       1 <0>        -0.3177
     22 C19         9.4950    5.9270    0.2107 C.3       1 <0>         0.0251
     23 H2          0.7757    2.4456    3.8278 H         1 <0>         0.1224
     24 H3          0.2977    3.9893    4.5738 H         1 <0>         0.1225
     25 H4          0.6924    3.9235    2.8394 H         1 <0>         0.1212
     26 H5          3.7111    3.6543    5.7204 H         1 <0>         0.1214
     27 H6          2.0086    3.8368    6.2066 H         1 <0>         0.1221
     28 H7          2.5870    2.2840    5.5564 H         1 <0>         0.1215
     29 H8          3.0166    2.1316    3.0630 H         1 <0>         0.1291
     30 H9          4.2725    3.3319    3.4506 H         1 <0>         0.1305
     31 H10         3.2401    4.9267    1.8571 H         1 <0>         0.0940
     32 H11         1.9842    3.7264    1.4696 H         1 <0>         0.0933
     33 H12         5.7775    5.3601    1.6634 H         1 <0>         0.1283
     34 H13         8.8273    4.0912   -1.0447 H         1 <0>         0.1380
     35 H14         7.3874    2.2851   -1.8663 H         1 <0>         0.1300
     36 H15         1.1509    3.1682    0.0081 H         1 <0>         0.1291
     37 H16        -0.9599    1.9054    0.0170 H         1 <0>         0.1316
     38 H17        -0.9272   -0.5544    0.0080 H         1 <0>         0.1306
     39 H18         1.2140   -1.7655   -0.0186 H         1 <0>         0.1315
     40 H19         3.3358   -0.5215   -0.0323 H         1 <0>         0.1248
     41 H20        10.0376    6.7613    0.6553 H         1 <0>         0.1043
     42 H21        10.0446    5.0020    0.3852 H         1 <0>         0.0575
     43 H22         9.3914    6.0912   -0.8618 H         1 <0>         0.0581
     44 N2          2.3476    3.8382    4.1317 N.4       1 <0>        -0.3982
     45 H23         2.4795    4.8556    4.0885 H         1 <0>         0.4308
@<TRIPOS>BOND
     1    1   23 1
     2    1   24 1
     3    1   25 1
     4    1   44 1
     5    2   26 1
     6    2   27 1
     7    2   28 1
     8    2   44 1
     9    3    4 1
    10    3   29 1
    11    3   30 1
    12    3   44 1
    13    4    5 1
    14    4   31 1
    15    4   32 1
    16    5   14 2
    17    5    6 1
    18    6   11 ar
    19    6    7 ar
    20    7    8 ar
    21    7   33 1
    22    8    9 ar
    23    8   21 1
    24    9   10 ar
    25    9   34 1
    26   10   11 ar
    27   10   35 1
    28   11   12 1
    29   12   13 1
    30   12   14 1
    31   14   15 1
    32   15   20 ar
    33   15   16 ar
    34   16   17 ar
    35   16   36 1
    36   17   18 ar
    37   17   37 1
    38   18   19 ar
    39   18   38 1
    40   19   20 ar
    41   19   39 1
    42   20   40 1
    43   21   22 1
    44   22   41 1
    45   22   42 1
    46   22   43 1
    47   44   45 1
@<TRIPOS>MOLECULE
ZINC19362650
   49    52     0     0     0
SMALL
USER_CHARGES

@<TRIPOS>ATOM
      1 C1          0.2206    1.5152    1.9057 C.3       1 <0>        -0.0457
      2 N1          0.2516    0.0487    1.9854 N.4       1 <0>        -0.3883
      3 C2          0.6486   -0.5039    0.6837 C.3       1 <0>        -0.0011
      4 C3          0.6992   -2.0308    0.7714 C.3       1 <0>         0.0175
      5 N2         -0.6244   -2.5407    1.1564 N.3       1 <0>        -0.5281
      6 C4         -1.0461   -1.9766    2.4464 C.3       1 <0>         0.0177
      7 C5         -1.0824   -0.4501    2.3448 C.3       1 <0>        -0.0018
      8 C6         -0.6316   -4.0091    1.1963 C.3       1 <0>         0.1437
      9 H1         -0.2338   -4.3716    0.2485 H         1 <0>         0.1037
     10 C7          0.2948   -4.4467    2.2842 C.3       1 <0>        -0.1250
     11 C8          0.6363   -5.8984    2.2023 C.ar      1 <0>        -0.0552
     12 C9          1.8715   -6.2799    1.6918 C.ar      1 <0>        -0.1196
     13 C10         2.1806   -7.6226    1.5809 C.ar      1 <0>        -0.0925
     14 C11         1.2687   -8.5877    1.9690 C.ar      1 <0>        -0.1150
     15 C12         0.0449   -8.2081    2.4889 C.ar      1 <0>        -0.0637
     16 C13        -0.2456   -6.8537    2.6139 C.ar      1 <0>        -0.1262
     17 S1         -1.7507   -6.3303    3.3560 S.3       1 <0>        -0.0082
     18 C14        -2.6122   -5.4134    2.1303 C.ar      1 <0>        -0.1042
     19 C15        -2.0601   -4.4644    1.3058 C.ar      1 <0>        -0.0476
     20 C16        -2.9031   -3.7952    0.4063 C.ar      1 <0>        -0.0825
     21 C17        -4.2501   -4.0763    0.3136 C.ar      1 <0>        -0.0750
     22 C18        -4.7979   -5.0557    1.1337 C.ar      1 <0>        -0.1188
     23 C19        -3.9838   -5.7055    2.0238 C.ar      1 <0>        -0.0674
     24 S2         -5.2652   -3.2038   -0.8322 S.3       1 <0>        -0.1090
     25 C20        -6.9164   -3.9128   -0.5840 C.3       1 <0>        -0.1464
     26 H2         -0.0726    1.9255    2.8720 H         1 <0>         0.1243
     27 H3          1.2105    1.8855    1.6391 H         1 <0>         0.1242
     28 H4         -0.4989    1.8227    1.1469 H         1 <0>         0.1235
     29 H5         -0.0773   -0.2074   -0.0735 H         1 <0>         0.1388
     30 H6          1.6330   -0.1227    0.4121 H         1 <0>         0.1369
     31 H7          0.9793   -2.4417   -0.1985 H         1 <0>         0.1258
     32 H8          1.4349   -2.3279    1.5189 H         1 <0>         0.0670
     33 H9         -2.0394   -2.3480    2.6984 H         1 <0>         0.1255
     34 H10        -0.3392   -2.2728    3.2214 H         1 <0>         0.0671
     35 H11        -1.3813   -0.0291    3.3048 H         1 <0>         0.1364
     36 H12        -1.7994   -0.1539    1.5791 H         1 <0>         0.1387
     37 H13         1.2142   -3.8648    2.2186 H         1 <0>         0.0842
     38 H14        -0.1757   -4.2497    3.2475 H         1 <0>         0.0945
     39 H15         2.5859   -5.5311    1.3832 H         1 <0>         0.1260
     40 H16         3.1413   -7.9205    1.1877 H         1 <0>         0.1310
     41 H17         1.5121   -9.6349    1.8665 H         1 <0>         0.1353
     42 H18        -0.6755   -8.9530    2.7932 H         1 <0>         0.1393
     43 H19        -2.4834   -3.0343   -0.2349 H         1 <0>         0.1382
     44 H20        -5.8478   -5.3009    1.0698 H         1 <0>         0.1341
     45 H21        -4.4090   -6.4640    2.6643 H         1 <0>         0.1365
     46 H22        -6.8876   -4.9823   -0.7924 H         1 <0>         0.0879
     47 H23        -7.2296   -3.7519    0.4475 H         1 <0>         0.0869
     48 H24        -7.6241   -3.4302   -1.2581 H         1 <0>         0.1146
     49 H25         0.9174   -0.2358    2.6882 H         1 <0>         0.4222
@<TRIPOS>BOND
     1    1    2 1
     2    1   26 1
     3    1   27 1
     4    1   28 1
     5    2    7 1
     6    2    3 1
     7    2   49 1
     8    3    4 1
     9    3   29 1
    10    3   30 1
    11    4    5 1
    12    4   31 1
    13    4   32 1
    14    5    6 1
    15    5    8 1
    16    6    7 1
    17    6   33 1
    18    6   34 1
    19    7   35 1
    20    7   36 1
    21    8    9 1
    22    8   19 1
    23    8   10 1
    24   10   11 1
    25   10   37 1
    26   10   38 1
    27   11   16 ar
    28   11   12 ar
    29   12   13 ar
    30   12   39 1
    31   13   14 ar
    32   13   40 1
    33   14   15 ar
    34   14   41 1
    35   15   16 ar
    36   15   42 1
    37   16   17 1
    38   17   18 1
    39   18   23 ar
    40   18   19 ar
    41   19   20 ar
    42   20   21 ar
    43   20   43 1
    44   21   22 ar
    45   21   24 1
    46   22   23 ar
    47   22   44 1
    48   23   45 1
    49   24   25 1
    50   25   46 1
    51   25   47 1
    52   25   48 1
@<TRIPOS>MOLECULE
ZINC19362650
   49    52     0     0     0
SMALL
USER_CHARGES

@<TRIPOS>ATOM
      1 C1          0.0941    1.3815    2.3220 C.3       1 <0>         0.0196
      2 N1          0.1096   -0.0841    2.2226 N.3       1 <0>        -0.5418
      3 C2          0.6952   -0.5193    0.9468 C.3       1 <0>         0.0269
      4 C3          0.7475   -2.0482    0.9082 C.3       1 <0>        -0.0136
      5 N2         -0.6107   -2.5886    1.0529 N.4       1 <0>        -0.3874
      6 C4         -1.1729   -2.1658    2.3423 C.3       1 <0>        -0.0104
      7 C5         -1.2412   -0.6379    2.3928 C.3       1 <0>         0.0280
      8 C6         -0.5621   -4.0557    0.9977 C.3       1 <0>         0.0987
      9 H1         -0.0929   -4.3397    0.0557 H         1 <0>         0.1422
     10 C7          0.3126   -4.5317    2.1120 C.3       1 <0>        -0.1195
     11 C8          0.7158   -5.9616    1.9587 C.ar      1 <0>        -0.0629
     12 C9          1.9941   -6.2640    1.5045 C.ar      1 <0>        -0.1122
     13 C10         2.3624   -7.5845    1.3272 C.ar      1 <0>        -0.0884
     14 C11         1.4674   -8.6052    1.5935 C.ar      1 <0>        -0.1057
     15 C12         0.2000   -8.3049    2.0577 C.ar      1 <0>        -0.0611
     16 C13        -0.1510   -6.9731    2.2509 C.ar      1 <0>        -0.1283
     17 S1         -1.7183   -6.5541    2.9277 S.3       1 <0>         0.0182
     18 C14        -2.5389   -5.5887    1.7112 C.ar      1 <0>        -0.0842
     19 C15        -1.9754   -4.5678    0.9864 C.ar      1 <0>        -0.0871
     20 C16        -2.7876   -3.8705    0.0799 C.ar      1 <0>        -0.1290
     21 C17        -4.1141   -4.1925   -0.1163 C.ar      1 <0>        -0.0551
     22 C18        -4.6719   -5.2432    0.6024 C.ar      1 <0>        -0.1046
     23 C19        -3.8887   -5.9217    1.4989 C.ar      1 <0>        -0.0528
     24 S2         -5.0910   -3.2821   -1.2659 S.3       1 <0>        -0.0918
     25 C20        -6.7248   -4.0644   -1.1697 C.3       1 <0>        -0.1488
     26 H2         -0.2832    1.6753    3.3015 H         1 <0>         0.0847
     27 H3          1.1060    1.7652    2.1924 H         1 <0>         0.0841
     28 H4         -0.5521    1.7915    1.5458 H         1 <0>         0.0396
     29 H5          0.0821   -0.1555    0.1223 H         1 <0>         0.0608
     30 H6          1.7046   -0.1184    0.8544 H         1 <0>         0.1263
     31 H7          1.1685   -2.3734   -0.0432 H         1 <0>         0.1379
     32 H8          1.3718   -2.4111    1.7247 H         1 <0>         0.1442
     33 H9         -2.1757   -2.5781    2.4542 H         1 <0>         0.1356
     34 H10        -0.5388   -2.5280    3.1515 H         1 <0>         0.1417
     35 H11        -1.6445   -0.3234    3.3554 H         1 <0>         0.1251
     36 H12        -1.8862   -0.2760    1.5921 H         1 <0>         0.0606
     37 H13         1.2104   -3.9144    2.1427 H         1 <0>         0.1105
     38 H14        -0.2235   -4.4163    3.0540 H         1 <0>         0.1137
     39 H15         2.6958   -5.4714    1.2908 H         1 <0>         0.1329
     40 H16         3.3565   -7.8211    0.9778 H         1 <0>         0.1360
     41 H17         1.7580   -9.6339    1.4395 H         1 <0>         0.1395
     42 H18        -0.5075   -9.0935    2.2669 H         1 <0>         0.1431
     43 H19        -2.3599   -3.0540   -0.4829 H         1 <0>         0.1187
     44 H20        -5.7053   -5.5208    0.4561 H         1 <0>         0.1449
     45 H21        -4.3219   -6.7359    2.0608 H         1 <0>         0.1481
     46 H22        -7.4085   -3.5634   -1.8550 H         1 <0>         0.1205
     47 H23        -6.6410   -5.1159   -1.4442 H         1 <0>         0.0922
     48 H24        -7.1068   -3.9839   -0.1519 H         1 <0>         0.0918
     49 H25        -1.1914   -2.2432    0.3035 H         1 <0>         0.4184
@<TRIPOS>BOND
     1    1    2 1
     2    1   26 1
     3    1   27 1
     4    1   28 1
     5    2    7 1
     6    2    3 1
     7    3    4 1
     8    3   29 1
     9    3   30 1
    10    4    5 1
    11    4   31 1
    12    4   32 1
    13    5    6 1
    14    5    8 1
    15    5   49 1
    16    6    7 1
    17    6   33 1
    18    6   34 1
    19    7   35 1
    20    7   36 1
    21    8    9 1
    22    8   19 1
    23    8   10 1
    24   10   11 1
    25   10   37 1
    26   10   38 1
    27   11   16 ar
    28   11   12 ar
    29   12   13 ar
    30   12   39 1
    31   13   14 ar
    32   13   40 1
    33   14   15 ar
    34   14   41 1
    35   15   16 ar
    36   15   42 1
    37   16   17 1
    38   17   18 1
    39   18   23 ar
    40   18   19 ar
    41   19   20 ar
    42   20   21 ar
    43   20   43 1
    44   21   22 ar
    45   21   24 1
    46   22   23 ar
    47   22   44 1
    48   23   45 1
    49   24   25 1
    50   25   46 1
    51   25   47 1
    52   25   48 1
@<TRIPOS>MOLECULE
ZINC19362650
   48    51     0     0     0
SMALL
USER_CHARGES

@<TRIPOS>ATOM
      1 C1          0.1598    1.4566    1.9299 C.3       1 <0>         0.0248
      2 N1          0.1797   -0.0122    1.9218 N.3       1 <0>        -0.5453
      3 C2          0.6554   -0.5254    0.6295 C.3       1 <0>         0.0573
      4 C3          0.7370   -2.0525    0.6888 C.3       1 <0>         0.0510
      5 N2         -0.5880   -2.5990    1.0137 N.3       1 <0>        -0.5275
      6 C4         -1.0637   -2.0859    2.3060 C.3       1 <0>         0.0532
      7 C5         -1.1452   -0.5587    2.2467 C.3       1 <0>         0.0574
      8 C6         -0.5680   -4.0678    1.0056 C.3       1 <0>         0.1374
      9 H1         -0.1341   -4.3914    0.0595 H         1 <0>         0.0920
     10 C7          0.3326   -4.5241    2.1074 C.3       1 <0>        -0.1282
     11 C8          0.7045   -5.9659    1.9892 C.ar      1 <0>        -0.0436
     12 C9          1.9620   -6.3075    1.5059 C.ar      1 <0>        -0.1189
     13 C10         2.3003   -7.6399    1.3611 C.ar      1 <0>        -0.0964
     14 C11         1.3956   -8.6339    1.6886 C.ar      1 <0>        -0.1236
     15 C12         0.1492   -8.2942    2.1816 C.ar      1 <0>        -0.0672
     16 C13        -0.1711   -6.9503    2.3415 C.ar      1 <0>        -0.1264
     17 S1         -1.7083   -6.4793    3.0522 S.3       1 <0>        -0.0147
     18 C14        -2.5490   -5.5383    1.8304 C.ar      1 <0>        -0.1066
     19 C15        -1.9901   -4.5526    1.0551 C.ar      1 <0>        -0.0308
     20 C16        -2.8176   -3.8696    0.1516 C.ar      1 <0>        -0.0744
     21 C17        -4.1554   -4.1720    0.0074 C.ar      1 <0>        -0.0779
     22 C18        -4.7094   -5.1879    0.7774 C.ar      1 <0>        -0.1252
     23 C19        -3.9108   -5.8518    1.6712 C.ar      1 <0>        -0.0718
     24 S2         -5.1513   -3.2808   -1.1410 S.3       1 <0>        -0.1116
     25 C20        -6.7953   -4.0278   -0.9683 C.3       1 <0>        -0.1460
     26 H2         -0.1314    1.8106    2.9188 H         1 <0>         0.0692
     27 H3          1.1527    1.8348    1.6864 H         1 <0>         0.0688
     28 H4         -0.5567    1.8143    1.1904 H         1 <0>         0.0270
     29 H5         -0.0381   -0.2285   -0.1572 H         1 <0>         0.0439
     30 H6          1.6433   -0.1164    0.4172 H         1 <0>         0.0809
     31 H7          1.0619   -2.4372   -0.2779 H         1 <0>         0.0818
     32 H8          1.4510   -2.3490    1.4572 H         1 <0>         0.0507
     33 H9         -2.0515   -2.4948    2.5183 H         1 <0>         0.0812
     34 H10        -0.3701   -2.3827    3.0927 H         1 <0>         0.0496
     35 H11        -1.4702   -0.1740    3.2134 H         1 <0>         0.0799
     36 H12        -1.8592   -0.2622    1.4783 H         1 <0>         0.0437
     37 H13         1.2421   -3.9236    2.0899 H         1 <0>         0.0901
     38 H14        -0.1713   -4.3679    3.0612 H         1 <0>         0.0936
     39 H15         2.6710   -5.5360    1.2444 H         1 <0>         0.1275
     40 H16         3.2784   -7.9070    0.9890 H         1 <0>         0.1273
     41 H17         1.6623   -9.6725    1.5599 H         1 <0>         0.1304
     42 H18        -0.5657   -9.0618    2.4387 H         1 <0>         0.1354
     43 H19        -2.3931   -3.0802   -0.4509 H         1 <0>         0.1403
     44 H20        -5.7518   -5.4500    0.6724 H         1 <0>         0.1300
     45 H21        -4.3409   -6.6388    2.2729 H         1 <0>         0.1324
     46 H22        -7.1434   -3.9069    0.0575 H         1 <0>         0.0846
     47 H23        -7.4910   -3.5362   -1.6483 H         1 <0>         0.1104
     48 H24        -6.7394   -5.0891   -1.2103 H         1 <0>         0.0844
@<TRIPOS>BOND
     1    1    2 1
     2    1   26 1
     3    1   27 1
     4    1   28 1
     5    2    7 1
     6    2    3 1
     7    3    4 1
     8    3   29 1
     9    3   30 1
    10    4    5 1
    11    4   31 1
    12    4   32 1
    13    5    6 1
    14    5    8 1
    15    6    7 1
    16    6   33 1
    17    6   34 1
    18    7   35 1
    19    7   36 1
    20    8    9 1
    21    8   19 1
    22    8   10 1
    23   10   11 1
    24   10   37 1
    25   10   38 1
    26   11   16 ar
    27   11   12 ar
    28   12   13 ar
    29   12   39 1
    30   13   14 ar
    31   13   40 1
    32   14   15 ar
    33   14   41 1
    34   15   16 ar
    35   15   42 1
    36   16   17 1
    37   17   18 1
    38   18   23 ar
    39   18   19 ar
    40   19   20 ar
    41   20   21 ar
    42   20   43 1
    43   21   22 ar
    44   21   24 1
    45   22   23 ar
    46   22   44 1
    47   23   45 1
    48   24   25 1
    49   25   46 1
    50   25   47 1
    51   25   48 1
@<TRIPOS>MOLECULE
ZINC19362651
   49    52     0     0     0
SMALL
USER_CHARGES

@<TRIPOS>ATOM
      1 C1          1.7167    1.5474    1.0576 C.3       1 <0>        -0.0456
      2 N1          1.8170    0.0824    1.0980 N.4       1 <0>        -0.3883
      3 C2          0.4703   -0.5019    1.0458 C.3       1 <0>        -0.0010
      4 C3          0.5733   -2.0275    1.1069 C.3       1 <0>         0.0175
      5 N2          1.3783   -2.5070   -0.0254 N.3       1 <0>        -0.5281
      6 C4          2.7215   -1.9110   -0.0004 C.3       1 <0>         0.0177
      7 C5          2.6009   -0.3864   -0.0524 C.3       1 <0>        -0.0017
      8 C6          1.4533   -3.9741   -0.0341 C.3       1 <0>         0.1437
      9 H1          0.4366   -4.3615    0.0312 H         1 <0>         0.1037
     10 C7          2.1925   -4.4065    1.1907 C.3       1 <0>        -0.1250
     11 C8          2.0390   -5.8652    1.4726 C.ar      1 <0>        -0.0552
     12 C9          1.1651   -6.2776    2.4716 C.ar      1 <0>        -0.1196
     13 C10         0.9919   -7.6273    2.7145 C.ar      1 <0>        -0.0925
     14 C11         1.6774   -8.5689    1.9681 C.ar      1 <0>        -0.1150
     15 C12         2.5565   -8.1584    0.9829 C.ar      1 <0>        -0.0637
     16 C13         2.7367   -6.7971    0.7623 C.ar      1 <0>        -0.1262
     17 S1          3.9137   -6.2336   -0.4155 S.3       1 <0>        -0.0082
     18 C14         3.0117   -5.3259   -1.6187 C.ar      1 <0>        -0.1042
     19 C15         2.0305   -4.4025   -1.3543 C.ar      1 <0>        -0.0476
     20 C16         1.4369   -3.7364   -2.4367 C.ar      1 <0>        -0.0825
     21 C17         1.7920   -3.9963   -3.7437 C.ar      1 <0>        -0.0750
     22 C18         2.7684   -4.9501   -4.0059 C.ar      1 <0>        -0.1188
     23 C19         3.3623   -5.5964   -2.9536 C.ar      1 <0>        -0.0674
     24 S2          1.0161   -3.1291   -5.0668 S.3       1 <0>        -0.1090
     25 C20         1.8022   -3.8051   -6.5553 C.3       1 <0>        -0.1464
     26 H2          1.2249    1.8525    0.1340 H         1 <0>         0.1235
     27 H3          1.1350    1.8954    1.9111 H         1 <0>         0.1242
     28 H4          2.7159    1.9812    1.0976 H         1 <0>         0.1243
     29 H5         -0.1145   -0.1430    1.8928 H         1 <0>         0.1369
     30 H6         -0.0176   -0.2076    0.1167 H         1 <0>         0.1388
     31 H7          1.0489   -2.3227    2.0421 H         1 <0>         0.0670
     32 H8         -0.4250   -2.4618    1.0532 H         1 <0>         0.1258
     33 H9          3.2325   -2.2044    0.9166 H         1 <0>         0.0671
     34 H10         3.2905   -2.2604   -0.8620 H         1 <0>         0.1255
     35 H11         2.1020   -0.0927   -0.9759 H         1 <0>         0.1387
     36 H12         3.5956    0.0581   -0.0196 H         1 <0>         0.1364
     37 H13         3.2513   -4.1829    1.0599 H         1 <0>         0.0945
     38 H14         1.8188   -3.8418    2.0448 H         1 <0>         0.0842
     39 H15         0.6244   -5.5473    3.0553 H         1 <0>         0.1260
     40 H16         0.3160   -7.9492    3.4928 H         1 <0>         0.1310
     41 H17         1.5265   -9.6219    2.1546 H         1 <0>         0.1353
     42 H18         3.0957   -8.8848    0.3929 H         1 <0>         0.1393
     43 H19         0.6761   -2.9955   -2.2400 H         1 <0>         0.1382
     44 H20         3.0536   -5.1787   -5.0221 H         1 <0>         0.1341
     45 H21         4.1239   -6.3350   -3.1557 H         1 <0>         0.1365
     46 H22         2.8755   -3.6189   -6.5158 H         1 <0>         0.0869
     47 H23         1.6213   -4.8787   -6.6061 H         1 <0>         0.0879
     48 H24         1.3822   -3.3237   -7.4385 H         1 <0>         0.1146
     49 H25         2.2727   -0.1999    1.9528 H         1 <0>         0.4222
@<TRIPOS>BOND
     1    1    2 1
     2    1   26 1
     3    1   27 1
     4    1   28 1
     5    2    7 1
     6    2    3 1
     7    2   49 1
     8    3    4 1
     9    3   29 1
    10    3   30 1
    11    4    5 1
    12    4   31 1
    13    4   32 1
    14    5    6 1
    15    5    8 1
    16    6    7 1
    17    6   33 1
    18    6   34 1
    19    7   35 1
    20    7   36 1
    21    8    9 1
    22    8   19 1
    23    8   10 1
    24   10   11 1
    25   10   37 1
    26   10   38 1
    27   11   16 ar
    28   11   12 ar
    29   12   13 ar
    30   12   39 1
    31   13   14 ar
    32   13   40 1
    33   14   15 ar
    34   14   41 1
    35   15   16 ar
    36   15   42 1
    37   16   17 1
    38   17   18 1
    39   18   23 ar
    40   18   19 ar
    41   19   20 ar
    42   20   21 ar
    43   20   43 1
    44   21   22 ar
    45   21   24 1
    46   22   23 ar
    47   22   44 1
    48   23   45 1
    49   24   25 1
    50   25   46 1
    51   25   47 1
    52   25   48 1
@<TRIPOS>MOLECULE
ZINC19362651
   48    51     0     0     0
SMALL
USER_CHARGES

@<TRIPOS>ATOM
      1 C1          1.7678    1.4835    1.0080 C.3       1 <0>         0.0249
      2 N1          1.7877    0.0147    0.9999 N.3       1 <0>        -0.5452
      3 C2          0.4233   -0.5307    1.0224 C.3       1 <0>         0.0573
      4 C3          0.4883   -2.0581    1.0935 C.3       1 <0>         0.0510
      5 N2          1.2373   -2.5683   -0.0634 N.3       1 <0>        -0.5276
      6 C4          2.6017   -2.0230   -0.0859 C.3       1 <0>         0.0532
      7 C5          2.5366   -0.4955   -0.1570 C.3       1 <0>         0.0574
      8 C6          1.2572   -4.0372   -0.0715 C.3       1 <0>         0.1374
      9 H1          0.2293   -4.3862    0.0269 H         1 <0>         0.0920
     10 C7          2.0183   -4.4959    1.1300 C.3       1 <0>        -0.1282
     11 C8          1.8194   -5.9476    1.4196 C.ar      1 <0>        -0.0436
     12 C9          0.9630   -6.3263    2.4467 C.ar      1 <0>        -0.1189
     13 C10         0.7474   -7.6683    2.6977 C.ar      1 <0>        -0.0964
     14 C11         1.3731   -8.6356    1.9317 C.ar      1 <0>        -0.1235
     15 C12         2.2351   -8.2590    0.9183 C.ar      1 <0>        -0.0672
     16 C13         2.4589   -6.9055    0.6894 C.ar      1 <0>        -0.1264
     17 S1          3.6180   -6.3874   -0.5264 S.3       1 <0>        -0.0147
     18 C14         2.7128   -5.4476   -1.7021 C.ar      1 <0>        -0.1066
     19 C15         1.7756   -4.4880   -1.4085 C.ar      1 <0>        -0.0308
     20 C16         1.1732   -3.8010   -2.4728 C.ar      1 <0>        -0.0744
     21 C17         1.4765   -4.0751   -3.7900 C.ar      1 <0>        -0.0779
     22 C18         2.4077   -5.0649   -4.0811 C.ar      1 <0>        -0.1253
     23 C19         3.0103   -5.7321   -3.0469 C.ar      1 <0>        -0.0718
     24 S2          0.6918   -3.1805   -5.0894 S.3       1 <0>        -0.1116
     25 C20         1.4043   -3.8866   -6.6008 C.3       1 <0>        -0.1460
     26 H2          1.2921    1.8454    0.0965 H         1 <0>         0.0270
     27 H3          1.2072    1.8345    1.8744 H         1 <0>         0.0688
     28 H4          2.7893    1.8604    1.0590 H         1 <0>         0.0692
     29 H5         -0.1068   -0.1483    1.8947 H         1 <0>         0.0809
     30 H6         -0.1032   -0.2309    0.1163 H         1 <0>         0.0439
     31 H7          0.9908   -2.3583    2.0131 H         1 <0>         0.0506
     32 H8         -0.5223   -2.4662    1.0812 H         1 <0>         0.0818
     33 H9          3.1282   -2.3228    0.8202 H         1 <0>         0.0496
     34 H10         3.1318   -2.4054   -0.9582 H         1 <0>         0.0812
     35 H11         2.0342   -0.1954   -1.0766 H         1 <0>         0.0437
     36 H12         3.5473   -0.0875   -0.1446 H         1 <0>         0.0799
     37 H13         3.0800   -4.3122    0.9652 H         1 <0>         0.0936
     38 H14         1.6933   -3.9170    1.9945 H         1 <0>         0.0901
     39 H15         0.4689   -5.5758    3.0458 H         1 <0>         0.1275
     40 H16         0.0850   -7.9641    3.4978 H         1 <0>         0.1273
     41 H17         1.1891   -9.6821    2.1250 H         1 <0>         0.1304
     42 H18         2.7278   -9.0055    0.3129 H         1 <0>         0.1355
     43 H19         0.4472   -3.0320   -2.2535 H         1 <0>         0.1402
     44 H20         2.6518   -5.3048   -5.1055 H         1 <0>         0.1300
     45 H21         3.7370   -6.4988   -3.2717 H         1 <0>         0.1324
     46 H22         1.1819   -4.9528   -6.6436 H         1 <0>         0.0844
     47 H23         0.9747   -3.3906   -7.4712 H         1 <0>         0.1104
     48 H24         2.4845   -3.7407   -6.5958 H         1 <0>         0.0846
@<TRIPOS>BOND
     1    1    2 1
     2    1   26 1
     3    1   27 1
     4    1   28 1
     5    2    7 1
     6    2    3 1
     7    3    4 1
     8    3   29 1
     9    3   30 1
    10    4    5 1
    11    4   31 1
    12    4   32 1
    13    5    6 1
    14    5    8 1
    15    6    7 1
    16    6   33 1
    17    6   34 1
    18    7   35 1
    19    7   36 1
    20    8    9 1
    21    8   19 1
    22    8   10 1
    23   10   11 1
    24   10   37 1
    25   10   38 1
    26   11   16 ar
    27   11   12 ar
    28   12   13 ar
    29   12   39 1
    30   13   14 ar
    31   13   40 1
    32   14   15 ar
    33   14   41 1
    34   15   16 ar
    35   15   42 1
    36   16   17 1
    37   17   18 1
    38   18   23 ar
    39   18   19 ar
    40   19   20 ar
    41   20   21 ar
    42   20   43 1
    43   21   22 ar
    44   21   24 1
    45   22   23 ar
    46   22   44 1
    47   23   45 1
    48   24   25 1
    49   25   46 1
    50   25   47 1
    51   25   48 1
@<TRIPOS>MOLECULE
ZINC19362651
   49    52     0     0     0
SMALL
USER_CHARGES

@<TRIPOS>ATOM
      1 C1          2.1658    1.4081    1.1053 C.3       1 <0>         0.0196
      2 N1          2.0995   -0.0585    1.0540 N.3       1 <0>        -0.5417
      3 C2          0.7129   -0.5279    1.1840 C.3       1 <0>         0.0269
      4 C3          0.6935   -2.0581    1.1857 C.3       1 <0>        -0.0137
      5 N2          1.2823   -2.5567   -0.0641 N.4       1 <0>        -0.3874
      6 C4          2.6745   -2.1002   -0.1679 C.3       1 <0>        -0.0103
      7 C5          2.7103   -0.5705   -0.1809 C.3       1 <0>         0.0280
      8 C6          1.2470   -4.0253   -0.0699 C.3       1 <0>         0.0987
      9 H1          0.2105   -4.3356    0.0618 H         1 <0>         0.1422
     10 C7          2.0284   -4.5112    1.1077 C.3       1 <0>        -0.1195
     11 C8          1.7848   -5.9542    1.4063 C.ar      1 <0>        -0.0629
     12 C9          0.9480   -6.2998    2.4609 C.ar      1 <0>        -0.1122
     13 C10         0.6905   -7.6326    2.7213 C.ar      1 <0>        -0.0884
     14 C11         1.2549   -8.6232    1.9378 C.ar      1 <0>        -0.1057
     15 C12         2.0977   -8.2799    0.8967 C.ar      1 <0>        -0.0611
     16 C13         2.3645   -6.9360    0.6581 C.ar      1 <0>        -0.1283
     17 S1          3.5028   -6.4626   -0.5950 S.3       1 <0>         0.0183
     18 C14         2.5963   -5.4905   -1.7432 C.ar      1 <0>        -0.0843
     19 C15         1.7054   -4.4963   -1.4219 C.ar      1 <0>        -0.0871
     20 C16         1.0955   -3.7881   -2.4679 C.ar      1 <0>        -0.1290
     21 C17         1.3463   -4.0744   -3.7934 C.ar      1 <0>        -0.0551
     22 C18         2.2302   -5.0986   -4.1120 C.ar      1 <0>        -0.1046
     23 C19         2.8401   -5.7870   -3.0962 C.ar      1 <0>        -0.0528
     24 S2          0.5545   -3.1522   -5.0691 S.3       1 <0>        -0.0919
     25 C20         1.1917   -3.8856   -6.6010 C.3       1 <0>        -0.1488
     26 H2          1.6318    1.8260    0.2520 H         1 <0>         0.0396
     27 H3          1.7070    1.7605    2.0291 H         1 <0>         0.0841
     28 H4          3.2079    1.7261    1.0729 H         1 <0>         0.0847
     29 H5          0.2897   -0.1578    2.1178 H         1 <0>         0.1262
     30 H6          0.1234   -0.1577    0.3452 H         1 <0>         0.0608
     31 H7          1.2718   -2.4277    2.0326 H         1 <0>         0.1442
     32 H8         -0.3354   -2.4083    1.2678 H         1 <0>         0.1379
     33 H9          3.2426   -2.4697    0.6858 H         1 <0>         0.1417
     34 H10         3.1142   -2.4818   -1.0895 H         1 <0>         0.1356
     35 H11         2.1537   -0.2009   -1.0422 H         1 <0>         0.0606
     36 H12         3.7443   -0.2314   -0.2429 H         1 <0>         0.1251
     37 H13         3.0904   -4.3675    0.9088 H         1 <0>         0.1137
     38 H14         1.7529   -3.9198    1.9809 H         1 <0>         0.1105
     39 H15         0.5015   -5.5308    3.0739 H         1 <0>         0.1329
     40 H16         0.0433   -7.9028    3.5426 H         1 <0>         0.1360
     41 H17         1.0381   -9.6619    2.1389 H         1 <0>         0.1395
     42 H18         2.5426   -9.0448    0.2774 H         1 <0>         0.1431
     43 H19         0.4061   -2.9923   -2.2271 H         1 <0>         0.1187
     44 H20         2.4323   -5.3483   -5.1432 H         1 <0>         0.1449
     45 H21         3.5300   -6.5806   -3.3424 H         1 <0>         0.1481
     46 H22         0.7534   -3.3746   -7.4582 H         1 <0>         0.1205
     47 H23         2.2762   -3.7802   -6.6306 H         1 <0>         0.0918
     48 H24         0.9284   -4.9428   -6.6346 H         1 <0>         0.0922
     49 H25         0.7538   -2.2050   -0.8484 H         1 <0>         0.4184
@<TRIPOS>BOND
     1    1    2 1
     2    1   26 1
     3    1   27 1
     4    1   28 1
     5    2    7 1
     6    2    3 1
     7    3    4 1
     8    3   29 1
     9    3   30 1
    10    4    5 1
    11    4   31 1
    12    4   32 1
    13    5    6 1
    14    5    8 1
    15    5   49 1
    16    6    7 1
    17    6   33 1
    18    6   34 1
    19    7   35 1
    20    7   36 1
    21    8    9 1
    22    8   19 1
    23    8   10 1
    24   10   11 1
    25   10   37 1
    26   10   38 1
    27   11   16 ar
    28   11   12 ar
    29   12   13 ar
    30   12   39 1
    31   13   14 ar
    32   13   40 1
    33   14   15 ar
    34   14   41 1
    35   15   16 ar
    36   15   42 1
    37   16   17 1
    38   17   18 1
    39   18   23 ar
    40   18   19 ar
    41   19   20 ar
    42   20   21 ar
    43   20   43 1
    44   21   22 ar
    45   21   24 1
    46   22   23 ar
    47   22   44 1
    48   23   45 1
    49   24   25 1
    50   25   46 1
    51   25   47 1
    52   25   48 1
