@<TRIPOS>MOLECULE
ZINC13130939
   40    42     0     0     0
SMALL
USER_CHARGES

@<TRIPOS>ATOM
      1 C1          0.0411    1.4484   -0.9047 C.ar      1 <0>        -0.1299
      2 C2          1.2157    2.1433   -0.6898 C.ar      1 <0>        -0.0642
      3 C3          2.4071    1.4537   -0.4670 C.ar      1 <0>        -0.0679
      4 C4          2.4125    0.0624   -0.4614 C.ar      1 <0>        -0.0092
      5 C5          1.2253   -0.6340   -0.6787 C.ar      1 <0>        -0.1457
      6 C6          0.0385    0.0681   -0.9006 C.ar      1 <0>        -0.0678
      7 C7          1.2220   -2.1126   -0.6749 C.2       1 <0>         0.5629
      8 O1          2.2558   -2.7222   -0.4820 O.2       1 <0>        -0.5322
      9 N1          0.0727   -2.7845   -0.8852 N.am      1 <0>        -0.8507
     10 C8          3.6669    2.2024   -0.2370 C.ar      1 <0>         0.2491
     11 C9          3.6550    3.5912   -0.1321 C.ar      1 <0>        -0.2721
     12 C10         4.8664    4.2464    0.0841 C.ar      1 <0>         0.4331
     13 N2          5.9813    3.5264    0.1816 N.ar      1 <0>        -0.5675
     14 C11         5.9508    2.2132    0.0767 C.ar      1 <0>         0.3475
     15 N3          4.8275    1.5557   -0.1220 N.ar      1 <0>        -0.5460
     16 N4          4.9090    5.6278    0.1954 N.pl3     1 <0>        -0.6506
     17 C12         6.1419    6.2851    0.2859 C.ar      1 <0>         0.1432
     18 C13         7.2388    5.8043   -0.4169 C.ar      1 <0>        -0.0763
     19 C14         8.4544    6.4532   -0.3271 C.ar      1 <0>        -0.1004
     20 C15         8.5800    7.5850    0.4649 C.ar      1 <0>         0.0871
     21 C16         7.4848    8.0660    1.1673 C.ar      1 <0>        -0.1678
     22 C17         6.2670    7.4216    1.0741 C.ar      1 <0>        -0.1071
     23 O2          9.7776    8.2232    0.5532 O.3       1 <0>        -0.3094
     24 C18         9.8352    9.3823    1.3869 C.3       1 <0>         0.6036
     25 F1          9.4991    9.0305    2.6986 F         1 <0>        -0.1650
     26 F2         11.1306    9.9102    1.3630 F         1 <0>        -0.1304
     27 F3          8.9321   10.3412    0.9154 F         1 <0>        -0.1655
     28 H1         -0.8796    1.9874   -1.0722 H         1 <0>         0.1377
     29 H2          1.2111    3.2232   -0.6946 H         1 <0>         0.1340
     30 H3          3.3331   -0.4755   -0.2897 H         1 <0>         0.1531
     31 H4         -0.8827   -0.4698   -1.0693 H         1 <0>         0.1313
     32 H5         -0.7522   -2.2981   -1.0391 H         1 <0>         0.4007
     33 H6          0.0706   -3.7545   -0.8827 H         1 <0>         0.4076
     34 H7          2.7321    4.1457   -0.2164 H         1 <0>         0.1469
     35 H8          6.8742    1.6594    0.1607 H         1 <0>         0.2027
     36 H9          4.0846    6.1388    0.2106 H         1 <0>         0.4229
     37 H10         7.1412    4.9228   -1.0333 H         1 <0>         0.1466
     38 H11         9.3077    6.0791   -0.8733 H         1 <0>         0.1432
     39 H12         7.5835    8.9473    1.7837 H         1 <0>         0.1371
     40 H13         5.4133    7.7988    1.6174 H         1 <0>         0.1355
@<TRIPOS>BOND
     1    1    6 ar
     2    1    2 ar
     3    1   28 1
     4    2    3 ar
     5    2   29 1
     6    3    4 ar
     7    3   10 1
     8    4    5 ar
     9    4   30 1
    10    5    6 ar
    11    5    7 1
    12    6   31 1
    13    7    8 2
    14    7    9 am
    15    9   32 1
    16    9   33 1
    17   10   15 ar
    18   10   11 ar
    19   11   12 ar
    20   11   34 1
    21   12   13 ar
    22   12   16 1
    23   13   14 ar
    24   14   15 ar
    25   14   35 1
    26   16   17 1
    27   16   36 1
    28   17   22 ar
    29   17   18 ar
    30   18   19 ar
    31   18   37 1
    32   19   20 ar
    33   19   38 1
    34   20   21 ar
    35   20   23 1
    36   21   22 ar
    37   21   39 1
    38   22   40 1
    39   23   24 1
    40   24   25 1
    41   24   26 1
    42   24   27 1
@<TRIPOS>MOLECULE
ZINC19632618
   69    73     0     0     0
SMALL
USER_CHARGES

@<TRIPOS>ATOM
      1 C1         -0.1643    1.5374    0.2772 C.3       1 <0>        -0.1166
      2 C2          0.0708    0.1281   -0.2021 C.ar      1 <0>        -0.1228
      3 C3         -0.6192   -0.3521   -1.2987 C.ar      1 <0>        -0.0806
      4 C4         -0.4070   -1.6434   -1.7410 C.ar      1 <0>        -0.1294
      5 C5          0.5017   -2.4641   -1.0837 C.ar      1 <0>         0.1504
      6 C6          1.1965   -1.9850    0.0175 C.ar      1 <0>        -0.1394
      7 C7          0.9852   -0.6852    0.4558 C.ar      1 <0>         0.1826
      8 N1          1.6874   -0.1967    1.5617 N.pl3     1 <0>        -0.6314
      9 C8          2.1285   -1.0695    2.5429 C.ar      1 <0>         0.5659
     10 N2          1.7764   -2.3456    2.4776 N.ar      1 <0>        -0.5577
     11 C9          2.1776   -3.2107    3.3953 C.ar      1 <0>         0.1910
     12 C10         2.9764   -2.7714    4.4364 C.ar      1 <0>        -0.2706
     13 C11         3.3313   -1.4207    4.4789 C.ar      1 <0>         0.2697
     14 N3          2.8950   -0.6087    3.5185 N.ar      1 <0>        -0.5576
     15 C12         4.1856   -0.9008    5.5740 C.ar      1 <0>        -0.1200
     16 C13         4.4510    0.4679    5.6793 C.ar      1 <0>        -0.0267
     17 C14         5.2541    0.9026    6.7193 C.ar      1 <0>        -0.1772
     18 C15         5.7636   -0.0222    7.6129 C.ar      1 <0>         0.1192
     19 N4          5.4957   -1.3077    7.4879 N.ar      1 <0>        -0.4844
     20 C16         4.7320   -1.7677    6.5181 C.ar      1 <0>         0.1336
     21 N5          0.7153   -3.7716   -1.5315 N.am      1 <0>        -0.6649
     22 C17         0.7404   -4.0356   -2.8529 C.2       1 <0>         0.5545
     23 O1          0.4912   -3.1555   -3.6535 O.2       1 <0>        -0.5086
     24 C18         1.0709   -5.3955   -3.3287 C.ar      1 <0>        -0.1216
     25 C19         1.3519   -6.4100   -2.4119 C.ar      1 <0>        -0.0841
     26 C20         1.6592   -7.6771   -2.8626 C.ar      1 <0>        -0.1244
     27 C21         1.6892   -7.9435   -4.2200 C.ar      1 <0>        -0.0692
     28 C22         1.4117   -6.9425   -5.1341 C.ar      1 <0>        -0.0994
     29 C23         1.0978   -5.6724   -4.6966 C.ar      1 <0>        -0.0536
     30 C24         2.0262   -9.3299   -4.7050 C.3       1 <0>         0.0939
     31 N6          0.7933  -10.1196   -4.8258 N.3       1 <0>        -0.5345
     32 C25         0.1866  -10.3538   -3.5078 C.3       1 <0>         0.0185
     33 C26        -1.1228  -11.1262   -3.6823 C.3       1 <0>        -0.0025
     34 N7         -0.8513  -12.4061   -4.3498 N.4       1 <0>        -0.3884
     35 C27        -0.2685  -12.1554   -5.6746 C.3       1 <0>        -0.0024
     36 C28         1.0481  -11.3916   -5.5166 C.3       1 <0>         0.0250
     37 C29        -2.1059  -13.1551   -4.5009 C.3       1 <0>        -0.0460
     38 H1          0.5251    2.2130   -0.2290 H         1 <0>         0.0728
     39 H2         -1.1901    1.8307    0.0540 H         1 <0>         0.0743
     40 H3          0.0021    1.5877    1.3533 H         1 <0>         0.0627
     41 H4         -1.3262    0.2836   -1.8111 H         1 <0>         0.1320
     42 H5         -0.9481   -2.0158   -2.5982 H         1 <0>         0.1349
     43 H6          1.9030   -2.6209    0.5302 H         1 <0>         0.1479
     44 H7          1.8658    0.7534    1.6418 H         1 <0>         0.4260
     45 H8          1.8844   -4.2483    3.3325 H         1 <0>         0.1734
     46 H9          3.3172   -3.4566    5.1985 H         1 <0>         0.1507
     47 H10         4.0401    1.1680    4.9670 H         1 <0>         0.1466
     48 H11         5.4807    1.9525    6.8318 H         1 <0>         0.1437
     49 H12         6.3909    0.3135    8.4254 H         1 <0>         0.1633
     50 H13         4.5316   -2.8268    6.4514 H         1 <0>         0.1617
     51 H14         0.8453   -4.4884   -0.8911 H         1 <0>         0.4084
     52 H15         1.3291   -6.2032   -1.3521 H         1 <0>         0.1294
     53 H16         1.8771   -8.4627   -2.1544 H         1 <0>         0.1265
     54 H17         1.4372   -7.1570   -6.1922 H         1 <0>         0.1340
     55 H18         0.8770   -4.8931   -5.4110 H         1 <0>         0.1424
     56 H19         2.5135   -9.2661   -5.6779 H         1 <0>         0.1008
     57 H20         2.6973   -9.8107   -3.9933 H         1 <0>         0.0595
     58 H21         0.8718  -10.9344   -2.8900 H         1 <0>         0.0618
     59 H22        -0.0167   -9.3975   -3.0259 H         1 <0>         0.1265
     60 H23        -1.5673  -11.3133   -2.7048 H         1 <0>         0.1359
     61 H24        -1.8127  -10.5393   -4.2887 H         1 <0>         0.1379
     62 H25        -0.0795  -13.1056   -6.1741 H         1 <0>         0.1367
     63 H26        -0.9627  -11.5633   -6.2708 H         1 <0>         0.1381
     64 H27         1.4733  -11.1924   -6.5003 H         1 <0>         0.1253
     65 H28         1.7474  -11.9892   -4.9320 H         1 <0>         0.0621
     66 H29        -2.8061  -12.5737   -5.1008 H         1 <0>         0.1233
     67 H30        -1.9046  -14.1049   -4.9963 H         1 <0>         0.1246
     68 H31        -2.5379  -13.3423   -3.5179 H         1 <0>         0.1243
     69 H32        -0.2036  -12.9443   -3.7940 H         1 <0>         0.4222
@<TRIPOS>BOND
     1    1    2 1
     2    1   38 1
     3    1   39 1
     4    1   40 1
     5    2    7 ar
     6    2    3 ar
     7    3    4 ar
     8    3   41 1
     9    4    5 ar
    10    4   42 1
    11    5    6 ar
    12    5   21 1
    13    6    7 ar
    14    6   43 1
    15    7    8 1
    16    8    9 1
    17    8   44 1
    18    9   14 ar
    19    9   10 ar
    20   10   11 ar
    21   11   12 ar
    22   11   45 1
    23   12   13 ar
    24   12   46 1
    25   13   14 ar
    26   13   15 1
    27   15   20 ar
    28   15   16 ar
    29   16   17 ar
    30   16   47 1
    31   17   18 ar
    32   17   48 1
    33   18   19 ar
    34   18   49 1
    35   19   20 ar
    36   20   50 1
    37   21   22 am
    38   21   51 1
    39   22   23 2
    40   22   24 1
    41   24   29 ar
    42   24   25 ar
    43   25   26 ar
    44   25   52 1
    45   26   27 ar
    46   26   53 1
    47   27   28 ar
    48   27   30 1
    49   28   29 ar
    50   28   54 1
    51   29   55 1
    52   30   31 1
    53   30   56 1
    54   30   57 1
    55   31   36 1
    56   31   32 1
    57   32   33 1
    58   32   58 1
    59   32   59 1
    60   33   34 1
    61   33   60 1
    62   33   61 1
    63   34   35 1
    64   34   37 1
    65   34   69 1
    66   35   36 1
    67   35   62 1
    68   35   63 1
    69   36   64 1
    70   36   65 1
    71   37   66 1
    72   37   67 1
    73   37   68 1
@<TRIPOS>MOLECULE
ZINC19632618
   69    73     0     0     0
SMALL
USER_CHARGES

@<TRIPOS>ATOM
      1 C1         -0.1643    1.5374    0.2772 C.3       1 <0>        -0.1179
      2 C2          0.0708    0.1281   -0.2021 C.ar      1 <0>        -0.1195
      3 C3         -0.6192   -0.3521   -1.2987 C.ar      1 <0>        -0.0803
      4 C4         -0.4070   -1.6434   -1.7410 C.ar      1 <0>        -0.1287
      5 C5          0.5017   -2.4641   -1.0837 C.ar      1 <0>         0.1452
      6 C6          1.1965   -1.9850    0.0175 C.ar      1 <0>        -0.1374
      7 C7          0.9852   -0.6852    0.4558 C.ar      1 <0>         0.1839
      8 N1          1.6874   -0.1967    1.5617 N.pl3     1 <0>        -0.6318
      9 C8          2.1285   -1.0695    2.5429 C.ar      1 <0>         0.5654
     10 N2          1.7764   -2.3456    2.4776 N.ar      1 <0>        -0.5590
     11 C9          2.1776   -3.2107    3.3953 C.ar      1 <0>         0.1907
     12 C10         2.9764   -2.7714    4.4364 C.ar      1 <0>        -0.2695
     13 C11         3.3313   -1.4207    4.4789 C.ar      1 <0>         0.2707
     14 N3          2.8950   -0.6087    3.5185 N.ar      1 <0>        -0.5571
     15 C12         4.1856   -0.9008    5.5740 C.ar      1 <0>        -0.1213
     16 C13         4.4510    0.4679    5.6793 C.ar      1 <0>        -0.0264
     17 C14         5.2541    0.9026    6.7193 C.ar      1 <0>        -0.1772
     18 C15         5.7636   -0.0222    7.6129 C.ar      1 <0>         0.1201
     19 N4          5.4957   -1.3077    7.4879 N.ar      1 <0>        -0.4842
     20 C16         4.7320   -1.7677    6.5181 C.ar      1 <0>         0.1342
     21 N5          0.7153   -3.7716   -1.5315 N.am      1 <0>        -0.6603
     22 C17         0.7404   -4.0356   -2.8529 C.2       1 <0>         0.5491
     23 O1          0.4912   -3.1555   -3.6535 O.2       1 <0>        -0.5015
     24 C18         1.0709   -5.3955   -3.3287 C.ar      1 <0>        -0.0938
     25 C19         1.3519   -6.4100   -2.4119 C.ar      1 <0>        -0.0834
     26 C20         1.6592   -7.6771   -2.8626 C.ar      1 <0>        -0.1009
     27 C21         1.6892   -7.9435   -4.2200 C.ar      1 <0>        -0.1382
     28 C22         1.4117   -6.9425   -5.1341 C.ar      1 <0>        -0.0966
     29 C23         1.0978   -5.6724   -4.6966 C.ar      1 <0>        -0.0538
     30 C24         2.0262   -9.3299   -4.7050 C.3       1 <0>         0.0425
     31 N6          0.7933  -10.1196   -4.8258 N.4       1 <0>        -0.3856
     32 C25         0.1989  -10.3052   -3.4955 C.3       1 <0>        -0.0078
     33 C26        -1.0954  -11.1117   -3.6230 C.3       1 <0>         0.0256
     34 N7         -0.7986  -12.4159   -4.2323 N.3       1 <0>        -0.5431
     35 C27        -0.1799  -12.2456   -5.5546 C.3       1 <0>         0.0239
     36 C28         1.1068  -11.4297   -5.4112 C.3       1 <0>        -0.0024
     37 C29        -2.0090  -13.2436   -4.3201 C.3       1 <0>         0.0192
     38 H1          0.5251    2.2130   -0.2290 H         1 <0>         0.0738
     39 H2         -1.1901    1.8307    0.0540 H         1 <0>         0.0752
     40 H3          0.0021    1.5877    1.3533 H         1 <0>         0.0636
     41 H4         -1.3262    0.2836   -1.8111 H         1 <0>         0.1330
     42 H5         -0.9481   -2.0158   -2.5982 H         1 <0>         0.1345
     43 H6          1.9030   -2.6209    0.5302 H         1 <0>         0.1487
     44 H7          1.8658    0.7534    1.6418 H         1 <0>         0.4265
     45 H8          1.8844   -4.2483    3.3325 H         1 <0>         0.1737
     46 H9          3.3172   -3.4566    5.1985 H         1 <0>         0.1513
     47 H10         4.0401    1.1680    4.9670 H         1 <0>         0.1465
     48 H11         5.4807    1.9525    6.8318 H         1 <0>         0.1439
     49 H12         6.3909    0.3135    8.4254 H         1 <0>         0.1636
     50 H13         4.5316   -2.8268    6.4514 H         1 <0>         0.1618
     51 H14         0.8453   -4.4884   -0.8911 H         1 <0>         0.4091
     52 H15         1.3291   -6.2032   -1.3521 H         1 <0>         0.1399
     53 H16         1.8771   -8.4627   -2.1544 H         1 <0>         0.1405
     54 H17         1.4372   -7.1570   -6.1922 H         1 <0>         0.1409
     55 H18         0.8770   -4.8931   -5.4110 H         1 <0>         0.1513
     56 H19         2.5135   -9.2661   -5.6779 H         1 <0>         0.1411
     57 H20         2.6973   -9.8107   -3.9933 H         1 <0>         0.1402
     58 H21         0.8998  -10.8418   -2.8560 H         1 <0>         0.1385
     59 H22        -0.0212   -9.3320   -3.0568 H         1 <0>         0.1352
     60 H23        -1.5289  -11.2624   -2.6343 H         1 <0>         0.1235
     61 H24        -1.8016  -10.5690   -4.2513 H         1 <0>         0.0601
     62 H25         0.0544  -13.2235   -5.9751 H         1 <0>         0.1247
     63 H26        -0.8711  -11.7216   -6.2147 H         1 <0>         0.0606
     64 H27         1.5598  -11.2902   -6.3927 H         1 <0>         0.1372
     65 H28         1.8030  -11.9606   -4.7619 H         1 <0>         0.1392
     66 H29        -2.7542  -12.7340   -4.9308 H         1 <0>         0.0396
     67 H30        -1.7610  -14.2028   -4.7745 H         1 <0>         0.0842
     68 H31        -2.4099  -13.4082   -3.3199 H         1 <0>         0.0844
     69 H32         0.1396   -9.6332   -5.4209 H         1 <0>         0.4206
@<TRIPOS>BOND
     1    1    2 1
     2    1   38 1
     3    1   39 1
     4    1   40 1
     5    2    7 ar
     6    2    3 ar
     7    3    4 ar
     8    3   41 1
     9    4    5 ar
    10    4   42 1
    11    5    6 ar
    12    5   21 1
    13    6    7 ar
    14    6   43 1
    15    7    8 1
    16    8    9 1
    17    8   44 1
    18    9   14 ar
    19    9   10 ar
    20   10   11 ar
    21   11   12 ar
    22   11   45 1
    23   12   13 ar
    24   12   46 1
    25   13   14 ar
    26   13   15 1
    27   15   20 ar
    28   15   16 ar
    29   16   17 ar
    30   16   47 1
    31   17   18 ar
    32   17   48 1
    33   18   19 ar
    34   18   49 1
    35   19   20 ar
    36   20   50 1
    37   21   22 am
    38   21   51 1
    39   22   23 2
    40   22   24 1
    41   24   29 ar
    42   24   25 ar
    43   25   26 ar
    44   25   52 1
    45   26   27 ar
    46   26   53 1
    47   27   28 ar
    48   27   30 1
    49   28   29 ar
    50   28   54 1
    51   29   55 1
    52   30   31 1
    53   30   56 1
    54   30   57 1
    55   31   36 1
    56   31   32 1
    57   31   69 1
    58   32   33 1
    59   32   58 1
    60   32   59 1
    61   33   34 1
    62   33   60 1
    63   33   61 1
    64   34   35 1
    65   34   37 1
    66   35   36 1
    67   35   62 1
    68   35   63 1
    69   36   64 1
    70   36   65 1
    71   37   66 1
    72   37   67 1
    73   37   68 1
@<TRIPOS>MOLECULE
ZINC19632618
   68    72     0     0     0
SMALL
USER_CHARGES

@<TRIPOS>ATOM
      1 C1         -0.1643    1.5374    0.2772 C.3       1 <0>        -0.1139
      2 C2          0.0708    0.1281   -0.2021 C.ar      1 <0>        -0.1276
      3 C3         -0.6192   -0.3521   -1.2987 C.ar      1 <0>        -0.0809
      4 C4         -0.4070   -1.6434   -1.7410 C.ar      1 <0>        -0.1296
      5 C5          0.5017   -2.4641   -1.0837 C.ar      1 <0>         0.1575
      6 C6          1.1965   -1.9850    0.0175 C.ar      1 <0>        -0.1408
      7 C7          0.9852   -0.6852    0.4558 C.ar      1 <0>         0.1805
      8 N1          1.6874   -0.1967    1.5617 N.pl3     1 <0>        -0.6310
      9 C8          2.1285   -1.0695    2.5429 C.ar      1 <0>         0.5658
     10 N2          1.7764   -2.3456    2.4776 N.ar      1 <0>        -0.5548
     11 C9          2.1776   -3.2107    3.3953 C.ar      1 <0>         0.1930
     12 C10         2.9764   -2.7714    4.4364 C.ar      1 <0>        -0.2707
     13 C11         3.3313   -1.4207    4.4789 C.ar      1 <0>         0.2660
     14 N3          2.8950   -0.6087    3.5185 N.ar      1 <0>        -0.5591
     15 C12         4.1856   -0.9008    5.5740 C.ar      1 <0>        -0.1161
     16 C13         4.4510    0.4679    5.6793 C.ar      1 <0>        -0.0277
     17 C14         5.2541    0.9026    6.7193 C.ar      1 <0>        -0.1780
     18 C15         5.7636   -0.0222    7.6129 C.ar      1 <0>         0.1167
     19 N4          5.4957   -1.3077    7.4879 N.ar      1 <0>        -0.4846
     20 C16         4.7320   -1.7677    6.5181 C.ar      1 <0>         0.1331
     21 N5          0.7153   -3.7716   -1.5315 N.am      1 <0>        -0.6684
     22 C17         0.7404   -4.0356   -2.8529 C.2       1 <0>         0.5607
     23 O1          0.4912   -3.1555   -3.6535 O.2       1 <0>        -0.5149
     24 C18         1.0709   -5.3955   -3.3287 C.ar      1 <0>        -0.1367
     25 C19         1.3519   -6.4100   -2.4119 C.ar      1 <0>        -0.0845
     26 C20         1.6592   -7.6771   -2.8626 C.ar      1 <0>        -0.1214
     27 C21         1.6892   -7.9435   -4.2200 C.ar      1 <0>        -0.0481
     28 C22         1.4117   -6.9425   -5.1341 C.ar      1 <0>        -0.1045
     29 C23         1.0978   -5.6724   -4.6966 C.ar      1 <0>        -0.0549
     30 C24         2.0262   -9.3299   -4.7050 C.3       1 <0>         0.0887
     31 N6          0.7933  -10.1196   -4.8258 N.3       1 <0>        -0.5346
     32 C25         0.1854  -10.3517   -3.5082 C.3       1 <0>         0.0528
     33 C26        -1.1341  -11.1069   -3.6840 C.3       1 <0>         0.0560
     34 N7         -0.8794  -12.3787   -4.3748 N.3       1 <0>        -0.5467
     35 C27        -0.2715  -12.1466   -5.6924 C.3       1 <0>         0.0557
     36 C28         1.0481  -11.3914   -5.5165 C.3       1 <0>         0.0569
     37 C29        -2.1122  -13.1683   -4.4955 C.3       1 <0>         0.0243
     38 H1          0.5251    2.2130   -0.2290 H         1 <0>         0.0707
     39 H2         -1.1901    1.8307    0.0540 H         1 <0>         0.0727
     40 H3          0.0021    1.5877    1.3533 H         1 <0>         0.0612
     41 H4         -1.3262    0.2836   -1.8111 H         1 <0>         0.1306
     42 H5         -0.9481   -2.0158   -2.5982 H         1 <0>         0.1361
     43 H6          1.9030   -2.6209    0.5302 H         1 <0>         0.1478
     44 H7          1.8658    0.7534    1.6418 H         1 <0>         0.4247
     45 H8          1.8844   -4.2483    3.3325 H         1 <0>         0.1749
     46 H9          3.3172   -3.4566    5.1985 H         1 <0>         0.1504
     47 H10         4.0401    1.1680    4.9670 H         1 <0>         0.1465
     48 H11         5.4807    1.9525    6.8318 H         1 <0>         0.1424
     49 H12         6.3909    0.3135    8.4254 H         1 <0>         0.1620
     50 H13         4.5316   -2.8268    6.4514 H         1 <0>         0.1624
     51 H14         0.8453   -4.4884   -0.8911 H         1 <0>         0.4098
     52 H15         1.3291   -6.2032   -1.3521 H         1 <0>         0.1256
     53 H16         1.8771   -8.4627   -2.1544 H         1 <0>         0.1277
     54 H17         1.4372   -7.1570   -6.1922 H         1 <0>         0.1323
     55 H18         0.8770   -4.8931   -5.4110 H         1 <0>         0.1380
     56 H19         2.5135   -9.2661   -5.6779 H         1 <0>         0.0885
     57 H20         2.6973   -9.8107   -3.9933 H         1 <0>         0.0490
     58 H21         0.8640  -10.9435   -2.8938 H         1 <0>         0.0436
     59 H22        -0.0051   -9.3950   -3.0219 H         1 <0>         0.0840
     60 H23        -1.5725  -11.3056   -2.7060 H         1 <0>         0.0799
     61 H24        -1.8225  -10.5033   -4.2756 H         1 <0>         0.0432
     62 H25        -0.0810  -13.1033   -6.1787 H         1 <0>         0.0811
     63 H26        -0.9501  -11.5548   -6.3068 H         1 <0>         0.0437
     64 H27         1.4864  -11.1926   -6.4945 H         1 <0>         0.0821
     65 H28         1.7364  -11.9950   -4.9250 H         1 <0>         0.0450
     66 H29        -2.8511  -12.6037   -5.0641 H         1 <0>         0.0271
     67 H30        -1.8953  -14.1043   -5.0104 H         1 <0>         0.0693
     68 H31        -2.5051  -13.3830   -3.5017 H         1 <0>         0.0693
@<TRIPOS>BOND
     1    1    2 1
     2    1   38 1
     3    1   39 1
     4    1   40 1
     5    2    7 ar
     6    2    3 ar
     7    3    4 ar
     8    3   41 1
     9    4    5 ar
    10    4   42 1
    11    5    6 ar
    12    5   21 1
    13    6    7 ar
    14    6   43 1
    15    7    8 1
    16    8    9 1
    17    8   44 1
    18    9   14 ar
    19    9   10 ar
    20   10   11 ar
    21   11   12 ar
    22   11   45 1
    23   12   13 ar
    24   12   46 1
    25   13   14 ar
    26   13   15 1
    27   15   20 ar
    28   15   16 ar
    29   16   17 ar
    30   16   47 1
    31   17   18 ar
    32   17   48 1
    33   18   19 ar
    34   18   49 1
    35   19   20 ar
    36   20   50 1
    37   21   22 am
    38   21   51 1
    39   22   23 2
    40   22   24 1
    41   24   29 ar
    42   24   25 ar
    43   25   26 ar
    44   25   52 1
    45   26   27 ar
    46   26   53 1
    47   27   28 ar
    48   27   30 1
    49   28   29 ar
    50   28   54 1
    51   29   55 1
    52   30   31 1
    53   30   56 1
    54   30   57 1
    55   31   36 1
    56   31   32 1
    57   32   33 1
    58   32   58 1
    59   32   59 1
    60   33   34 1
    61   33   60 1
    62   33   61 1
    63   34   35 1
    64   34   37 1
    65   35   36 1
    66   35   62 1
    67   35   63 1
    68   36   64 1
    69   36   65 1
    70   37   66 1
    71   37   67 1
    72   37   68 1
