@<TRIPOS>MOLECULE
ZINC00008046
   26    26     0     0     0
SMALL
USER_CHARGES
(E)-4-(4-hydroxy-3-methoxy-phenyl)but-3-en-2-one
@<TRIPOS>ATOM
      1 C1          1.2803    1.9817    0.0005 C.3       1 <0>        -0.1922
      2 C2         -0.0144    1.2105    0.0087 C.2       1 <0>         0.3783
      3 O1          0.0021   -0.0041    0.0020 O.2       1 <0>        -0.4704
      4 C3         -1.2430    1.8978    0.0183 C.2       1 <0>        -0.2463
      5 C4         -2.4077    1.2041    0.0200 C.2       1 <0>        -0.0017
      6 C5         -3.6887    1.9207    0.0300 C.ar      1 <0>        -0.0565
      7 C6         -3.7102    3.3212    0.0377 C.ar      1 <0>        -0.1146
      8 C7         -4.9135    3.9905    0.0471 C.ar      1 <0>        -0.1104
      9 C8         -6.1075    3.2807    0.0485 C.ar      1 <0>         0.0928
     10 C9         -6.0948    1.8859    0.0408 C.ar      1 <0>         0.1003
     11 C10        -4.8935    1.2061    0.0260 C.ar      1 <0>        -0.1690
     12 O2         -7.2665    1.1955    0.0422 O.3       1 <0>        -0.3061
     13 C11        -7.1791   -0.2308    0.0341 C.3       1 <0>         0.0224
     14 O3         -7.2908    3.9467    0.0569 O.3       1 <0>        -0.4848
     15 H1          2.0491    1.3423   -0.0103 H         1 <0>         0.0720
     16 H2          1.3210    2.6139   -0.8866 H         1 <0>         0.0917
     17 H3          1.3380    2.6043    0.8933 H         1 <0>         0.0918
     18 H4         -1.2577    2.9777    0.0242 H         1 <0>         0.1360
     19 H5         -2.3931    0.1242    0.0141 H         1 <0>         0.1365
     20 H6         -2.7835    3.8758    0.0359 H         1 <0>         0.1373
     21 H7         -4.9289    5.0704    0.0530 H         1 <0>         0.1426
     22 H8         -4.8825    0.1262    0.0152 H         1 <0>         0.1392
     23 H9         -6.6479   -0.5572   -0.8600 H         1 <0>         0.0574
     24 H10        -6.6400   -0.5669    0.9199 H         1 <0>         0.0579
     25 H11        -8.1826   -0.6564    0.0362 H         1 <0>         0.1047
     26 H12        -7.6373    4.1441   -0.8241 H         1 <0>         0.3912
@<TRIPOS>BOND
     1    1    2 1
     2    1   15 1
     3    1   16 1
     4    1   17 1
     5    2    3 2
     6    2    4 1
     7    4    5 2
     8    4   18 1
     9    5    6 1
    10    5   19 1
    11    6   11 ar
    12    6    7 ar
    13    7    8 ar
    14    7   20 1
    15    8    9 ar
    16    8   21 1
    17    9   10 ar
    18    9   14 1
    19   10   11 ar
    20   10   12 1
    21   11   22 1
    22   12   13 1
    23   13   23 1
    24   13   24 1
    25   13   25 1
    26   14   26 1
@<TRIPOS>MOLECULE
ZINC00899824
   47    48     0     0     0
SMALL
USER_CHARGES

@<TRIPOS>ATOM
      1 C1         -0.0173    1.4248    0.0099 C.3       1 <0>         0.0223
      2 O1          0.0021   -0.0041    0.0020 O.3       1 <0>        -0.3062
      3 C2          0.6062   -0.6075   -1.0564 C.ar      1 <0>         0.1006
      4 C3          1.1701    0.1578   -2.0573 C.ar      1 <0>        -0.1693
      5 C4          1.7915   -0.4674   -3.1460 C.ar      1 <0>        -0.0548
      6 C5          1.8369   -1.8658   -3.2124 C.ar      1 <0>        -0.1153
      7 C6          1.2717   -2.6208   -2.2092 C.ar      1 <0>        -0.1104
      8 C7          0.6608   -1.9995   -1.1274 C.ar      1 <0>         0.0921
      9 O2          0.1105   -2.7497   -0.1383 O.3       1 <0>        -0.4848
     10 C8          2.3926    0.3403   -4.2140 C.2       1 <0>        -0.0031
     11 C9          2.9934   -0.2669   -5.2666 C.2       1 <0>        -0.2426
     12 C10         3.5700    0.5078   -6.2910 C.2       1 <0>         0.3746
     13 C11         4.2380   -0.1673   -7.4611 C.3       1 <0>        -0.2163
     14 C12         4.7690    0.8780   -8.4080 C.2       1 <0>         0.3746
     15 O3          4.6195    2.0570   -8.1569 O.2       1 <0>        -0.4254
     16 C13         5.4382    0.4879   -9.5835 C.2       1 <0>        -0.2426
     17 C14         5.9159    1.4282  -10.4353 C.2       1 <0>        -0.0031
     18 C15         6.6137    1.0215  -11.6609 C.ar      1 <0>        -0.0549
     19 C16         6.7822   -0.3375  -11.9554 C.ar      1 <0>        -0.1153
     20 C17         7.4373   -0.7158  -13.1059 C.ar      1 <0>        -0.1104
     21 C18         7.9326    0.2469  -13.9763 C.ar      1 <0>         0.0920
     22 C19         7.7694    1.6023  -13.6901 C.ar      1 <0>         0.1006
     23 C20         7.1082    1.9913  -12.5425 C.ar      1 <0>        -0.1693
     24 O4          8.2569    2.5409  -14.5450 O.3       1 <0>        -0.3062
     25 C21         8.0541    3.9101  -14.1894 C.3       1 <0>         0.0223
     26 O5          8.5781   -0.1327  -15.1090 O.3       1 <0>        -0.4848
     27 O6          3.5292    1.7203   -6.2316 O.2       1 <0>        -0.4254
     28 H1          1.0053    1.8021    0.0021 H         1 <0>         0.0579
     29 H2         -0.5445    1.7859   -0.8732 H         1 <0>         0.0575
     30 H3         -0.5275    1.7763    0.9067 H         1 <0>         0.1046
     31 H4          1.1319    1.2357   -2.0014 H         1 <0>         0.1391
     32 H5          2.3148   -2.3516   -4.0503 H         1 <0>         0.1371
     33 H6          1.3073   -3.6990   -2.2614 H         1 <0>         0.1423
     34 H7         -0.8182   -2.9751   -0.2859 H         1 <0>         0.3908
     35 H8          2.3563    1.4184   -4.1613 H         1 <0>         0.1367
     36 H9          3.0298   -1.3450   -5.3193 H         1 <0>         0.1356
     37 H10         5.0615   -0.7848   -7.1027 H         1 <0>         0.1288
     38 H11         5.5711   -0.5604   -9.8068 H         1 <0>         0.1356
     39 H12         5.7830    2.4765  -10.2120 H         1 <0>         0.1368
     40 H13         6.3989   -1.0882  -11.2802 H         1 <0>         0.1371
     41 H14         7.5667   -1.7639  -13.3320 H         1 <0>         0.1423
     42 H15         6.9767    3.0405  -12.3226 H         1 <0>         0.1391
     43 H16         6.9855    4.1110  -14.1123 H         1 <0>         0.0575
     44 H17         8.5317    4.1110  -13.2305 H         1 <0>         0.0580
     45 H18         8.4902    4.5526  -14.9543 H         1 <0>         0.1045
     46 H19         7.9975   -0.2431  -15.8744 H         1 <0>         0.3910
     47 H20         3.5134   -0.7940   -7.9810 H         1 <0>         0.1286
@<TRIPOS>BOND
     1    1    2 1
     2    1   28 1
     3    1   29 1
     4    1   30 1
     5    2    3 1
     6    3    8 ar
     7    3    4 ar
     8    4    5 ar
     9    4   31 1
    10    5    6 ar
    11    5   10 1
    12    6    7 ar
    13    6   32 1
    14    7    8 ar
    15    7   33 1
    16    8    9 1
    17    9   34 1
    18   10   11 2
    19   10   35 1
    20   11   12 1
    21   11   36 1
    22   12   13 1
    23   12   27 2
    24   13   14 1
    25   13   37 1
    26   13   47 1
    27   14   15 2
    28   14   16 1
    29   16   17 2
    30   16   38 1
    31   17   18 1
    32   17   39 1
    33   18   23 ar
    34   18   19 ar
    35   19   20 ar
    36   19   40 1
    37   20   21 ar
    38   20   41 1
    39   21   22 ar
    40   21   26 1
    41   22   23 ar
    42   22   24 1
    43   23   42 1
    44   24   25 1
    45   25   43 1
    46   25   44 1
    47   25   45 1
    48   26   46 1
@<TRIPOS>MOLECULE
ZINC03816332
   30    32     0     0     0
SMALL
USER_CHARGES
2-(4-methylaminophenyl)benzothiazol-6-ol
@<TRIPOS>ATOM
      1 C1         11.2066   -0.5267   -0.1083 C.3       1 <0>         0.0863
      2 N1         10.1296   -1.5198   -0.1029 N.pl3     1 <0>        -0.7439
      3 C2          8.7990   -1.1048   -0.0875 C.ar      1 <0>         0.2408
      4 C3          7.7774   -2.0489   -0.0823 C.ar      1 <0>        -0.2003
      5 C4          6.4616   -1.6419   -0.0675 C.ar      1 <0>        -0.0115
      6 C5          6.1536   -0.2797   -0.0572 C.ar      1 <0>        -0.0944
      7 C6          7.1813    0.6658   -0.0673 C.ar      1 <0>        -0.0312
      8 C7          8.4953    0.2526   -0.0777 C.ar      1 <0>        -0.1987
      9 C8          4.7432    0.1602   -0.0418 C.2       1 <0>         0.2270
     10 N2          3.6508   -0.5719   -0.0354 N.2       1 <0>        -0.5103
     11 C9          2.4158   -0.0309   -0.0207 C.ar      1 <0>         0.0776
     12 C10         1.1689   -0.7008   -0.0129 C.ar      1 <0>        -0.0468
     13 C11         0.0021   -0.0041    0.0020 C.ar      1 <0>        -0.1329
     14 C12        -0.0168    1.3883    0.0097 C.ar      1 <0>         0.1273
     15 C13         1.1842    2.0819    0.0019 C.ar      1 <0>        -0.0923
     16 C14         2.3662    1.3831   -0.0127 C.ar      1 <0>        -0.1320
     17 S1          4.0874    1.8228   -0.0267 S.3       1 <0>        -0.0115
     18 O1         -1.1988    2.0599    0.0190 O.3       1 <0>        -0.4898
     19 H1         11.1165    0.1021   -0.9941 H         1 <0>         0.0569
     20 H2         11.1342    0.0926    0.7857 H         1 <0>         0.0569
     21 H3         12.1702   -1.0359   -0.1206 H         1 <0>         0.0769
     22 H4         10.3424   -2.4661   -0.1100 H         1 <0>         0.4045
     23 H5          8.0162   -3.1021   -0.0903 H         1 <0>         0.1302
     24 H6          5.6689   -2.3754   -0.0642 H         1 <0>         0.1367
     25 H7          6.9461    1.7199   -0.0639 H         1 <0>         0.1278
     26 H8          9.2905    0.9834   -0.0824 H         1 <0>         0.1314
     27 H9          1.1444   -1.7805   -0.0184 H         1 <0>         0.1385
     28 H10        -0.9335   -0.5436    0.0084 H         1 <0>         0.1410
     29 H11         1.1898    3.1619    0.0073 H         1 <0>         0.1400
     30 H12        -1.5365    2.2495    0.9050 H         1 <0>         0.3958
@<TRIPOS>BOND
     1    1    2 1
     2    1   19 1
     3    1   20 1
     4    1   21 1
     5    2    3 1
     6    2   22 1
     7    3    8 ar
     8    3    4 ar
     9    4    5 ar
    10    4   23 1
    11    5    6 ar
    12    5   24 1
    13    6    7 ar
    14    6    9 1
    15    7    8 ar
    16    7   25 1
    17    8   26 1
    18    9   17 1
    19    9   10 2
    20   10   11 1
    21   11   16 ar
    22   11   12 ar
    23   12   13 ar
    24   12   27 1
    25   13   14 ar
    26   13   28 1
    27   14   15 ar
    28   14   18 1
    29   15   16 ar
    30   15   29 1
    31   16   17 1
    32   18   30 1
@<TRIPOS>MOLECULE
ZINC00156552
   29    30     0     0     0
SMALL
USER_CHARGES
4-[2-(4-aminophenyl)vinyl]phenol
@<TRIPOS>ATOM
      1 C1          4.9401   -0.3463   -0.0399 C.ar      1 <0>        -0.0584
      2 C2          6.1461   -1.0117   -0.0605 C.ar      1 <0>        -0.1993
      3 C3          7.3379   -0.2949   -0.0684 C.ar      1 <0>         0.2217
      4 C4          7.3173    1.0958   -0.0607 C.ar      1 <0>        -0.1998
      5 C5          6.1154    1.7685   -0.0460 C.ar      1 <0>        -0.0536
      6 C6          4.9151    1.0515   -0.0383 C.ar      1 <0>        -0.1233
      7 C7          3.6275    1.7671   -0.0226 C.2       1 <0>        -0.0848
      8 C8          2.4755    1.0766   -0.0154 C.2       1 <0>        -0.1295
      9 C9          1.1877    1.7923    0.0003 C.ar      1 <0>        -0.0573
     10 C10        -0.0126    1.0758    0.0080 C.ar      1 <0>        -0.0953
     11 C11        -1.2146    1.7497    0.0173 C.ar      1 <0>        -0.1426
     12 C12        -1.2346    3.1384    0.0313 C.ar      1 <0>         0.1005
     13 C13        -0.0447    3.8547    0.0233 C.ar      1 <0>        -0.1416
     14 C14         1.1622    3.1898    0.0081 C.ar      1 <0>        -0.1014
     15 O1         -2.4222    3.7983    0.0462 O.3       1 <0>        -0.5002
     16 N1          8.5574   -0.9726   -0.0838 N.pl3     1 <0>        -0.8758
     17 H1          4.0151   -0.9037   -0.0295 H         1 <0>         0.1248
     18 H2          6.1662   -2.0915   -0.0662 H         1 <0>         0.1215
     19 H3          8.2449    1.6490   -0.0666 H         1 <0>         0.1218
     20 H4          6.1002    2.8484   -0.0399 H         1 <0>         0.1243
     21 H5          3.6099    2.8470   -0.0170 H         1 <0>         0.1198
     22 H6          2.4931   -0.0033   -0.0210 H         1 <0>         0.1221
     23 H7          0.0021   -0.0041    0.0020 H         1 <0>         0.1289
     24 H8         -2.1425    1.1970    0.0187 H         1 <0>         0.1297
     25 H9         -0.0654    4.9345    0.0293 H         1 <0>         0.1294
     26 H10         2.0870    3.7476    0.0019 H         1 <0>         0.1293
     27 H11        -2.7746    3.9939   -0.8328 H         1 <0>         0.3907
     28 H12         9.3894   -0.4739   -0.0891 H         1 <0>         0.3992
     29 H13         8.5733   -1.9424   -0.0892 H         1 <0>         0.3992
@<TRIPOS>BOND
     1    1    6 ar
     2    1    2 ar
     3    1   17 1
     4    2    3 ar
     5    2   18 1
     6    3    4 ar
     7    3   16 1
     8    4    5 ar
     9    4   19 1
    10    5    6 ar
    11    5   20 1
    12    6    7 1
    13    7    8 2
    14    7   21 1
    15    8    9 1
    16    8   22 1
    17    9   14 ar
    18    9   10 ar
    19   10   11 ar
    20   10   23 1
    21   11   12 ar
    22   11   24 1
    23   12   13 ar
    24   12   15 1
    25   13   14 ar
    26   13   25 1
    27   14   26 1
    28   15   27 1
    29   16   28 1
    30   16   29 1
@<TRIPOS>MOLECULE
ZINC13686356
   34    36     0     0     0
SMALL
USER_CHARGES
2-(4-dimethylaminophenyl)benzofuran-5-ol
@<TRIPOS>ATOM
      1 C1         -5.9964    3.8938   -0.0562 C.3       1 <0>         0.0896
      2 N1         -4.6785    4.5243    0.0516 N.pl3     1 <0>        -0.6333
      3 C2         -4.5705    5.9806    0.1695 C.3       1 <0>         0.0848
      4 C3         -3.5259    3.7378    0.0419 C.ar      1 <0>         0.2311
      5 C4         -3.6321    2.3513    0.0504 C.ar      1 <0>        -0.1983
      6 C5         -2.4959    1.5719    0.0413 C.ar      1 <0>        -0.0402
      7 C6         -1.2368    2.1757    0.0236 C.ar      1 <0>        -0.0979
      8 C7         -1.1336    3.5684    0.0204 C.ar      1 <0>        -0.0367
      9 C8         -2.2737    4.3422    0.0242 C.ar      1 <0>        -0.2003
     10 C9         -0.0164    1.3429    0.0143 C.2       1 <0>         0.1048
     11 C10         1.2516    1.8197   -0.0082 C.2       1 <0>        -0.2112
     12 C11         2.1270    0.6452   -0.0158 C.ar      1 <0>        -0.1060
     13 C12         3.5111    0.4648   -0.0371 C.ar      1 <0>        -0.1019
     14 C13         4.0314   -0.8149   -0.0390 C.ar      1 <0>         0.0915
     15 C14         3.1800   -1.9160   -0.0197 C.ar      1 <0>        -0.1206
     16 C15         1.8123   -1.7467    0.0014 C.ar      1 <0>        -0.0871
     17 C16         1.2693   -0.4685    0.0036 C.ar      1 <0>         0.0434
     18 O1          0.0019   -0.0044    0.0212 O.3       1 <0>        -0.1897
     19 O2          5.3785   -0.9994   -0.0601 O.3       1 <0>        -0.4952
     20 H1         -6.3690    3.6579    0.9406 H         1 <0>         0.0517
     21 H2         -6.6870    4.5776   -0.5498 H         1 <0>         0.0696
     22 H3         -5.9139    2.9768   -0.6396 H         1 <0>         0.0706
     23 H4         -3.5199    6.2700    0.1479 H         1 <0>         0.0800
     24 H5         -5.0945    6.4522   -0.6618 H         1 <0>         0.0594
     25 H6         -5.0169    6.3030    1.1102 H         1 <0>         0.0560
     26 H7         -4.6061    1.8849    0.0637 H         1 <0>         0.1289
     27 H8         -2.5790    0.4951    0.0482 H         1 <0>         0.1295
     28 H9         -0.1613    4.0384    0.0109 H         1 <0>         0.1299
     29 H10        -2.1946    5.4193    0.0177 H         1 <0>         0.1327
     30 H11         1.5554    2.8560   -0.0185 H         1 <0>         0.1596
     31 H12         4.1706    1.3199   -0.0524 H         1 <0>         0.1346
     32 H13         3.5953   -2.9129   -0.0216 H         1 <0>         0.1419
     33 H14         1.1622   -2.6090    0.0166 H         1 <0>         0.1375
     34 H15         5.7826   -1.0481    0.8171 H         1 <0>         0.3910
@<TRIPOS>BOND
     1    1    2 1
     2    1   20 1
     3    1   21 1
     4    1   22 1
     5    2    3 1
     6    2    4 1
     7    3   23 1
     8    3   24 1
     9    3   25 1
    10    4    9 ar
    11    4    5 ar
    12    5    6 ar
    13    5   26 1
    14    6    7 ar
    15    6   27 1
    16    7    8 ar
    17    7   10 1
    18    8    9 ar
    19    8   28 1
    20    9   29 1
    21   10   18 1
    22   10   11 2
    23   11   12 1
    24   11   30 1
    25   12   17 ar
    26   12   13 ar
    27   13   14 ar
    28   13   31 1
    29   14   15 ar
    30   14   19 1
    31   15   16 ar
    32   15   32 1
    33   16   17 ar
    34   16   33 1
    35   17   18 1
    36   19   34 1
@<TRIPOS>MOLECULE
ZINC13686348
   31    33     0     0     0
SMALL
USER_CHARGES
2-(4-methylaminophenyl)benzofuran-5-ol
@<TRIPOS>ATOM
      1 C1         -4.5684    5.9852    0.0589 C.3       1 <0>         0.0881
      2 N1         -4.6785    4.5243    0.0516 N.pl3     1 <0>        -0.7477
      3 C2         -3.5259    3.7379    0.0407 C.ar      1 <0>         0.2294
      4 C3         -3.6320    2.3514    0.0337 C.ar      1 <0>        -0.1959
      5 C4         -2.4958    1.5720    0.0234 C.ar      1 <0>        -0.0416
      6 C5         -1.2367    2.1760    0.0200 C.ar      1 <0>        -0.0970
      7 C6         -1.1335    3.5686    0.0323 C.ar      1 <0>        -0.0376
      8 C7         -2.2735    4.3424    0.0373 C.ar      1 <0>        -0.1969
      9 C8         -0.0162    1.3432    0.0094 C.2       1 <0>         0.1043
     10 C9          1.2519    1.8202   -0.0001 C.2       1 <0>        -0.2108
     11 C10         2.1274    0.6459   -0.0148 C.ar      1 <0>        -0.1061
     12 C11         3.5116    0.4656   -0.0294 C.ar      1 <0>        -0.1018
     13 C12         4.0319   -0.8140   -0.0416 C.ar      1 <0>         0.0915
     14 C13         3.1804   -1.9152   -0.0394 C.ar      1 <0>        -0.1205
     15 C14         1.8126   -1.7461   -0.0251 C.ar      1 <0>        -0.0871
     16 C15         1.2696   -0.4680   -0.0126 C.ar      1 <0>         0.0435
     17 O1          0.0021   -0.0041    0.0020 O.3       1 <0>        -0.1896
     18 O2          5.3791   -0.9983   -0.0563 O.3       1 <0>        -0.4952
     19 H1         -4.0237    6.3040    0.9476 H         1 <0>         0.0555
     20 H2         -4.0339    6.3138   -0.8323 H         1 <0>         0.0556
     21 H3         -5.5659    6.4246    0.0670 H         1 <0>         0.0760
     22 H4         -5.5525    4.1037    0.0543 H         1 <0>         0.4032
     23 H5         -4.6061    1.8849    0.0367 H         1 <0>         0.1269
     24 H6         -2.5789    0.4952    0.0183 H         1 <0>         0.1298
     25 H7         -0.1611    4.0386    0.0339 H         1 <0>         0.1297
     26 H8         -2.1944    5.4195    0.0427 H         1 <0>         0.1295
     27 H9          1.5557    2.8565    0.0025 H         1 <0>         0.1597
     28 H10         4.1712    1.3208   -0.0314 H         1 <0>         0.1346
     29 H11         3.5957   -2.9121   -0.0494 H         1 <0>         0.1419
     30 H12         1.1625   -2.6085   -0.0231 H         1 <0>         0.1376
     31 H13         5.7777   -1.0564    0.8228 H         1 <0>         0.3910
@<TRIPOS>BOND
     1    1    2 1
     2    1   19 1
     3    1   20 1
     4    1   21 1
     5    2    3 1
     6    2   22 1
     7    3    8 ar
     8    3    4 ar
     9    4    5 ar
    10    4   23 1
    11    5    6 ar
    12    5   24 1
    13    6    7 ar
    14    6    9 1
    15    7    8 ar
    16    7   25 1
    17    8   26 1
    18    9   17 1
    19    9   10 2
    20   10   11 1
    21   10   27 1
    22   11   16 ar
    23   11   12 ar
    24   12   13 ar
    25   12   28 1
    26   13   14 ar
    27   13   18 1
    28   14   15 ar
    29   14   29 1
    30   15   16 ar
    31   15   30 1
    32   16   17 1
    33   18   31 1
@<TRIPOS>MOLECULE
ZINC13686334
   31    33     0     0     0
SMALL
USER_CHARGES
4-(5-methoxybenzofuran-2-yl)aniline
@<TRIPOS>ATOM
      1 C1          5.8492   -2.3477   -0.0684 C.3       1 <0>         0.0260
      2 O1          5.3791   -0.9983   -0.0563 O.3       1 <0>        -0.3157
      3 C2          4.0319   -0.8140   -0.0416 C.ar      1 <0>         0.1139
      4 C3          3.1804   -1.9152   -0.0394 C.ar      1 <0>        -0.1787
      5 C4          1.8126   -1.7461   -0.0251 C.ar      1 <0>        -0.0638
      6 C5          1.2696   -0.4680   -0.0126 C.ar      1 <0>         0.0185
      7 C6          2.1274    0.6459   -0.0148 C.ar      1 <0>        -0.0825
      8 C7          3.5115    0.4656   -0.0294 C.ar      1 <0>        -0.1143
      9 C8          1.2519    1.8202   -0.0001 C.2       1 <0>        -0.2135
     10 C9         -0.0162    1.3432    0.0094 C.2       1 <0>         0.1073
     11 O2          0.0021   -0.0041    0.0020 O.3       1 <0>        -0.1905
     12 C10        -1.2367    2.1760    0.0200 C.ar      1 <0>        -0.0971
     13 C11        -1.1335    3.5686    0.0323 C.ar      1 <0>        -0.0368
     14 C12        -2.2735    4.3424    0.0373 C.ar      1 <0>        -0.1983
     15 C13        -3.5259    3.7379    0.0407 C.ar      1 <0>         0.2323
     16 C14        -3.6320    2.3514    0.0337 C.ar      1 <0>        -0.1994
     17 C15        -2.4958    1.5720    0.0234 C.ar      1 <0>        -0.0406
     18 N1         -4.6785    4.5243    0.0516 N.pl3     1 <0>        -0.8720
     19 H1          5.4925   -2.8648    0.8224 H         1 <0>         0.0564
     20 H2          5.4744   -2.8551   -0.9574 H         1 <0>         0.0564
     21 H3          6.9391   -2.3527   -0.0795 H         1 <0>         0.1017
     22 H4          3.5957   -2.9121   -0.0494 H         1 <0>         0.1408
     23 H5          1.1625   -2.6085   -0.0231 H         1 <0>         0.1360
     24 H6          4.1712    1.3208   -0.0314 H         1 <0>         0.1365
     25 H7          1.5557    2.8565    0.0022 H         1 <0>         0.1598
     26 H8         -0.1611    4.0386    0.0339 H         1 <0>         0.1306
     27 H9         -2.1944    5.4195    0.0427 H         1 <0>         0.1287
     28 H10        -4.6061    1.8849    0.0360 H         1 <0>         0.1267
     29 H11        -2.5789    0.4952    0.0183 H         1 <0>         0.1297
     30 H12        -5.5525    4.1037    0.0543 H         1 <0>         0.4009
     31 H13        -4.6056    5.4916    0.0564 H         1 <0>         0.4010
@<TRIPOS>BOND
     1    1    2 1
     2    1   19 1
     3    1   20 1
     4    1   21 1
     5    2    3 1
     6    3    8 ar
     7    3    4 ar
     8    4    5 ar
     9    4   22 1
    10    5    6 ar
    11    5   23 1
    12    6   11 1
    13    6    7 ar
    14    7    8 ar
    15    7    9 1
    16    8   24 1
    17    9   10 2
    18    9   25 1
    19   10   11 1
    20   10   12 1
    21   12   17 ar
    22   12   13 ar
    23   13   14 ar
    24   13   26 1
    25   14   15 ar
    26   14   27 1
    27   15   16 ar
    28   15   18 1
    29   16   17 ar
    30   16   28 1
    31   17   29 1
    32   18   30 1
    33   18   31 1
@<TRIPOS>MOLECULE
ZINC03080662
   38    39     0     0     0
SMALL
USER_CHARGES

@<TRIPOS>ATOM
      1 C1         -0.0164    1.3616    0.0095 C.ar      1 <0>        -0.1152
      2 C2          1.1981    2.0771    0.0018 C.ar      1 <0>         0.0120
      3 C3          2.4185    1.3719   -0.0137 C.ar      1 <0>        -0.1243
      4 C4          2.4115    0.0062   -0.0209 C.ar      1 <0>        -0.0413
      5 C5          1.2097   -0.6870   -0.0132 C.ar      1 <0>        -0.0166
      6 C6          0.0021   -0.0041    0.0020 C.ar      1 <0>        -0.0427
      7 N1          1.2159   -2.1672   -0.0212 N.pl3     1 <0>        -0.0187
      8 O1          2.3592   -2.8208   -0.0356 O.2       1 <0>        -0.1730
      9 O2          0.0782   -2.8305   -0.0139 O.3       1 <0>        -0.1720
     10 C7          1.1921    3.4883    0.0089 C.2       1 <0>        -0.1259
     11 C8          2.4030    4.1943    0.0012 C.2       1 <0>        -0.0821
     12 C9          2.3972    5.5720    0.0082 C.2       1 <0>        -0.1069
     13 C10         3.6203    6.2851    0.0003 C.2       1 <0>        -0.1069
     14 C11         3.6145    7.6627    0.0073 C.2       1 <0>        -0.0822
     15 C12         4.8253    8.3687   -0.0004 C.2       1 <0>        -0.1259
     16 C13         4.8194    9.7800    0.0067 C.ar      1 <0>         0.0120
     17 C14         3.5990   10.4851    0.0275 C.ar      1 <0>        -0.1243
     18 C15         3.6060   11.8509    0.0342 C.ar      1 <0>        -0.0413
     19 C16         4.8078   12.5441    0.0207 C.ar      1 <0>        -0.0166
     20 C17         6.0153   11.8612   -0.0003 C.ar      1 <0>        -0.0426
     21 C18         6.0339   10.4955   -0.0010 C.ar      1 <0>        -0.1152
     22 N2          4.8015   14.0243    0.0282 N.pl3     1 <0>        -0.0187
     23 O3          3.6583   14.6779    0.0476 O.2       1 <0>        -0.1729
     24 O4          5.9392   14.6876    0.0153 O.3       1 <0>        -0.1721
     25 H1         -0.9576    1.8910    0.0258 H         1 <0>         0.1527
     26 H2          3.3553    1.9094   -0.0201 H         1 <0>         0.1509
     27 H3          3.3452   -0.5364   -0.0331 H         1 <0>         0.1569
     28 H4         -0.9271   -0.5546    0.0083 H         1 <0>         0.1575
     29 H5          0.2546    4.0243    0.0204 H         1 <0>         0.1359
     30 H6          3.3405    3.6583   -0.0103 H         1 <0>         0.1265
     31 H7          1.4597    6.1080    0.0196 H         1 <0>         0.1264
     32 H8          4.5578    5.7491   -0.0111 H         1 <0>         0.1264
     33 H9          2.6769    8.1988    0.0188 H         1 <0>         0.1265
     34 H10         5.7629    7.8327   -0.0119 H         1 <0>         0.1359
     35 H11         2.6623    9.9476    0.0378 H         1 <0>         0.1509
     36 H12         2.6723   12.3934    0.0498 H         1 <0>         0.1569
     37 H13         6.9444   12.4117   -0.0114 H         1 <0>         0.1575
     38 H14         6.9752    9.9660   -0.0121 H         1 <0>         0.1528
@<TRIPOS>BOND
     1    1    6 ar
     2    1    2 ar
     3    1   25 1
     4    2    3 ar
     5    2   10 1
     6    3    4 ar
     7    3   26 1
     8    4    5 ar
     9    4   27 1
    10    5    6 ar
    11    5    7 1
    12    6   28 1
    13    7    8 2
    14    7    9 1
    15   10   11 2
    16   10   29 1
    17   11   12 1
    18   11   30 1
    19   12   13 2
    20   12   31 1
    21   13   14 1
    22   13   32 1
    23   14   15 2
    24   14   33 1
    25   15   16 1
    26   15   34 1
    27   16   21 ar
    28   16   17 ar
    29   17   18 ar
    30   17   35 1
    31   18   19 ar
    32   18   36 1
    33   19   20 ar
    34   19   22 1
    35   20   21 ar
    36   20   37 1
    37   21   38 1
    38   22   23 2
    39   22   24 1
@<TRIPOS>MOLECULE
ZINC13686344
   34    36     0     0     0
SMALL
USER_CHARGES
4-(5-methoxybenzofuran-2-yl)-N-methyl-aniline
@<TRIPOS>ATOM
      1 C1         -4.5684    5.9852    0.0589 C.3       1 <0>         0.0882
      2 N1         -4.6785    4.5243    0.0516 N.pl3     1 <0>        -0.7479
      3 C2         -3.5259    3.7379    0.0407 C.ar      1 <0>         0.2291
      4 C3         -3.6320    2.3514    0.0337 C.ar      1 <0>        -0.1962
      5 C4         -2.4958    1.5720    0.0234 C.ar      1 <0>        -0.0415
      6 C5         -1.2367    2.1760    0.0200 C.ar      1 <0>        -0.0966
      7 C6         -1.1335    3.5686    0.0323 C.ar      1 <0>        -0.0374
      8 C7         -2.2735    4.3424    0.0373 C.ar      1 <0>        -0.1970
      9 C8         -0.0162    1.3432    0.0094 C.2       1 <0>         0.1078
     10 C9          1.2519    1.8202   -0.0001 C.2       1 <0>        -0.2139
     11 C10         2.1274    0.6459   -0.0148 C.ar      1 <0>        -0.0823
     12 C11         3.5116    0.4656   -0.0294 C.ar      1 <0>        -0.1144
     13 C12         4.0319   -0.8140   -0.0416 C.ar      1 <0>         0.1139
     14 C13         3.1804   -1.9152   -0.0394 C.ar      1 <0>        -0.1789
     15 C14         1.8126   -1.7461   -0.0251 C.ar      1 <0>        -0.0638
     16 C15         1.2696   -0.4680   -0.0126 C.ar      1 <0>         0.0183
     17 O1          0.0021   -0.0041    0.0020 O.3       1 <0>        -0.1905
     18 O2          5.3791   -0.9983   -0.0563 O.3       1 <0>        -0.3157
     19 C16         5.8492   -2.3477   -0.0684 C.3       1 <0>         0.0261
     20 H1         -4.0237    6.3040    0.9476 H         1 <0>         0.0555
     21 H2         -4.0339    6.3138   -0.8323 H         1 <0>         0.0555
     22 H3         -5.5659    6.4246    0.0670 H         1 <0>         0.0757
     23 H4         -5.5525    4.1037    0.0543 H         1 <0>         0.4031
     24 H5         -4.6061    1.8849    0.0367 H         1 <0>         0.1266
     25 H6         -2.5789    0.4952    0.0183 H         1 <0>         0.1296
     26 H7         -0.1611    4.0386    0.0339 H         1 <0>         0.1301
     27 H8         -2.1944    5.4195    0.0427 H         1 <0>         0.1294
     28 H9          1.5557    2.8565    0.0025 H         1 <0>         0.1597
     29 H10         4.1712    1.3208   -0.0314 H         1 <0>         0.1365
     30 H11         3.5957   -2.9121   -0.0494 H         1 <0>         0.1407
     31 H12         1.1625   -2.6085   -0.0231 H         1 <0>         0.1359
     32 H13         5.4744   -2.8551   -0.9574 H         1 <0>         0.0563
     33 H14         6.9391   -2.3527   -0.0795 H         1 <0>         0.1016
     34 H15         5.4925   -2.8648    0.8224 H         1 <0>         0.0564
@<TRIPOS>BOND
     1    1    2 1
     2    1   20 1
     3    1   21 1
     4    1   22 1
     5    2    3 1
     6    2   23 1
     7    3    8 ar
     8    3    4 ar
     9    4    5 ar
    10    4   24 1
    11    5    6 ar
    12    5   25 1
    13    6    7 ar
    14    6    9 1
    15    7    8 ar
    16    7   26 1
    17    8   27 1
    18    9   17 1
    19    9   10 2
    20   10   11 1
    21   10   28 1
    22   11   16 ar
    23   11   12 ar
    24   12   13 ar
    25   12   29 1
    26   13   14 ar
    27   13   18 1
    28   14   15 ar
    29   14   30 1
    30   15   16 ar
    31   15   31 1
    32   16   17 1
    33   18   19 1
    34   19   32 1
    35   19   33 1
    36   19   34 1
@<TRIPOS>MOLECULE
ZINC13675690
   32    34     0     0     0
SMALL
USER_CHARGES
6-iodo-2-(4-methylaminophenyl)chromen-4-one
@<TRIPOS>ATOM
      1 C1          7.4691   -3.9319   -0.0875 C.3       1 <0>         0.0848
      2 N1          7.4020   -2.4685   -0.0800 N.pl3     1 <0>        -0.7413
      3 C2          6.1661   -1.8287   -0.0652 C.ar      1 <0>         0.2448
      4 C3          6.1042   -0.4381   -0.0581 C.ar      1 <0>        -0.2032
      5 C4          4.8837    0.1979   -0.0435 C.ar      1 <0>        -0.0235
      6 C5          3.7050   -0.5545   -0.0363 C.ar      1 <0>        -0.1449
      7 C6          3.7710   -1.9514   -0.0386 C.ar      1 <0>        -0.0225
      8 C7          4.9949   -2.5808   -0.0581 C.ar      1 <0>        -0.2030
      9 C8          2.3960    0.1231   -0.0202 C.2       1 <0>         0.2310
     10 C9          1.2652   -0.6364   -0.0134 C.2       1 <0>        -0.3335
     11 C10         0.0021   -0.0041    0.0020 C.2       1 <0>         0.4240
     12 O1         -1.0315   -0.6523    0.0080 O.2       1 <0>        -0.4700
     13 C11        -0.0180    1.4726    0.0101 C.ar      1 <0>        -0.2188
     14 C12        -1.2182    2.1806    0.0311 C.ar      1 <0>         0.0050
     15 C13        -1.1949    3.5589    0.0326 C.ar      1 <0>        -0.1367
     16 C14         0.0153    4.2380    0.0247 C.ar      1 <0>        -0.0261
     17 C15         1.2087    3.5481    0.0096 C.ar      1 <0>        -0.1344
     18 C16         1.2064    2.1586    0.0021 C.ar      1 <0>         0.1657
     19 O2          2.3639    1.4648   -0.0131 O.3       1 <0>        -0.2193
     20 I1         -2.9936    4.6327    0.0555 I         1 <0>        -0.0220
     21 H1          8.5123   -4.2477   -0.0989 H         1 <0>         0.0781
     22 H2          6.9810   -4.3226    0.8054 H         1 <0>         0.0581
     23 H3          6.9640   -4.3143   -0.9745 H         1 <0>         0.0582
     24 H4          8.2188   -1.9454   -0.0853 H         1 <0>         0.4050
     25 H5          7.0149    0.1424   -0.0637 H         1 <0>         0.1297
     26 H6          4.8364    1.2769   -0.0373 H         1 <0>         0.1344
     27 H7          2.8627   -2.5356   -0.0289 H         1 <0>         0.1357
     28 H8          5.0466   -3.6596   -0.0640 H         1 <0>         0.1326
     29 H9          1.3339   -1.7142   -0.0195 H         1 <0>         0.1623
     30 H10        -2.1605    1.6529    0.0419 H         1 <0>         0.1490
     31 H11         0.0222    5.3180    0.0300 H         1 <0>         0.1476
     32 H12         2.1446    4.0871    0.0039 H         1 <0>         0.1532
@<TRIPOS>BOND
     1    1    2 1
     2    1   21 1
     3    1   22 1
     4    1   23 1
     5    2    3 1
     6    2   24 1
     7    3    8 ar
     8    3    4 ar
     9    4    5 ar
    10    4   25 1
    11    5    6 ar
    12    5   26 1
    13    6    7 ar
    14    6    9 1
    15    7    8 ar
    16    7   27 1
    17    8   28 1
    18    9   19 1
    19    9   10 2
    20   10   11 1
    21   10   29 1
    22   11   12 2
    23   11   13 1
    24   13   18 ar
    25   13   14 ar
    26   14   15 ar
    27   14   30 1
    28   15   16 ar
    29   15   20 1
    30   16   17 ar
    31   16   31 1
    32   17   18 ar
    33   17   32 1
    34   18   19 1
@<TRIPOS>MOLECULE
ZINC12403124
   52    55     0     0     0
SMALL
USER_CHARGES

@<TRIPOS>ATOM
      1 C1         -0.0165    1.3668    0.0096 C.ar      1 <0>        -0.1094
      2 C2          1.1827    2.0820    0.0019 C.ar      1 <0>        -0.0321
      3 C3          2.4023    1.4025   -0.0138 C.ar      1 <0>        -0.1114
      4 C4          2.4241    0.0317   -0.0213 C.ar      1 <0>        -0.0660
      5 C5          1.2234   -0.6863   -0.0132 C.ar      1 <0>         0.0637
      6 C6          0.0021   -0.0041    0.0020 C.ar      1 <0>        -0.1050
      7 N1          1.2435   -2.0515   -0.0211 N.2       1 <0>        -0.2483
      8 N2          0.1360   -2.7129   -0.0137 N.2       1 <0>        -0.1841
      9 C7          0.1560   -4.0780   -0.0216 C.ar      1 <0>         0.0023
     10 C8         -1.0409   -4.7930   -0.0194 C.ar      1 <0>         0.0071
     11 C9         -1.0136   -6.1873   -0.0280 C.ar      1 <0>        -0.1760
     12 C10         0.2200   -6.8602   -0.0389 C.ar      1 <0>         0.1815
     13 C11         1.4059   -6.1370   -0.0410 C.ar      1 <0>        -0.1785
     14 C12         1.3795   -4.7607   -0.0379 C.ar      1 <0>        -0.0757
     15 O1          0.2526   -8.2148   -0.0468 O.3       1 <0>        -0.4726
     16 C13        -2.2720   -6.9512   -0.0253 C.2       1 <0>         0.5238
     17 O2         -3.3446   -6.3629   -0.0154 O.co2     1 <0>        -0.6862
     18 O3         -2.2452   -8.1742   -0.0328 O.co2     1 <0>        -0.6697
     19 C14         1.1609    3.5628    0.0101 C.ar      1 <0>        -0.0321
     20 C15        -0.0588    4.2423    0.0311 C.ar      1 <0>        -0.1114
     21 C16        -0.0805    5.6131    0.0381 C.ar      1 <0>        -0.0660
     22 C17         1.1201    6.3311    0.0248 C.ar      1 <0>         0.0637
     23 C18         2.3414    5.6489    0.0042 C.ar      1 <0>        -0.1050
     24 C19         2.3600    4.2780    0.0024 C.ar      1 <0>        -0.1094
     25 N3          1.1000    7.6963    0.0313 N.2       1 <0>        -0.2483
     26 N4          2.2074    8.3577    0.0190 N.2       1 <0>        -0.1841
     27 C20         2.1873    9.7228    0.0256 C.ar      1 <0>         0.0023
     28 C21         3.3841   10.4379    0.0064 C.ar      1 <0>         0.0071
     29 C22         3.3567   11.8323    0.0128 C.ar      1 <0>        -0.1760
     30 C23         2.1233   12.5051    0.0384 C.ar      1 <0>         0.1815
     31 C24         0.9376   11.7818    0.0573 C.ar      1 <0>        -0.1785
     32 C25         0.9640   10.4055    0.0457 C.ar      1 <0>        -0.0757
     33 O4          2.0906   13.8597    0.0452 O.3       1 <0>        -0.4726
     34 C26         4.6150   12.5963   -0.0069 C.2       1 <0>         0.5238
     35 O5          5.6874   12.0081   -0.0288 O.co2     1 <0>        -0.6862
     36 O6          4.5881   13.8193   -0.0012 O.co2     1 <0>        -0.6697
     37 H1         -0.9591    1.8937    0.0259 H         1 <0>         0.1301
     38 H2          3.3291    1.9570   -0.0204 H         1 <0>         0.1340
     39 H3          3.3676   -0.4936   -0.0338 H         1 <0>         0.1348
     40 H4         -0.9256   -0.5570    0.0082 H         1 <0>         0.1397
     41 H5         -1.9854   -4.2692   -0.0107 H         1 <0>         0.1442
     42 H6          2.3526   -6.6566   -0.0493 H         1 <0>         0.1282
     43 H7          2.3055   -4.2049   -0.0441 H         1 <0>         0.1351
     44 H8          0.2571   -8.6029   -0.9325 H         1 <0>         0.3906
     45 H9         -0.9854    3.6877    0.0414 H         1 <0>         0.1340
     46 H10        -1.0240    6.1384    0.0537 H         1 <0>         0.1348
     47 H11         3.2690    6.2019   -0.0062 H         1 <0>         0.1397
     48 H12         3.3027    3.7511   -0.0090 H         1 <0>         0.1301
     49 H13         4.3284    9.9142   -0.0129 H         1 <0>         0.1442
     50 H14        -0.0090   12.3013    0.0771 H         1 <0>         0.1282
     51 H15         0.0380    9.8498    0.0560 H         1 <0>         0.1350
     52 H16         2.0650   14.2569   -0.8361 H         1 <0>         0.3906
@<TRIPOS>BOND
     1    1    6 ar
     2    1    2 ar
     3    1   37 1
     4    2    3 ar
     5    2   19 1
     6    3    4 ar
     7    3   38 1
     8    4    5 ar
     9    4   39 1
    10    5    6 ar
    11    5    7 1
    12    6   40 1
    13    7    8 2
    14    8    9 1
    15    9   14 ar
    16    9   10 ar
    17   10   11 ar
    18   10   41 1
    19   11   12 ar
    20   11   16 1
    21   12   13 ar
    22   12   15 1
    23   13   14 ar
    24   13   42 1
    25   14   43 1
    26   15   44 1
    27   16   17 2
    28   16   18 1
    29   19   24 ar
    30   19   20 ar
    31   20   21 ar
    32   20   45 1
    33   21   22 ar
    34   21   46 1
    35   22   23 ar
    36   22   25 1
    37   23   24 ar
    38   23   47 1
    39   24   48 1
    40   25   26 2
    41   26   27 1
    42   27   32 ar
    43   27   28 ar
    44   28   29 ar
    45   28   49 1
    46   29   30 ar
    47   29   34 1
    48   30   31 ar
    49   30   33 1
    50   31   32 ar
    51   31   50 1
    52   32   51 1
    53   33   52 1
    54   34   35 2
    55   34   36 1
@<TRIPOS>MOLECULE
ZINC04343325
   43    45     0     0     0
SMALL
USER_CHARGES

@<TRIPOS>ATOM
      1 C1          0.4449    1.2091   -0.1332 C.3       1 <0>        -0.1270
      2 C2          0.1968   -0.2957   -0.0115 C.3       1 <0>        -0.0844
      3 C3          0.8817   -1.1890   -1.0905 C.3       1 <0>        -0.1158
      4 C4          0.9121   -2.6026   -0.4657 C.3       1 <0>        -0.1322
      5 C5          0.2427   -2.4303    0.9320 C.3       1 <0>        -0.0923
      6 H1          0.4593   -3.2089    1.6633 H         1 <0>         0.0999
      7 C6          0.7144   -0.9800    1.3028 C.3       1 <0>        -0.1187
      8 C7         -1.2656   -2.1927    0.6158 C.3       1 <0>        -0.0668
      9 C8         -1.2974   -0.7413    0.0009 C.3       1 <0>         0.1625
     10 H2         -1.8920   -0.0604    0.6099 H         1 <0>         0.0960
     11 N1         -1.8244   -0.7993   -1.3649 N.pl3     1 <0>        -1.1035
     12 S1         -3.1767    0.0673   -1.7680 S.o2      1 <0>         2.6891
     13 O1         -3.4164   -0.1726   -3.1480 O.2       1 <0>        -0.9567
     14 O2         -4.1478   -0.2064   -0.7673 O.2       1 <0>        -0.9498
     15 C9         -2.7658    1.7741   -1.6176 C.ar      1 <0>        -0.6908
     16 C10        -2.9510    2.4255   -0.4124 C.ar      1 <0>         0.0093
     17 C11        -2.6287    3.7640   -0.2931 C.ar      1 <0>        -0.1731
     18 C12        -2.1200    4.4527   -1.3812 C.ar      1 <0>         0.1586
     19 C13        -1.9349    3.7993   -2.5878 C.ar      1 <0>        -0.1739
     20 C14        -2.2531    2.4594   -2.7033 C.ar      1 <0>         0.0125
     21 F1         -1.8049    5.7614   -1.2659 F         1 <0>        -0.1281
     22 C15        -1.7743   -3.2411   -0.3757 C.3       1 <0>        -0.1391
     23 C16        -2.0924   -2.2284    1.9026 C.3       1 <0>        -0.1462
     24 H3          1.5173    1.4033   -0.1127 H         1 <0>         0.0627
     25 H4          0.0280    1.5713   -1.0729 H         1 <0>         0.0582
     26 H5         -0.0337    1.7248    0.6993 H         1 <0>         0.0591
     27 H6          0.2952   -1.1922   -2.0093 H         1 <0>         0.0655
     28 H7          1.8950   -0.8384   -1.2867 H         1 <0>         0.0668
     29 H8          0.3406   -3.3007   -1.0773 H         1 <0>         0.0755
     30 H9          1.9403   -2.9469   -0.3547 H         1 <0>         0.0634
     31 H10         1.7983   -0.9145    1.3981 H         1 <0>         0.0739
     32 H11         0.2070   -0.5991    2.1891 H         1 <0>         0.0724
     33 H12        -1.3812   -1.3453   -2.0330 H         1 <0>         0.4204
     34 H13        -3.3481    1.8882    0.4362 H         1 <0>         0.1492
     35 H14        -2.7738    4.2728    0.6485 H         1 <0>         0.1470
     36 H15        -1.5385    4.3355   -3.4373 H         1 <0>         0.1469
     37 H16        -2.1046    1.9483   -3.6431 H         1 <0>         0.1502
     38 H17        -1.5285   -4.2376   -0.0087 H         1 <0>         0.0601
     39 H18        -2.8553   -3.1485   -0.4796 H         1 <0>         0.0580
     40 H19        -1.3013   -3.0840   -1.3451 H         1 <0>         0.0603
     41 H20        -1.7276   -1.4652    2.5901 H         1 <0>         0.0572
     42 H21        -3.1390   -2.0352    1.6675 H         1 <0>         0.0639
     43 H22        -1.9995   -3.2101    2.3671 H         1 <0>         0.0596
@<TRIPOS>BOND
     1    1    2 1
     2    1   24 1
     3    1   25 1
     4    1   26 1
     5    2    7 1
     6    2    9 1
     7    2    3 1
     8    3    4 1
     9    3   27 1
    10    3   28 1
    11    4    5 1
    12    4   29 1
    13    4   30 1
    14    5    6 1
    15    5    7 1
    16    5    8 1
    17    7   31 1
    18    7   32 1
    19    8    9 1
    20    8   22 1
    21    8   23 1
    22    9   10 1
    23    9   11 1
    24   11   12 1
    25   11   33 1
    26   12   13 2
    27   12   14 2
    28   12   15 1
    29   15   20 ar
    30   15   16 ar
    31   16   17 ar
    32   16   34 1
    33   17   18 ar
    34   17   35 1
    35   18   19 ar
    36   18   21 1
    37   19   20 ar
    38   19   36 1
    39   20   37 1
    40   22   38 1
    41   22   39 1
    42   22   40 1
    43   23   41 1
    44   23   42 1
    45   23   43 1
@<TRIPOS>MOLECULE
ZINC00162211
   43    45     0     0     0
SMALL
USER_CHARGES

@<TRIPOS>ATOM
      1 C1         -0.1058    1.4905    0.3305 C.3       1 <0>        -0.1268
      2 C2         -0.0623   -0.0387    0.3074 C.3       1 <0>        -0.0803
      3 C3         -1.4152   -0.7633    0.5833 C.3       1 <0>        -0.1174
      4 C4         -1.0126   -2.1941    1.0079 C.3       1 <0>        -0.1317
      5 C5          0.5455   -2.1993    0.9486 C.3       1 <0>        -0.0919
      6 H1          1.0415   -2.9831    1.5209 H         1 <0>         0.0992
      7 C6          0.8571   -0.7227    1.3799 C.3       1 <0>        -0.1198
      8 C7          0.8783   -2.1526   -0.5740 C.3       1 <0>        -0.0704
      9 C8          0.4895   -0.6852   -0.9998 C.3       1 <0>         0.1625
     10 H2          1.3546   -0.1301   -1.3624 H         1 <0>         0.0952
     11 N1         -0.5548   -0.7333   -2.0261 N.pl3     1 <0>        -1.1037
     12 S1         -0.3694    0.1148   -3.4363 S.o2      1 <0>         2.6892
     13 O1         -1.5205   -0.1527   -4.2254 O.2       1 <0>        -0.9569
     14 O2          0.0134    1.4333   -3.0700 O.2       1 <0>        -0.9484
     15 C9          1.0016   -0.5885   -4.2909 C.ar      1 <0>        -0.6908
     16 C10         2.2773   -0.1055   -4.0660 C.ar      1 <0>         0.0084
     17 C11         3.3534   -0.6566   -4.7353 C.ar      1 <0>        -0.1736
     18 C12         3.1536   -1.6931   -5.6314 C.ar      1 <0>         0.1581
     19 C13         1.8755   -2.1761   -5.8558 C.ar      1 <0>        -0.1740
     20 C14         0.8015   -1.6268   -5.1814 C.ar      1 <0>         0.0122
     21 F1          4.2048   -2.2324   -6.2866 F         1 <0>        -0.1279
     22 C15         2.3746   -2.3783   -0.8001 C.3       1 <0>        -0.1440
     23 C16         0.0593   -3.1997   -1.3314 C.3       1 <0>        -0.1386
     24 H3          0.8992    1.8849    0.1806 H         1 <0>         0.0613
     25 H4         -0.7588    1.8475   -0.4659 H         1 <0>         0.0651
     26 H5         -0.4889    1.8286    1.2934 H         1 <0>         0.0602
     27 H6         -1.9554   -0.2658    1.3887 H         1 <0>         0.0674
     28 H7         -2.0222   -0.7921   -0.3216 H         1 <0>         0.0656
     29 H8         -1.3550   -2.4000    2.0220 H         1 <0>         0.0636
     30 H9         -1.4218   -2.9263    0.3118 H         1 <0>         0.0742
     31 H10         1.9077   -0.4688    1.2393 H         1 <0>         0.0720
     32 H11         0.5236   -0.5148    2.3966 H         1 <0>         0.0747
     33 H12        -1.3548   -1.2618   -1.8796 H         1 <0>         0.4205
     34 H13         2.4328    0.7032   -3.3672 H         1 <0>         0.1497
     35 H14         4.3498   -0.2789   -4.5597 H         1 <0>         0.1472
     36 H15         1.7184   -2.9842   -6.5548 H         1 <0>         0.1472
     37 H16        -0.1949   -2.0064   -5.3529 H         1 <0>         0.1504
     38 H17         2.6537   -3.3640   -0.4276 H         1 <0>         0.0604
     39 H18         2.5944   -2.3171   -1.8659 H         1 <0>         0.0546
     40 H19         2.9418   -1.6148   -0.2677 H         1 <0>         0.0596
     41 H20        -0.9954   -2.9260   -1.3032 H         1 <0>         0.0624
     42 H21         0.3956   -3.2444   -2.3673 H         1 <0>         0.0550
     43 H22         0.1943   -4.1748   -0.8632 H         1 <0>         0.0603
@<TRIPOS>BOND
     1    1    2 1
     2    1   24 1
     3    1   25 1
     4    1   26 1
     5    2    7 1
     6    2    9 1
     7    2    3 1
     8    3    4 1
     9    3   27 1
    10    3   28 1
    11    4    5 1
    12    4   29 1
    13    4   30 1
    14    5    6 1
    15    5    7 1
    16    5    8 1
    17    7   31 1
    18    7   32 1
    19    8    9 1
    20    8   22 1
    21    8   23 1
    22    9   10 1
    23    9   11 1
    24   11   12 1
    25   11   33 1
    26   12   13 2
    27   12   14 2
    28   12   15 1
    29   15   20 ar
    30   15   16 ar
    31   16   17 ar
    32   16   34 1
    33   17   18 ar
    34   17   35 1
    35   18   19 ar
    36   18   21 1
    37   19   20 ar
    38   19   36 1
    39   20   37 1
    40   22   38 1
    41   22   39 1
    42   22   40 1
    43   23   41 1
    44   23   42 1
    45   23   43 1
@<TRIPOS>MOLECULE
ZINC04343323
   43    45     0     0     0
SMALL
USER_CHARGES

@<TRIPOS>ATOM
      1 C1          0.1612    1.4685    0.0020 C.3       1 <0>        -0.1254
      2 C2          0.1158   -0.0608    0.0167 C.3       1 <0>        -0.0730
      3 C3          0.8982   -0.7770   -1.1262 C.3       1 <0>        -0.1155
      4 C4          1.1236   -2.2144   -0.6043 C.3       1 <0>        -0.1319
      5 C5          0.4561   -2.2314    0.8047 C.3       1 <0>        -0.0902
      6 H1          0.7835   -3.0240    1.4776 H         1 <0>         0.0983
      7 C6          0.7369   -0.7611    1.2765 C.3       1 <0>        -0.1202
      8 C7         -1.0745   -2.1746    0.5123 C.3       1 <0>        -0.0774
      9 C8         -1.3061   -0.7006    0.0030 C.3       1 <0>         0.1568
     10 H2         -1.7026   -0.7237   -1.0120 H         1 <0>         0.0961
     11 N1         -2.2081    0.0404    0.8882 N.pl3     1 <0>        -1.1004
     12 S1         -3.8055    0.2122    0.4869 S.o2      1 <0>         2.6927
     13 O1         -4.4128    0.9450    1.5421 O.2       1 <0>        -0.9555
     14 O2         -3.8400    0.6516   -0.8640 O.2       1 <0>        -0.9512
     15 C9         -4.5248   -1.3961    0.5118 C.ar      1 <0>        -0.6903
     16 C10        -4.5263   -2.1699   -0.6338 C.ar      1 <0>         0.0129
     17 C11        -5.0897   -3.4317   -0.6153 C.ar      1 <0>        -0.1740
     18 C12        -5.6529   -3.9208    0.5512 C.ar      1 <0>         0.1599
     19 C13        -5.6509   -3.1449    1.6979 C.ar      1 <0>        -0.1745
     20 C14        -5.0822   -1.8855    1.6785 C.ar      1 <0>         0.0143
     21 F1         -6.2044   -5.1539    0.5703 F         1 <0>        -0.1279
     22 C15        -1.8720   -2.4102    1.7966 C.3       1 <0>        -0.1528
     23 C16        -1.4534   -3.2087   -0.5497 C.3       1 <0>        -0.1531
     24 H3          1.1987    1.8014    0.0322 H         1 <0>         0.0622
     25 H4         -0.3125    1.8373   -0.9077 H         1 <0>         0.0629
     26 H5         -0.3701    1.8561    0.8712 H         1 <0>         0.0599
     27 H6          0.3051   -0.7933   -2.0405 H         1 <0>         0.0670
     28 H7          1.8535   -0.2820   -1.3008 H         1 <0>         0.0699
     29 H8          0.6412   -2.9375   -1.2621 H         1 <0>         0.0756
     30 H9          2.1897   -2.4262   -0.5223 H         1 <0>         0.0637
     31 H10         1.8038   -0.5592    1.3721 H         1 <0>         0.0728
     32 H11         0.1955   -0.5144    2.1898 H         1 <0>         0.0701
     33 H12        -1.8696    0.4304    1.7093 H         1 <0>         0.4199
     34 H13        -4.0872   -1.7881   -1.5436 H         1 <0>         0.1496
     35 H14        -5.0910   -4.0359   -1.5105 H         1 <0>         0.1472
     36 H15        -6.0902   -3.5252    2.6083 H         1 <0>         0.1471
     37 H16        -5.0765   -1.2818    2.5740 H         1 <0>         0.1511
     38 H17        -1.6021   -1.6557    2.5355 H         1 <0>         0.0598
     39 H18        -2.9381   -2.3417    1.5800 H         1 <0>         0.0620
     40 H19        -1.6439   -3.4012    2.1892 H         1 <0>         0.0554
     41 H20        -1.0618   -4.1846   -0.2625 H         1 <0>         0.0626
     42 H21        -2.5389   -3.2630   -0.6330 H         1 <0>         0.0583
     43 H22        -1.0295   -2.9154   -1.5100 H         1 <0>         0.0654
@<TRIPOS>BOND
     1    1    2 1
     2    1   24 1
     3    1   25 1
     4    1   26 1
     5    2    7 1
     6    2    9 1
     7    2    3 1
     8    3    4 1
     9    3   27 1
    10    3   28 1
    11    4    5 1
    12    4   29 1
    13    4   30 1
    14    5    6 1
    15    5    7 1
    16    5    8 1
    17    7   31 1
    18    7   32 1
    19    8    9 1
    20    8   22 1
    21    8   23 1
    22    9   10 1
    23    9   11 1
    24   11   12 1
    25   11   33 1
    26   12   13 2
    27   12   14 2
    28   12   15 1
    29   15   20 ar
    30   15   16 ar
    31   16   17 ar
    32   16   34 1
    33   17   18 ar
    34   17   35 1
    35   18   19 ar
    36   18   21 1
    37   19   20 ar
    38   19   36 1
    39   20   37 1
    40   22   38 1
    41   22   39 1
    42   22   40 1
    43   23   41 1
    44   23   42 1
    45   23   43 1
@<TRIPOS>MOLECULE
ZINC13522719
   36    38     0     0     0
SMALL
USER_CHARGES

@<TRIPOS>ATOM
      1 C1         -0.0178    1.4608    0.0101 C.3       1 <0>         0.0872
      2 N1          0.0021   -0.0041    0.0020 N.pl3     1 <0>        -0.6303
      3 C2          0.0241   -0.7433    1.2666 C.3       1 <0>         0.0873
      4 C3          0.0000   -0.6945   -1.2089 C.ar      1 <0>         0.2395
      5 C4          0.0131   -2.0854   -1.2149 C.ar      1 <0>        -0.2031
      6 C5          0.0111   -2.7704   -2.4099 C.ar      1 <0>        -0.0127
      7 C6         -0.0041   -2.0670   -3.6163 C.ar      1 <0>        -0.0909
      8 C7         -0.0173   -0.6706   -3.6071 C.ar      1 <0>        -0.0326
      9 C8         -0.0209    0.0088   -2.4088 C.ar      1 <0>        -0.1994
     10 C9         -0.0058   -2.7988   -4.8998 C.2       1 <0>         0.2158
     11 N2         -0.0003   -4.0971   -5.1092 N.2       1 <0>        -0.5032
     12 C10        -0.0028   -4.6316   -6.3470 C.ar      1 <0>         0.0479
     13 C11         0.0028   -6.0005   -6.7073 C.ar      1 <0>        -0.0207
     14 C12        -0.0003   -6.3789   -8.0127 C.ar      1 <0>        -0.1909
     15 C13        -0.0086   -5.4434   -9.0441 C.ar      1 <0>         0.1500
     16 C14        -0.0144   -4.0919   -8.7325 C.ar      1 <0>        -0.1046
     17 C15        -0.0117   -3.7038   -7.4153 C.ar      1 <0>        -0.1069
     18 S1         -0.0238   -2.1450   -6.5631 S.3       1 <0>        -0.0098
     19 O1         -0.0106   -5.8500  -10.3414 O.3       1 <0>        -0.3083
     20 C16        -0.0038   -7.2590  -10.5796 C.3       1 <0>         0.0243
     21 H1          1.0048    1.8381    0.0023 H         1 <0>         0.0532
     22 H2         -0.5450    1.8219   -0.8730 H         1 <0>         0.0723
     23 H3         -0.5280    1.8123    0.9069 H         1 <0>         0.0701
     24 H4         -0.9979   -0.9406    1.5900 H         1 <0>         0.0531
     25 H5          0.5496   -1.6879    1.1262 H         1 <0>         0.0724
     26 H6          0.5371   -0.1514    2.0246 H         1 <0>         0.0701
     27 H7          0.0253   -2.6288   -0.2816 H         1 <0>         0.1316
     28 H8          0.0217   -3.8504   -2.4139 H         1 <0>         0.1356
     29 H9         -0.0291   -0.1239   -4.5384 H         1 <0>         0.1276
     30 H10        -0.0356    1.0887   -2.4010 H         1 <0>         0.1322
     31 H11         0.0100   -6.7546   -5.9343 H         1 <0>         0.1373
     32 H12         0.0042   -7.4311   -8.2561 H         1 <0>         0.1399
     33 H13        -0.0208   -3.3515   -9.5187 H         1 <0>         0.1423
     34 H14         0.8899   -7.6981  -10.1364 H         1 <0>         0.0593
     35 H15        -0.8900   -7.7077  -10.1307 H         1 <0>         0.0593
     36 H16        -0.0063   -7.4459  -11.6535 H         1 <0>         0.1049
@<TRIPOS>BOND
     1    1    2 1
     2    1   21 1
     3    1   22 1
     4    1   23 1
     5    2    3 1
     6    2    4 1
     7    3   24 1
     8    3   25 1
     9    3   26 1
    10    4    9 ar
    11    4    5 ar
    12    5    6 ar
    13    5   27 1
    14    6    7 ar
    15    6   28 1
    16    7    8 ar
    17    7   10 1
    18    8    9 ar
    19    8   29 1
    20    9   30 1
    21   10   18 1
    22   10   11 2
    23   11   12 1
    24   12   17 ar
    25   12   13 ar
    26   13   14 ar
    27   13   31 1
    28   14   15 ar
    29   14   32 1
    30   15   16 ar
    31   15   19 1
    32   16   17 ar
    33   16   33 1
    34   17   18 1
    35   19   20 1
    36   20   34 1
    37   20   35 1
    38   20   36 1
@<TRIPOS>MOLECULE
ZINC00056936
   35    37     0     0     0
SMALL
USER_CHARGES

@<TRIPOS>ATOM
      1 C1         -0.0184    1.5028    0.0103 C.3       1 <0>        -0.1138
      2 C2          0.0021   -0.0041    0.0020 C.ar      1 <0>        -0.0638
      3 C3          0.0060   -0.6984   -1.1998 C.ar      1 <0>        -0.1107
      4 C4          0.0247   -2.0573   -1.2395 C.ar      1 <0>        -0.0597
      5 C5          0.0406   -2.8177   -0.0457 C.ar      1 <0>         0.0785
      6 C6          0.0362   -2.0815    1.1626 C.ar      1 <0>        -0.1390
      7 C7          0.0229   -0.7086    1.1914 C.ar      1 <0>        -0.0692
      8 S1          0.0600   -3.3665    2.3891 S.3       1 <0>        -0.0216
      9 C8          0.0738   -4.7526    1.2608 C.2       1 <0>         0.2250
     10 N1          0.0599   -4.1585    0.0871 N.2       1 <0>        -0.5113
     11 C9          0.0958   -6.1976    1.5680 C.ar      1 <0>        -0.0939
     12 C10         0.1028   -6.6306    2.8958 C.ar      1 <0>        -0.0312
     13 C11         0.1228   -7.9784    3.1790 C.ar      1 <0>        -0.1999
     14 C12         0.1360   -8.9079    2.1442 C.ar      1 <0>         0.2408
     15 C13         0.1295   -8.4797    0.8207 C.ar      1 <0>        -0.2035
     16 C14         0.1037   -7.1333    0.5312 C.ar      1 <0>        -0.0111
     17 N2          0.1563  -10.2710    2.4340 N.pl3     1 <0>        -0.6298
     18 C15         0.1637  -10.7236    3.8273 C.3       1 <0>         0.0870
     19 C16         0.1702  -11.2512    1.3453 C.3       1 <0>         0.0870
     20 H1          1.0042    1.8801    0.0026 H         1 <0>         0.0764
     21 H2         -0.5455    1.8639   -0.8728 H         1 <0>         0.0725
     22 H3         -0.5286    1.8543    0.9071 H         1 <0>         0.0704
     23 H4         -0.0066   -0.1450   -2.1272 H         1 <0>         0.1339
     24 H5          0.0272   -2.5629   -2.1938 H         1 <0>         0.1330
     25 H6          0.0247   -0.1836    2.1353 H         1 <0>         0.1332
     26 H7          0.0929   -5.9094    3.6996 H         1 <0>         0.1277
     27 H8          0.1287   -8.3138    4.2056 H         1 <0>         0.1326
     28 H9          0.1405   -9.2036    0.0194 H         1 <0>         0.1321
     29 H10         0.0938   -6.8015   -0.4965 H         1 <0>         0.1360
     30 H11        -0.8621  -10.8510    4.1734 H         1 <0>         0.0534
     31 H12         0.6916  -11.6746    3.8976 H         1 <0>         0.0704
     32 H13         0.6669   -9.9820    4.4476 H         1 <0>         0.0723
     33 H14         1.2012  -11.4791    1.0748 H         1 <0>         0.0535
     34 H15        -0.3301  -12.1632    1.6711 H         1 <0>         0.0704
     35 H16        -0.3502  -10.8406    0.4801 H         1 <0>         0.0726
@<TRIPOS>BOND
     1    1    2 1
     2    1   20 1
     3    1   21 1
     4    1   22 1
     5    2    7 ar
     6    2    3 ar
     7    3    4 ar
     8    3   23 1
     9    4    5 ar
    10    4   24 1
    11    5   10 1
    12    5    6 ar
    13    6    7 ar
    14    6    8 1
    15    7   25 1
    16    8    9 1
    17    9   10 2
    18    9   11 1
    19   11   16 ar
    20   11   12 ar
    21   12   13 ar
    22   12   26 1
    23   13   14 ar
    24   13   27 1
    25   14   15 ar
    26   14   17 1
    27   15   16 ar
    28   15   28 1
    29   16   29 1
    30   17   18 1
    31   17   19 1
    32   18   30 1
    33   18   31 1
    34   18   32 1
    35   19   33 1
    36   19   34 1
    37   19   35 1
@<TRIPOS>MOLECULE
ZINC13522707
   32    34     0     0     0
SMALL
USER_CHARGES
N-methyl-4-(6-methyl-1,3-benzothiazol-2-yl)aniline
@<TRIPOS>ATOM
      1 C1          3.6875   -0.8129   -0.0371 C.3       1 <0>        -0.1139
      2 C2          2.4014   -0.0276   -0.0211 C.ar      1 <0>        -0.0635
      3 C3          1.1789   -0.6849   -0.0129 C.ar      1 <0>        -0.1108
      4 C4          0.0021   -0.0041    0.0020 C.ar      1 <0>        -0.0594
      5 C5         -0.0171    1.4112    0.0098 C.ar      1 <0>         0.0780
      6 C6          1.2444    2.0520    0.0012 C.ar      1 <0>        -0.1388
      7 C7          2.4274    1.3547   -0.0139 C.ar      1 <0>        -0.0693
      8 S1          0.7961    3.7710    0.0148 S.3       1 <0>        -0.0211
      9 C8         -0.9762    3.5400    0.0305 C.2       1 <0>         0.2242
     10 N1         -1.0879    2.2292    0.0191 N.2       1 <0>        -0.5107
     11 C9         -2.0439    4.5611    0.0462 C.ar      1 <0>        -0.0927
     12 C10        -1.7141    5.9181    0.0561 C.ar      1 <0>        -0.0319
     13 C11        -2.7117    6.8678    0.0654 C.ar      1 <0>        -0.1986
     14 C12        -4.0465    6.4763    0.0760 C.ar      1 <0>         0.2398
     15 C13        -4.3780    5.1254    0.0715 C.ar      1 <0>        -0.2002
     16 C14        -3.3849    4.1711    0.0569 C.ar      1 <0>        -0.0124
     17 N2         -5.0537    7.4395    0.0918 N.pl3     1 <0>        -0.7442
     18 C15        -4.7061    8.8627    0.0966 C.3       1 <0>         0.0865
     19 H1          3.9879   -0.9970   -1.0686 H         1 <0>         0.0764
     20 H2          4.4662   -0.2452    0.4723 H         1 <0>         0.0705
     21 H3          3.5386   -1.7644    0.4734 H         1 <0>         0.0725
     22 H4          1.1620   -1.7648   -0.0182 H         1 <0>         0.1340
     23 H5         -0.9298   -0.5500    0.0084 H         1 <0>         0.1331
     24 H6          3.3701    1.8816   -0.0204 H         1 <0>         0.1333
     25 H7         -0.6779    6.2227    0.0524 H         1 <0>         0.1276
     26 H8         -2.4573    7.9174    0.0693 H         1 <0>         0.1311
     27 H9         -5.4152    4.8244    0.0798 H         1 <0>         0.1299
     28 H10        -3.6429    3.1224    0.0541 H         1 <0>         0.1362
     29 H11        -5.9847    7.1676    0.0995 H         1 <0>         0.4043
     30 H12        -4.1119    9.0886    0.9820 H         1 <0>         0.0567
     31 H13        -4.1297    9.0990   -0.7979 H         1 <0>         0.0567
     32 H14        -5.6182    9.4594    0.1092 H         1 <0>         0.0767
@<TRIPOS>BOND
     1    1    2 1
     2    1   19 1
     3    1   20 1
     4    1   21 1
     5    2    7 ar
     6    2    3 ar
     7    3    4 ar
     8    3   22 1
     9    4    5 ar
    10    4   23 1
    11    5   10 1
    12    5    6 ar
    13    6    7 ar
    14    6    8 1
    15    7   24 1
    16    8    9 1
    17    9   10 2
    18    9   11 1
    19   11   16 ar
    20   11   12 ar
    21   12   13 ar
    22   12   25 1
    23   13   14 ar
    24   13   26 1
    25   14   15 ar
    26   14   17 1
    27   15   16 ar
    28   15   27 1
    29   16   28 1
    30   17   18 1
    31   17   29 1
    32   18   30 1
    33   18   31 1
    34   18   32 1
@<TRIPOS>MOLECULE
ZINC13675691
   35    37     0     0     0
SMALL
USER_CHARGES
2-(4-dimethylaminophenyl)-6-iodo-chromen-4-one
@<TRIPOS>ATOM
      1 C1          8.6324   -1.6823   -0.2005 C.3       1 <0>         0.0867
      2 N1          7.4020   -2.4684   -0.0811 N.pl3     1 <0>        -0.6273
      3 C2          7.4724   -3.9282    0.0214 C.3       1 <0>         0.0815
      4 C3          6.1662   -1.8286   -0.0651 C.ar      1 <0>         0.2463
      5 C4          6.1044   -0.4381   -0.0417 C.ar      1 <0>        -0.2060
      6 C5          4.8841    0.1980   -0.0254 C.ar      1 <0>        -0.0219
      7 C6          3.7052   -0.5543   -0.0327 C.ar      1 <0>        -0.1461
      8 C7          3.7710   -1.9510   -0.0508 C.ar      1 <0>        -0.0217
      9 C8          4.9948   -2.5805   -0.0719 C.ar      1 <0>        -0.2066
     10 C9          2.3962    0.1235   -0.0152 C.2       1 <0>         0.2314
     11 C10         1.2653   -0.6358   -0.0229 C.2       1 <0>        -0.3339
     12 C11         0.0022   -0.0034   -0.0064 C.2       1 <0>         0.4240
     13 O1         -1.0315   -0.6514   -0.0130 O.2       1 <0>        -0.4702
     14 C12        -0.0176    1.4731    0.0186 C.ar      1 <0>        -0.2188
     15 C13        -1.2178    2.1811    0.0417 C.ar      1 <0>         0.0050
     16 C14        -1.1942    3.5593    0.0591 C.ar      1 <0>        -0.1367
     17 C15         0.0161    4.2381    0.0651 C.ar      1 <0>        -0.0261
     18 C16         1.2095    3.5481    0.0480 C.ar      1 <0>        -0.1345
     19 C17         1.2070    2.1588    0.0245 C.ar      1 <0>         0.1657
     20 O2          2.3644    1.4650    0.0071 O.3       1 <0>        -0.2194
     21 I1         -2.9929    4.6332    0.0862 I         1 <0>        -0.0221
     22 H1          8.9893   -1.4130    0.7936 H         1 <0>         0.0544
     23 H2          9.3926   -2.2728   -0.7119 H         1 <0>         0.0718
     24 H3          8.4307   -0.7763   -0.7719 H         1 <0>         0.0724
     25 H4          6.4641   -4.3421    0.0116 H         1 <0>         0.0817
     26 H5          8.0363   -4.3249   -0.8228 H         1 <0>         0.0621
     27 H6          7.9691   -4.2035    0.9518 H         1 <0>         0.0589
     28 H7          7.0153    0.1422   -0.0361 H         1 <0>         0.1316
     29 H8          4.8369    1.2768   -0.0066 H         1 <0>         0.1342
     30 H9          2.8625   -2.5351   -0.0519 H         1 <0>         0.1359
     31 H10         5.0463   -3.6591   -0.0900 H         1 <0>         0.1357
     32 H11         1.3338   -1.7135   -0.0410 H         1 <0>         0.1622
     33 H12        -2.1602    1.6536    0.0413 H         1 <0>         0.1490
     34 H13         0.0232    5.3180    0.0829 H         1 <0>         0.1475
     35 H14         2.1455    4.0869    0.0531 H         1 <0>         0.1531
@<TRIPOS>BOND
     1    1    2 1
     2    1   22 1
     3    1   23 1
     4    1   24 1
     5    2    3 1
     6    2    4 1
     7    3   25 1
     8    3   26 1
     9    3   27 1
    10    4    9 ar
    11    4    5 ar
    12    5    6 ar
    13    5   28 1
    14    6    7 ar
    15    6   29 1
    16    7    8 ar
    17    7   10 1
    18    8    9 ar
    19    8   30 1
    20    9   31 1
    21   10   20 1
    22   10   11 2
    23   11   12 1
    24   11   32 1
    25   12   13 2
    26   12   14 1
    27   14   19 ar
    28   14   15 ar
    29   15   16 ar
    30   15   33 1
    31   16   17 ar
    32   16   21 1
    33   17   18 ar
    34   17   34 1
    35   18   19 ar
    36   18   35 1
    37   19   20 1
@<TRIPOS>MOLECULE
ZINC00405078
   37    39     0     0     0
SMALL
USER_CHARGES
2,5-bis(4-methoxyphenyl)thiophene
@<TRIPOS>ATOM
      1 C1          2.2321    5.2893    0.0068 C.3       1 <0>         0.0250
      2 O1          2.3227    3.8632   -0.0008 O.3       1 <0>        -0.3148
      3 C2          1.1535    3.1707    0.0071 C.ar      1 <0>         0.1348
      4 C3          1.1712    1.7823    0.0004 C.ar      1 <0>        -0.1451
      5 C4         -0.0126    1.0758    0.0080 C.ar      1 <0>        -0.0659
      6 C5         -1.2307    1.7585    0.0174 C.ar      1 <0>        -0.0457
      7 C6         -1.2439    3.1548    0.0294 C.ar      1 <0>        -0.0562
      8 C7         -0.0555    3.8535    0.0214 C.ar      1 <0>        -0.2037
      9 C8         -2.5019    1.0056    0.0193 C.2       1 <0>        -0.1029
     10 C9         -3.7873    1.4832    0.0280 C.2       1 <0>        -0.1486
     11 C10        -4.8278    0.5871    0.0281 C.2       1 <0>        -0.1486
     12 C11        -4.5462   -0.7550    0.0195 C.2       1 <0>        -0.1028
     13 S1         -2.7609   -0.7607    0.0031 S.3       1 <0>         0.0751
     14 C12        -5.4793   -1.9004    0.0177 C.ar      1 <0>        -0.0456
     15 C13        -6.8581   -1.6803    0.0311 C.ar      1 <0>        -0.0562
     16 C14        -7.7253   -2.7519    0.0236 C.ar      1 <0>        -0.2036
     17 C15        -7.2294   -4.0488    0.0142 C.ar      1 <0>         0.1347
     18 C16        -5.8590   -4.2723    0.0066 C.ar      1 <0>        -0.1451
     19 C17        -4.9848   -3.2063    0.0083 C.ar      1 <0>        -0.0659
     20 O2         -8.0877   -5.1025    0.0130 O.3       1 <0>        -0.3149
     21 C18        -9.4846   -4.8013    0.0211 C.3       1 <0>         0.0250
     22 H1          1.7048    5.6152    0.9034 H         1 <0>         0.0575
     23 H2          3.2346    5.7172   -0.0008 H         1 <0>         0.1027
     24 H3          1.6878    5.6235   -0.8765 H         1 <0>         0.0575
     25 H4          2.1137    1.2551   -0.0110 H         1 <0>         0.1372
     26 H5          0.0021   -0.0041    0.0020 H         1 <0>         0.1313
     27 H6         -2.1838    3.6867    0.0405 H         1 <0>         0.1301
     28 H7         -0.0648    4.9334    0.0266 H         1 <0>         0.1342
     29 H8         -3.9781    2.5462    0.0350 H         1 <0>         0.1351
     30 H9         -5.8508    0.9335    0.0352 H         1 <0>         0.1351
     31 H10        -7.2447   -0.6719    0.0433 H         1 <0>         0.1301
     32 H11        -8.7920   -2.5825    0.0295 H         1 <0>         0.1342
     33 H12        -5.4774   -5.2826   -0.0003 H         1 <0>         0.1372
     34 H13        -3.9190   -3.3810    0.0027 H         1 <0>         0.1313
     35 H14       -10.0563   -5.7293    0.0191 H         1 <0>         0.1026
     36 H15        -9.7272   -4.2270    0.9151 H         1 <0>         0.0575
     37 H16        -9.7357   -4.2180   -0.8648 H         1 <0>         0.0575
@<TRIPOS>BOND
     1    1    2 1
     2    1   22 1
     3    1   23 1
     4    1   24 1
     5    2    3 1
     6    3    8 ar
     7    3    4 ar
     8    4    5 ar
     9    4   25 1
    10    5    6 ar
    11    5   26 1
    12    6    7 ar
    13    6    9 1
    14    7    8 ar
    15    7   27 1
    16    8   28 1
    17    9   13 1
    18    9   10 2
    19   10   11 1
    20   10   29 1
    21   11   12 2
    22   11   30 1
    23   12   13 1
    24   12   14 1
    25   14   19 ar
    26   14   15 ar
    27   15   16 ar
    28   15   31 1
    29   16   17 ar
    30   16   32 1
    31   17   18 ar
    32   17   20 1
    33   18   19 ar
    34   18   33 1
    35   19   34 1
    36   20   21 1
    37   21   35 1
    38   21   36 1
    39   21   37 1
@<TRIPOS>MOLECULE
ZINC13686340
   28    30     0     0     0
SMALL
USER_CHARGES
2-(4-aminophenyl)benzofuran-5-ol
@<TRIPOS>ATOM
      1 C1         -1.1335    3.5686    0.0323 C.ar      1 <0>        -0.0370
      2 C2         -2.2735    4.3424    0.0373 C.ar      1 <0>        -0.1982
      3 C3         -3.5259    3.7379    0.0407 C.ar      1 <0>         0.2327
      4 C4         -3.6320    2.3514    0.0337 C.ar      1 <0>        -0.1990
      5 C5         -2.4958    1.5720    0.0234 C.ar      1 <0>        -0.0407
      6 C6         -1.2367    2.1760    0.0200 C.ar      1 <0>        -0.0975
      7 C7         -0.0162    1.3432    0.0094 C.2       1 <0>         0.1038
      8 C8          1.2519    1.8202   -0.0001 C.2       1 <0>        -0.2104
      9 C9          2.1274    0.6459   -0.0148 C.ar      1 <0>        -0.1064
     10 C10         3.5116    0.4656   -0.0294 C.ar      1 <0>        -0.1017
     11 C11         4.0319   -0.8140   -0.0416 C.ar      1 <0>         0.0915
     12 C12         3.1804   -1.9152   -0.0394 C.ar      1 <0>        -0.1203
     13 C13         1.8126   -1.7461   -0.0251 C.ar      1 <0>        -0.0872
     14 C14         1.2696   -0.4680   -0.0126 C.ar      1 <0>         0.0436
     15 O1          0.0021   -0.0041    0.0020 O.3       1 <0>        -0.1896
     16 O2          5.3791   -0.9983   -0.0563 O.3       1 <0>        -0.4951
     17 N1         -4.6785    4.5243    0.0516 N.pl3     1 <0>        -0.8718
     18 H1         -0.1611    4.0386    0.0339 H         1 <0>         0.1302
     19 H2         -2.1944    5.4195    0.0427 H         1 <0>         0.1288
     20 H3         -4.6061    1.8849    0.0360 H         1 <0>         0.1270
     21 H4         -2.5789    0.4952    0.0183 H         1 <0>         0.1298
     22 H5          1.5557    2.8565    0.0025 H         1 <0>         0.1598
     23 H6          4.1712    1.3208   -0.0314 H         1 <0>         0.1347
     24 H7          3.5957   -2.9121   -0.0494 H         1 <0>         0.1420
     25 H8          1.1625   -2.6085   -0.0231 H         1 <0>         0.1376
     26 H9          5.7777   -1.0564    0.8228 H         1 <0>         0.3911
     27 H10        -5.5525    4.1037    0.0543 H         1 <0>         0.4011
     28 H11        -4.6056    5.4916    0.0564 H         1 <0>         0.4011
@<TRIPOS>BOND
     1    1    6 ar
     2    1    2 ar
     3    1   18 1
     4    2    3 ar
     5    2   19 1
     6    3    4 ar
     7    3   17 1
     8    4    5 ar
     9    4   20 1
    10    5    6 ar
    11    5   21 1
    12    6    7 1
    13    7   15 1
    14    7    8 2
    15    8    9 1
    16    8   22 1
    17    9   14 ar
    18    9   10 ar
    19   10   11 ar
    20   10   23 1
    21   11   12 ar
    22   11   16 1
    23   12   13 ar
    24   12   24 1
    25   13   14 ar
    26   13   25 1
    27   14   15 1
    28   16   26 1
    29   17   27 1
    30   17   28 1
@<TRIPOS>MOLECULE
ZINC13673447
   32    33     0     0     0
SMALL
USER_CHARGES
4-[(E)-2-(4-methylaminophenyl)vinyl]phenol
@<TRIPOS>ATOM
      1 C1          1.2475    1.7155   -0.0006 C.3       1 <0>         0.0902
      2 N1         -0.0111    0.9658    0.0074 N.pl3     1 <0>        -0.7512
      3 C2         -1.2287    1.6470    0.0168 C.ar      1 <0>         0.2186
      4 C3         -1.2455    3.0376    0.0303 C.ar      1 <0>        -0.1975
      5 C4         -2.4456    3.7138    0.0347 C.ar      1 <0>        -0.0592
      6 C5         -3.6478    3.0001    0.0370 C.ar      1 <0>        -0.1226
      7 C6         -3.6268    1.6022    0.0289 C.ar      1 <0>        -0.0545
      8 C7         -2.4226    0.9334    0.0186 C.ar      1 <0>        -0.1966
      9 C8         -4.9335    3.7193    0.0475 C.2       1 <0>        -0.0844
     10 C9         -4.9517    5.0623    0.0554 C.2       1 <0>        -0.1299
     11 C10        -6.2376    5.7816    0.0659 C.ar      1 <0>        -0.0570
     12 C11        -7.4399    5.0686    0.0619 C.ar      1 <0>        -0.1015
     13 C12        -8.6400    5.7457    0.0776 C.ar      1 <0>        -0.1416
     14 C13        -8.6562    7.1345    0.0862 C.ar      1 <0>         0.1002
     15 C14        -7.4643    7.8475    0.0839 C.ar      1 <0>        -0.1424
     16 C15        -6.2591    7.1792    0.0740 C.ar      1 <0>        -0.0955
     17 O1         -9.8420    7.7978    0.0963 O.3       1 <0>        -0.5003
     18 H1          2.0855    1.0186   -0.0124 H         1 <0>         0.0744
     19 H2          1.2883    2.3477   -0.8877 H         1 <0>         0.0535
     20 H3          1.3053    2.3381    0.8922 H         1 <0>         0.0536
     21 H4          0.0021   -0.0041    0.0020 H         1 <0>         0.4015
     22 H5         -0.3163    3.5881    0.0330 H         1 <0>         0.1224
     23 H6         -2.4578    4.7937    0.0414 H         1 <0>         0.1243
     24 H7         -4.5534    1.0475    0.0310 H         1 <0>         0.1242
     25 H8         -2.4055   -0.1464    0.0123 H         1 <0>         0.1217
     26 H9         -5.8614    3.1666    0.0489 H         1 <0>         0.1197
     27 H10        -4.0238    5.6150    0.0540 H         1 <0>         0.1220
     28 H11        -7.4282    3.9887    0.0508 H         1 <0>         0.1293
     29 H12        -9.5694    5.1957    0.0791 H         1 <0>         0.1294
     30 H13        -7.4819    8.9273    0.0902 H         1 <0>         0.1296
     31 H14        -5.3328    7.7345    0.0723 H         1 <0>         0.1288
     32 H15       -10.1900    7.9949   -0.7841 H         1 <0>         0.3908
@<TRIPOS>BOND
     1    1    2 1
     2    1   18 1
     3    1   19 1
     4    1   20 1
     5    2    3 1
     6    2   21 1
     7    3    8 ar
     8    3    4 ar
     9    4    5 ar
    10    4   22 1
    11    5    6 ar
    12    5   23 1
    13    6    7 ar
    14    6    9 1
    15    7    8 ar
    16    7   24 1
    17    8   25 1
    18    9   10 2
    19    9   26 1
    20   10   11 1
    21   10   27 1
    22   11   16 ar
    23   11   12 ar
    24   12   13 ar
    25   12   28 1
    26   13   14 ar
    27   13   29 1
    28   14   15 ar
    29   14   17 1
    30   15   16 ar
    31   15   30 1
    32   16   31 1
    33   17   32 1
@<TRIPOS>MOLECULE
ZINC13686352
   37    39     0     0     0
SMALL
USER_CHARGES
4-(5-methoxybenzofuran-2-yl)-N,N-dimethyl-aniline
@<TRIPOS>ATOM
      1 C1         -5.9965    3.8937   -0.0549 C.3       1 <0>         0.0847
      2 N1         -4.6785    4.5243    0.0516 N.pl3     1 <0>        -0.6335
      3 C2         -4.5706    5.9805    0.1708 C.3       1 <0>         0.0898
      4 C3         -3.5258    3.7380    0.0395 C.ar      1 <0>         0.2308
      5 C4         -3.6317    2.3515    0.0467 C.ar      1 <0>        -0.2013
      6 C5         -2.4955    1.5722    0.0353 C.ar      1 <0>        -0.0403
      7 C6         -1.2365    2.1763    0.0163 C.ar      1 <0>        -0.0974
      8 C7         -1.1335    3.5690    0.0144 C.ar      1 <0>        -0.0364
      9 C8         -2.2737    4.3426    0.0206 C.ar      1 <0>        -0.1977
     10 C9         -0.0160    1.3436    0.0045 C.2       1 <0>         0.1082
     11 C10         1.2519    1.8206   -0.0194 C.2       1 <0>        -0.2142
     12 C11         2.1275    0.6464   -0.0294 C.ar      1 <0>        -0.0821
     13 C12         3.5116    0.4662   -0.0528 C.ar      1 <0>        -0.1145
     14 C13         4.0321   -0.8135   -0.0566 C.ar      1 <0>         0.1139
     15 C14         3.1809   -1.9147   -0.0372 C.ar      1 <0>        -0.1790
     16 C15         1.8132   -1.7456   -0.0140 C.ar      1 <0>        -0.0638
     17 C16         1.2700   -0.4675   -0.0098 C.ar      1 <0>         0.0182
     18 O1          0.0025   -0.0037    0.0100 O.3       1 <0>        -0.1906
     19 O2          5.3791   -0.9977   -0.0799 O.3       1 <0>        -0.3157
     20 C17         5.8494   -2.3471   -0.0825 C.3       1 <0>         0.0261
     21 H1         -5.8826    2.8097   -0.0443 H         1 <0>         0.0799
     22 H2         -6.6160    4.2022    0.7872 H         1 <0>         0.0593
     23 H3         -6.4716    4.2000   -0.9869 H         1 <0>         0.0559
     24 H4         -4.4996    6.4221   -0.8232 H         1 <0>         0.0516
     25 H5         -5.4527    6.3697    0.6792 H         1 <0>         0.0694
     26 H6         -3.6792    6.2330    0.7450 H         1 <0>         0.0708
     27 H7         -4.6056    1.8849    0.0610 H         1 <0>         0.1306
     28 H8         -2.5783    0.4954    0.0413 H         1 <0>         0.1295
     29 H9         -0.1613    4.0391    0.0040 H         1 <0>         0.1303
     30 H10        -2.1947    5.4197    0.0150 H         1 <0>         0.1305
     31 H11         1.5555    2.8570   -0.0291 H         1 <0>         0.1596
     32 H12         4.1710    1.3214   -0.0682 H         1 <0>         0.1364
     33 H13         3.5963   -2.9116   -0.0408 H         1 <0>         0.1407
     34 H14         1.1633   -2.6080    0.0012 H         1 <0>         0.1359
     35 H15         6.9392   -2.3520   -0.1019 H         1 <0>         0.1016
     36 H16         5.4997   -2.8555    0.8160 H         1 <0>         0.0564
     37 H17         5.4680   -2.8631   -0.9637 H         1 <0>         0.0564
@<TRIPOS>BOND
     1    1    2 1
     2    1   21 1
     3    1   22 1
     4    1   23 1
     5    2    3 1
     6    2    4 1
     7    3   24 1
     8    3   25 1
     9    3   26 1
    10    4    9 ar
    11    4    5 ar
    12    5    6 ar
    13    5   27 1
    14    6    7 ar
    15    6   28 1
    16    7    8 ar
    17    7   10 1
    18    8    9 ar
    19    8   29 1
    20    9   30 1
    21   10   18 1
    22   10   11 2
    23   11   12 1
    24   11   31 1
    25   12   17 ar
    26   12   13 ar
    27   13   14 ar
    28   13   32 1
    29   14   15 ar
    30   14   19 1
    31   15   16 ar
    32   15   33 1
    33   16   17 ar
    34   16   34 1
    35   17   18 1
    36   19   20 1
    37   20   35 1
    38   20   36 1
    39   20   37 1
@<TRIPOS>MOLECULE
ZINC03861628
   39    41     0     0     0
SMALL
USER_CHARGES

@<TRIPOS>ATOM
      1 C1          0.3957    1.4790   -0.0528 C.3       1 <0>        -0.1300
      2 C2          0.2672   -0.0225   -0.0410 C.ar      1 <0>        -0.0193
      3 C3          0.1040   -0.7213   -1.2291 C.ar      1 <0>        -0.0807
      4 C4         -0.0143   -2.0757   -1.2506 C.ar      1 <0>        -0.0647
      5 C5          0.0249   -2.8264   -0.0513 C.ar      1 <0>         0.0318
      6 C6          0.1922   -2.0858    1.1427 C.ar      1 <0>        -0.1298
      7 C7          0.3164   -0.7181    1.1528 C.ar      1 <0>        -0.0560
      8 S1          0.1903   -3.3590    2.3816 S.3       1 <0>         0.2409
      9 C8         -0.0250   -4.7468    1.2759 C.2       1 <0>         0.2409
     10 N1         -0.0769   -4.1616    0.0988 N.pl3     1 <0>        -0.3791
     11 C9         -0.2521   -4.9933   -1.0944 C.3       1 <0>         0.0121
     12 C10        -0.1200   -6.1848    1.6011 C.ar      1 <0>        -0.1693
     13 C11         0.6434   -7.1145    0.8916 C.ar      1 <0>        -0.0090
     14 C12         0.5530   -8.4545    1.1973 C.ar      1 <0>        -0.1987
     15 C13        -0.2974   -8.8821    2.2116 C.ar      1 <0>         0.2758
     16 C14        -1.0594   -7.9585    2.9198 C.ar      1 <0>        -0.1988
     17 C15        -0.9690   -6.6167    2.6225 C.ar      1 <0>         0.0016
     18 N2         -0.3867  -10.2386    2.5187 N.pl3     1 <0>        -0.6080
     19 C16         0.4147  -11.2126    1.7734 C.3       1 <0>         0.0752
     20 C17        -1.2819  -10.6906    3.5866 C.3       1 <0>         0.0749
     21 H1          1.4464    1.7529   -0.1490 H         1 <0>         0.0927
     22 H2         -0.1642    1.8850   -0.8952 H         1 <0>         0.0856
     23 H3         -0.0019    1.8850    0.8773 H         1 <0>         0.0837
     24 H4          0.0697   -0.1753   -2.1603 H         1 <0>         0.1566
     25 H5         -0.1401   -2.5850   -2.1946 H         1 <0>         0.1499
     26 H6          0.4474   -0.1900    2.0857 H         1 <0>         0.1586
     27 H7          0.7246   -5.2873   -1.4789 H         1 <0>         0.1129
     28 H8         -0.8238   -5.8845   -0.8354 H         1 <0>         0.1202
     29 H9         -0.7873   -4.4271   -1.8566 H         1 <0>         0.1158
     30 H10         1.3036   -6.7832    0.1037 H         1 <0>         0.1336
     31 H11         1.1428   -9.1739    0.6487 H         1 <0>         0.1449
     32 H12        -1.7193   -8.2936    3.7063 H         1 <0>         0.1462
     33 H13        -1.5572   -5.8996    3.1759 H         1 <0>         0.1395
     34 H14         1.3748  -11.3498    2.2710 H         1 <0>         0.0654
     35 H15        -0.1141  -12.1650    1.7352 H         1 <0>         0.0820
     36 H16         0.5797  -10.8477    0.7597 H         1 <0>         0.0772
     37 H17        -2.2652  -10.9070    3.1692 H         1 <0>         0.0653
     38 H18        -0.8751  -11.5922    4.0445 H         1 <0>         0.0821
     39 H19        -1.3714   -9.9088    4.3408 H         1 <0>         0.0783
@<TRIPOS>BOND
     1    1    2 1
     2    1   21 1
     3    1   22 1
     4    1   23 1
     5    2    7 ar
     6    2    3 ar
     7    3    4 ar
     8    3   24 1
     9    4    5 ar
    10    4   25 1
    11    5   10 1
    12    5    6 ar
    13    6    7 ar
    14    6    8 1
    15    7   26 1
    16    8    9 1
    17    9   10 2
    18    9   12 1
    19   10   11 1
    20   11   27 1
    21   11   28 1
    22   11   29 1
    23   12   17 ar
    24   12   13 ar
    25   13   14 ar
    26   13   30 1
    27   14   15 ar
    28   14   31 1
    29   15   16 ar
    30   15   18 1
    31   16   17 ar
    32   16   32 1
    33   17   33 1
    34   18   19 1
    35   18   20 1
    36   19   34 1
    37   19   35 1
    38   19   36 1
    39   20   37 1
    40   20   38 1
    41   20   39 1
@<TRIPOS>MOLECULE
ZINC01548661
   46    48     0     0     0
SMALL
USER_CHARGES

@<TRIPOS>ATOM
      1 C1          2.4074    1.3947   -0.0139 C.ar      1 <0>        -0.0977
      2 C2          2.4264    0.0294   -0.0210 C.ar      1 <0>        -0.1080
      3 C3          1.2246   -0.6874   -0.0133 C.ar      1 <0>        -0.0187
      4 C4          0.0021   -0.0041    0.0020 C.ar      1 <0>        -0.0831
      5 C5         -0.0164    1.3618    0.0095 C.ar      1 <0>        -0.0832
      6 C6          1.1861    2.0778    0.0019 C.ar      1 <0>        -0.0427
      7 C7          1.1663    3.5493    0.0100 C.2       1 <0>        -0.1383
      8 C8          2.3212    4.2371    0.0027 C.2       1 <0>        -0.0700
      9 C9          2.3013    5.7102    0.0108 C.ar      1 <0>        -0.1000
     10 C10         1.0793    6.3942    0.0261 C.ar      1 <0>        -0.0940
     11 C11         1.0554    7.7709    0.0342 C.ar      1 <0>        -0.1688
     12 C12         2.2423    8.4918    0.0277 C.ar      1 <0>         0.1443
     13 C13         3.4729    7.8178    0.0128 C.ar      1 <0>        -0.1458
     14 C14         3.4985    6.4235    0.0090 C.ar      1 <0>        -0.0408
     15 C15         4.7344    8.5810    0.0063 C.2       1 <0>         0.4891
     16 O1          4.7095    9.7958    0.0139 O.co2     1 <0>        -0.6171
     17 O2          2.2120    9.8474    0.0362 O.3       1 <0>        -0.4773
     18 Br1        -1.6224   -0.9721    0.0130 Br        1 <0>        -0.0566
     19 C16         1.2452   -2.1587   -0.0219 C.2       1 <0>        -0.1507
     20 C17         2.4186   -2.8144   -0.0366 C.2       1 <0>        -0.0612
     21 C18         2.4393   -4.2874   -0.0452 C.ar      1 <0>        -0.1015
     22 C19         1.2365   -5.0050   -0.0381 C.ar      1 <0>        -0.0914
     23 C20         1.2504   -6.3818   -0.0465 C.ar      1 <0>        -0.1688
     24 C21         2.4567   -7.0696   -0.0616 C.ar      1 <0>         0.1456
     25 C22         3.6683   -6.3620   -0.0685 C.ar      1 <0>        -0.1465
     26 C23         3.6555   -4.9675   -0.0663 C.ar      1 <0>        -0.0395
     27 C24         4.9502   -7.0901   -0.0845 C.2       1 <0>         0.4895
     28 O3          4.9588   -8.3051   -0.0919 O.co2     1 <0>        -0.6172
     29 O4          2.4637   -8.4256   -0.0703 O.3       1 <0>        -0.4773
     30 H1          3.3352    1.9475   -0.0201 H         1 <0>         0.1343
     31 H2          3.3692   -0.4974   -0.0328 H         1 <0>         0.1366
     32 H3         -0.9589    1.8891    0.0168 H         1 <0>         0.1317
     33 H4          0.2238    4.0766    0.0218 H         1 <0>         0.1226
     34 H5          3.2636    3.7098   -0.0092 H         1 <0>         0.1238
     35 H6          0.1524    5.8399    0.0319 H         1 <0>         0.1226
     36 H7          0.1096    8.2923    0.0460 H         1 <0>         0.1231
     37 H8          4.4424    5.8986    0.0016 H         1 <0>         0.1376
     38 H9          2.2114   10.2353    0.9220 H         1 <0>         0.3851
     39 H10         0.3176   -2.7118   -0.0164 H         1 <0>         0.1301
     40 H11         3.3463   -2.2613   -0.0422 H         1 <0>         0.1241
     41 H12         0.2948   -4.4764   -0.0263 H         1 <0>         0.1229
     42 H13         0.3193   -6.9290   -0.0416 H         1 <0>         0.1234
     43 H14         4.5845   -4.4167   -0.0766 H         1 <0>         0.1377
     44 H15         2.4578   -8.8133   -0.9561 H         1 <0>         0.3851
     45 O5          5.9148    7.9313   -0.0080 O.co2     1 <0>        -0.7564
     46 O6          6.1124   -6.4081   -0.0911 O.co2     1 <0>        -0.7567
@<TRIPOS>BOND
     1    1    6 ar
     2    1    2 ar
     3    1   30 1
     4    2    3 ar
     5    2   31 1
     6    3    4 ar
     7    3   19 1
     8    4    5 ar
     9    4   18 1
    10    5    6 ar
    11    5   32 1
    12    6    7 1
    13    7    8 2
    14    7   33 1
    15    8    9 1
    16    8   34 1
    17    9   14 ar
    18    9   10 ar
    19   10   11 ar
    20   10   35 1
    21   11   12 ar
    22   11   36 1
    23   12   13 ar
    24   12   17 1
    25   13   14 ar
    26   13   15 1
    27   14   37 1
    28   15   16 2
    29   15   45 1
    30   17   38 1
    31   19   20 2
    32   19   39 1
    33   20   21 1
    34   20   40 1
    35   21   26 ar
    36   21   22 ar
    37   22   23 ar
    38   22   41 1
    39   23   24 ar
    40   23   42 1
    41   24   25 ar
    42   24   29 1
    43   25   26 ar
    44   25   27 1
    45   26   43 1
    46   27   28 2
    47   27   46 1
    48   29   44 1
@<TRIPOS>MOLECULE
ZINC13558816
   36    38     0     0     0
SMALL
USER_CHARGES
N,N-dimethyl-4-(6-methylimidazo[1,2-a]pyridin-2-yl)aniline
@<TRIPOS>ATOM
      1 C1         -1.3017   -5.7830   -0.0112 C.3       1 <0>        -0.1053
      2 C2         -0.5745   -4.4630   -0.0187 C.2       1 <0>        -0.1082
      3 C3          0.8296   -4.4384   -0.0492 C.2       1 <0>        -0.0992
      4 C4          1.4827   -3.2453   -0.0555 C.2       1 <0>        -0.0765
      5 C5          0.7368   -2.0491   -0.0313 C.2       1 <0>         0.2235
      6 N1          1.1007   -0.7751   -0.0373 N.2       1 <0>        -0.4868
      7 C6          0.0025   -0.0040   -0.0029 C.2       1 <0>         0.1163
      8 C7         -1.0905   -0.8170    0.0160 C.2       1 <0>        -0.0958
      9 N2         -0.6330   -2.1053   -0.0018 N.pl3     1 <0>        -0.3568
     10 C8         -1.2754   -3.3099    0.0045 C.2       1 <0>         0.0484
     11 C9         -0.0178    1.4797    0.0066 C.ar      1 <0>        -0.0762
     12 C10        -1.2335    2.1609    0.0313 C.ar      1 <0>        -0.0521
     13 C11        -1.2500    3.5396    0.0449 C.ar      1 <0>        -0.2013
     14 C12        -0.0555    4.2501    0.0237 C.ar      1 <0>         0.2215
     15 C13         1.1579    3.5727   -0.0068 C.ar      1 <0>        -0.1992
     16 C14         1.1789    2.1941   -0.0152 C.ar      1 <0>        -0.0357
     17 N3         -0.0746    5.6463    0.0326 N.pl3     1 <0>        -0.6374
     18 C15         1.1802    6.3953    0.1365 C.3       1 <0>         0.0920
     19 C16        -1.3493    6.3621   -0.0620 C.3       1 <0>         0.0874
     20 H1         -1.4546   -6.1076    1.0181 H         1 <0>         0.0763
     21 H2         -2.2675   -5.6686   -0.5034 H         1 <0>         0.0700
     22 H3         -0.7089   -6.5274   -0.5427 H         1 <0>         0.0755
     23 H4          1.3880   -5.3627   -0.0679 H         1 <0>         0.1434
     24 H5          2.5620   -3.2146   -0.0792 H         1 <0>         0.1523
     25 H6         -2.1236   -0.5031    0.0401 H         1 <0>         0.1826
     26 H7         -2.3547   -3.3404    0.0282 H         1 <0>         0.1619
     27 H8         -2.1619    1.6093    0.0441 H         1 <0>         0.1223
     28 H9         -2.1917    4.0678    0.0683 H         1 <0>         0.1272
     29 H10         2.0848    4.1266   -0.0237 H         1 <0>         0.1249
     30 H11         2.1219    1.6682   -0.0389 H         1 <0>         0.1309
     31 H12         1.5717    6.5886   -0.8623 H         1 <0>         0.0492
     32 H13         0.9971    7.3421    0.6446 H         1 <0>         0.0671
     33 H14         1.9053    5.8124    0.7044 H         1 <0>         0.0696
     34 H15        -2.1706    5.6458   -0.0408 H         1 <0>         0.0787
     35 H16        -1.4439    7.0484    0.7795 H         1 <0>         0.0567
     36 H17        -1.3817    6.9246   -0.9951 H         1 <0>         0.0531
@<TRIPOS>BOND
     1    1    2 1
     2    1   20 1
     3    1   21 1
     4    1   22 1
     5    2   10 2
     6    2    3 1
     7    3    4 2
     8    3   23 1
     9    4    5 1
    10    4   24 1
    11    5    9 1
    12    5    6 2
    13    6    7 1
    14    7    8 2
    15    7   11 1
    16    8    9 1
    17    8   25 1
    18    9   10 1
    19   10   26 1
    20   11   16 ar
    21   11   12 ar
    22   12   13 ar
    23   12   27 1
    24   13   14 ar
    25   13   28 1
    26   14   15 ar
    27   14   17 1
    28   15   16 ar
    29   15   29 1
    30   16   30 1
    31   17   18 1
    32   17   19 1
    33   18   31 1
    34   18   32 1
    35   18   33 1
    36   19   34 1
    37   19   35 1
    38   19   36 1
@<TRIPOS>MOLECULE
ZINC00365215
   28    30     0     0     0
SMALL
USER_CHARGES

@<TRIPOS>ATOM
      1 C1         -0.0184    1.5028    0.0103 C.3       1 <0>        -0.1068
      2 C2          0.0021   -0.0041    0.0020 C.2       1 <0>        -0.1028
      3 C3          0.0058   -0.6965   -1.2202 C.2       1 <0>        -0.0964
      4 C4          0.0247   -2.0565   -1.2242 C.2       1 <0>        -0.0757
      5 C5          0.0403   -2.7510    0.0029 C.2       1 <0>         0.2266
      6 N1          0.0590   -4.0437    0.2916 N.2       1 <0>        -0.4797
      7 C6          0.0671   -4.1961    1.6253 C.2       1 <0>         0.0922
      8 C7          0.0531   -2.9598    2.1972 C.2       1 <0>        -0.0771
      9 N2          0.0362   -2.0471    1.1799 N.pl3     1 <0>        -0.3570
     10 C8          0.0224   -0.6819    1.1687 C.2       1 <0>         0.0464
     11 C9          0.0871   -5.4898    2.3522 C.ar      1 <0>         0.0059
     12 C10         0.0875   -5.5088    3.7455 C.ar      1 <0>        -0.1004
     13 C11         0.1061   -6.7144    4.4168 C.ar      1 <0>        -0.0893
     14 C12         0.1248   -7.9034    3.7084 C.ar      1 <0>        -0.0882
     15 C13         0.1249   -7.8898    2.3243 C.ar      1 <0>        -0.0901
     16 C14         0.0997   -6.6896    1.6437 C.ar      1 <0>        -0.0833
     17 Br1         0.1509   -9.5518    4.6346 Br        1 <0>        -0.0489
     18 H1          1.0042    1.8801    0.0026 H         1 <0>         0.0778
     19 H2         -0.5455    1.8639   -0.8728 H         1 <0>         0.0769
     20 H3         -0.5286    1.8543    0.9071 H         1 <0>         0.0712
     21 H4         -0.0067   -0.1515   -2.1525 H         1 <0>         0.1455
     22 H5          0.0274   -2.5991   -2.1580 H         1 <0>         0.1543
     23 H6          0.0550   -2.7419    3.2549 H         1 <0>         0.1863
     24 H7          0.0238   -0.1393    2.1025 H         1 <0>         0.1642
     25 H8          0.0736   -4.5816    4.2991 H         1 <0>         0.1332
     26 H9          0.1064   -6.7302    5.4966 H         1 <0>         0.1369
     27 H10         0.1400   -8.8202    1.7761 H         1 <0>         0.1367
     28 H11         0.0946   -6.6801    0.5638 H         1 <0>         0.1416
@<TRIPOS>BOND
     1    1    2 1
     2    1   18 1
     3    1   19 1
     4    1   20 1
     5    2   10 2
     6    2    3 1
     7    3    4 2
     8    3   21 1
     9    4    5 1
    10    4   22 1
    11    5    9 1
    12    5    6 2
    13    6    7 1
    14    7    8 2
    15    7   11 1
    16    8    9 1
    17    8   23 1
    18    9   10 1
    19   10   24 1
    20   11   16 ar
    21   11   12 ar
    22   12   13 ar
    23   12   25 1
    24   13   14 ar
    25   13   26 1
    26   14   15 ar
    27   14   17 1
    28   15   16 ar
    29   15   27 1
    30   16   28 1
@<TRIPOS>MOLECULE
ZINC00365215
   29    31     0     0     0
SMALL
USER_CHARGES

@<TRIPOS>ATOM
      1 C1         -0.0184    1.5028    0.0103 C.3       1 <0>        -0.1236
      2 C2          0.0021   -0.0041    0.0020 C.2       1 <0>        -0.0703
      3 C3          0.0058   -0.6965   -1.2202 C.2       1 <0>        -0.0176
      4 C4          0.0247   -2.0565   -1.2242 C.2       1 <0>        -0.1190
      5 C5          0.0403   -2.7510    0.0029 C.cat     1 <0>         0.3034
      6 N1          0.0590   -4.0437    0.2916 N.pl3     1 <0>        -0.5070
      7 C6          0.0671   -4.1961    1.6253 C.2       1 <0>         0.1512
      8 C7          0.0531   -2.9598    2.1972 C.2       1 <0>        -0.0184
      9 N2          0.0362   -2.0471    1.1799 N.pl3     1 <0>        -0.3174
     10 C8          0.0224   -0.6819    1.1687 C.2       1 <0>         0.0731
     11 C9          0.0871   -5.4898    2.3522 C.ar      1 <0>        -0.0546
     12 C10         0.0875   -5.5088    3.7455 C.ar      1 <0>        -0.0715
     13 C11         0.1061   -6.7144    4.4168 C.ar      1 <0>        -0.0818
     14 C12         0.1248   -7.9034    3.7084 C.ar      1 <0>        -0.0641
     15 C13         0.1249   -7.8898    2.3243 C.ar      1 <0>        -0.0813
     16 C14         0.0997   -6.6896    1.6437 C.ar      1 <0>        -0.0898
     17 Br1         0.1509   -9.5518    4.6346 Br        1 <0>        -0.0148
     18 H1          1.0042    1.8801    0.0026 H         1 <0>         0.0970
     19 H2         -0.5455    1.8639   -0.8728 H         1 <0>         0.0930
     20 H3         -0.5286    1.8543    0.9071 H         1 <0>         0.0877
     21 H4         -0.0067   -0.1515   -2.1525 H         1 <0>         0.1762
     22 H5          0.0274   -2.5991   -2.1580 H         1 <0>         0.1814
     23 H6          0.0550   -2.7419    3.2549 H         1 <0>         0.2284
     24 H7          0.0238   -0.1393    2.1025 H         1 <0>         0.2008
     25 H8          0.0736   -4.5816    4.2991 H         1 <0>         0.1448
     26 H9          0.1064   -6.7302    5.4966 H         1 <0>         0.1516
     27 H10         0.1400   -8.8202    1.7761 H         1 <0>         0.1495
     28 H11         0.0946   -6.6801    0.5638 H         1 <0>         0.1327
     29 H12         0.0655   -4.7649   -0.3570 H         1 <0>         0.4605
@<TRIPOS>BOND
     1    1    2 1
     2    1   18 1
     3    1   19 1
     4    1   20 1
     5    2   10 2
     6    2    3 1
     7    3    4 2
     8    3   21 1
     9    4    5 1
    10    4   22 1
    11    5    9 1
    12    5    6 2
    13    6    7 1
    14    6   29 1
    15    7    8 2
    16    7   11 1
    17    8    9 1
    18    8   23 1
    19    9   10 1
    20   10   24 1
    21   11   16 ar
    22   11   12 ar
    23   12   13 ar
    24   12   25 1
    25   13   14 ar
    26   13   26 1
    27   14   15 ar
    28   14   17 1
    29   15   16 ar
    30   15   27 1
    31   16   28 1
@<TRIPOS>MOLECULE
ZINC13558817
   33    35     0     0     0
SMALL
USER_CHARGES
4-(6-bromoimidazo[1,2-a]pyridin-2-yl)-N,N-dimethyl-aniline
@<TRIPOS>ATOM
      1 C1         10.8001    2.0902   -0.2012 C.3       1 <0>         0.0863
      2 N1         10.0912    0.8129   -0.0909 N.pl3     1 <0>        -0.6367
      3 C2         10.8469   -0.4383    0.0069 C.3       1 <0>         0.0919
      4 C3          8.6951    0.7880   -0.0791 C.ar      1 <0>         0.2241
      5 C4          7.9800    1.9796   -0.0516 C.ar      1 <0>        -0.2024
      6 C5          6.6014    1.9573   -0.0399 C.ar      1 <0>        -0.0336
      7 C6          5.9250    0.7387   -0.0556 C.ar      1 <0>        -0.0809
      8 C7          6.6440   -0.4551   -0.0778 C.ar      1 <0>        -0.0499
      9 C8          8.0225   -0.4283   -0.0943 C.ar      1 <0>        -0.1989
     10 C9          4.4413    0.7123   -0.0425 C.2       1 <0>         0.1233
     11 C10         3.6630   -0.4058   -0.0555 C.2       1 <0>        -0.0893
     12 N2          2.3611    0.0110   -0.0361 N.pl3     1 <0>        -0.3598
     13 C11         1.1771   -0.6694   -0.0371 C.2       1 <0>         0.0977
     14 C12         0.0020   -0.0047   -0.0145 C.2       1 <0>        -0.1191
     15 C13        -0.0170    1.4002    0.0105 C.2       1 <0>        -0.0862
     16 C14         1.1552    2.0900    0.0122 C.2       1 <0>        -0.0655
     17 C15         2.3742    1.3819   -0.0116 C.2       1 <0>         0.2293
     18 N3          3.6361    1.7859   -0.0159 N.2       1 <0>        -0.4789
     19 Br1        -1.6250   -0.9685   -0.0169 Br        1 <0>        -0.0104
     20 H1         10.0808    2.9086   -0.1727 H         1 <0>         0.0796
     21 H2         11.4984    2.1910    0.6297 H         1 <0>         0.0574
     22 H3         11.3487    2.1212   -1.1426 H         1 <0>         0.0539
     23 H4         11.0272   -0.8330   -0.9930 H         1 <0>         0.0494
     24 H5         11.8003   -0.2493    0.5002 H         1 <0>         0.0675
     25 H6         10.2755   -1.1636    0.5862 H         1 <0>         0.0694
     26 H7          8.5045    2.9236   -0.0398 H         1 <0>         0.1277
     27 H8          6.0461    2.8834   -0.0182 H         1 <0>         0.1315
     28 H9          6.1218   -1.4004   -0.0855 H         1 <0>         0.1229
     29 H10         8.5800   -1.3530   -0.1150 H         1 <0>         0.1259
     30 H11         4.0092   -1.4286   -0.0765 H         1 <0>         0.1872
     31 H12         1.1807   -1.7492   -0.0565 H         1 <0>         0.1727
     32 H13        -0.9581    1.9298    0.0237 H         1 <0>         0.1528
     33 H14         1.1523    3.1698    0.0309 H         1 <0>         0.1611
@<TRIPOS>BOND
     1    1    2 1
     2    1   20 1
     3    1   21 1
     4    1   22 1
     5    2    3 1
     6    2    4 1
     7    3   23 1
     8    3   24 1
     9    3   25 1
    10    4    9 ar
    11    4    5 ar
    12    5    6 ar
    13    5   26 1
    14    6    7 ar
    15    6   27 1
    16    7    8 ar
    17    7   10 1
    18    8    9 ar
    19    8   28 1
    20    9   29 1
    21   10   18 1
    22   10   11 2
    23   11   12 1
    24   11   30 1
    25   12   17 1
    26   12   13 1
    27   13   14 2
    28   13   31 1
    29   14   15 1
    30   14   19 1
    31   15   16 2
    32   15   32 1
    33   16   17 1
    34   16   33 1
    35   17   18 2
@<TRIPOS>MOLECULE
ZINC01652792
   30    32     0     0     0
SMALL
USER_CHARGES
4-(6-methoxybenzothiazol-2-yl)aniline
@<TRIPOS>ATOM
      1 C1          3.4560   -2.1597   -0.0404 C.3       1 <0>         0.0242
      2 O1          3.5649   -0.7349   -0.0346 O.3       1 <0>        -0.3082
      3 C2          2.4041   -0.0273   -0.0206 C.ar      1 <0>         0.1505
      4 C3          1.1775   -0.6863   -0.0124 C.ar      1 <0>        -0.1910
      5 C4          0.0021   -0.0041    0.0020 C.ar      1 <0>        -0.0203
      6 C5         -0.0171    1.4113    0.0098 C.ar      1 <0>         0.0473
      7 C6          1.2434    2.0540    0.0012 C.ar      1 <0>        -0.1067
      8 C7          2.4279    1.3595   -0.0138 C.ar      1 <0>        -0.1048
      9 S1          0.7927    3.7723    0.0141 S.3       1 <0>        -0.0090
     10 C8         -0.9793    3.5391    0.0296 C.2       1 <0>         0.2145
     11 N1         -1.0894    2.2287    0.0190 N.2       1 <0>        -0.5025
     12 C9         -2.0482    4.5589    0.0441 C.ar      1 <0>        -0.0902
     13 C10        -1.7201    5.9163    0.0528 C.ar      1 <0>        -0.0329
     14 C11        -2.7190    6.8648    0.0610 C.ar      1 <0>        -0.1992
     15 C12        -4.0532    6.4717    0.0711 C.ar      1 <0>         0.2418
     16 C13        -4.3831    5.1204    0.0682 C.ar      1 <0>        -0.2029
     17 C14        -3.3887    4.1673    0.0548 C.ar      1 <0>        -0.0130
     18 N2         -5.0617    7.4338    0.0848 N.pl3     1 <0>        -0.8688
     19 H1          4.4530   -2.6003   -0.0516 H         1 <0>         0.1050
     20 H2          2.9242   -2.4871    0.8530 H         1 <0>         0.0594
     21 H3          2.9078   -2.4787   -0.9268 H         1 <0>         0.0594
     22 H4          1.1597   -1.7662   -0.0174 H         1 <0>         0.1401
     23 H5         -0.9301   -0.5493    0.0080 H         1 <0>         0.1375
     24 H6          3.3695    1.8883   -0.0203 H         1 <0>         0.1424
     25 H7         -0.6843    6.2221    0.0491 H         1 <0>         0.1279
     26 H8         -2.4659    7.9147    0.0636 H         1 <0>         0.1302
     27 H9         -5.4199    4.8182    0.0762 H         1 <0>         0.1296
     28 H10        -3.6455    3.1183    0.0529 H         1 <0>         0.1359
     29 H11        -5.9925    7.1608    0.0922 H         1 <0>         0.4020
     30 H12        -4.8328    8.3764    0.0868 H         1 <0>         0.4018
@<TRIPOS>BOND
     1    1    2 1
     2    1   19 1
     3    1   20 1
     4    1   21 1
     5    2    3 1
     6    3    8 ar
     7    3    4 ar
     8    4    5 ar
     9    4   22 1
    10    5    6 ar
    11    5   23 1
    12    6   11 1
    13    6    7 ar
    14    7    8 ar
    15    7    9 1
    16    8   24 1
    17    9   10 1
    18   10   11 2
    19   10   12 1
    20   12   17 ar
    21   12   13 ar
    22   13   14 ar
    23   13   25 1
    24   14   15 ar
    25   14   26 1
    26   15   16 ar
    27   15   18 1
    28   16   17 ar
    29   16   27 1
    30   17   28 1
    31   18   29 1
    32   18   30 1
@<TRIPOS>MOLECULE
ZINC00019636
   32    34     0     0     0
SMALL
USER_CHARGES

@<TRIPOS>ATOM
      1 C1         -0.0178    1.4608    0.0101 C.3       1 <0>         0.0869
      2 N1          0.0021   -0.0041    0.0020 N.pl3     1 <0>        -0.6296
      3 C2          0.0241   -0.7433    1.2666 C.3       1 <0>         0.0869
      4 C3          0.0000   -0.6944   -1.2087 C.ar      1 <0>         0.2415
      5 C4          0.0131   -2.0853   -1.2147 C.ar      1 <0>        -0.2037
      6 C5          0.0111   -2.7703   -2.4097 C.ar      1 <0>        -0.0105
      7 C6         -0.0046   -2.0669   -3.6161 C.ar      1 <0>        -0.0952
      8 C7         -0.0182   -0.6704   -3.6069 C.ar      1 <0>        -0.0306
      9 C8         -0.0209    0.0090   -2.4087 C.ar      1 <0>        -0.2001
     10 C9         -0.0063   -2.7987   -4.8996 C.2       1 <0>         0.2281
     11 N2         -0.0005   -4.0975   -5.1091 N.2       1 <0>        -0.5135
     12 C10        -0.0035   -4.6314   -6.3463 C.ar      1 <0>         0.0849
     13 C11         0.0024   -5.9998   -6.7081 C.ar      1 <0>        -0.0652
     14 C12        -0.0008   -6.3750   -8.0150 C.ar      1 <0>        -0.1102
     15 C13        -0.0099   -5.4410   -9.0416 C.ar      1 <0>        -0.0984
     16 C14        -0.0164   -4.0936   -8.7317 C.ar      1 <0>        -0.0662
     17 C15        -0.0132   -3.7039   -7.4148 C.ar      1 <0>        -0.1455
     18 S1         -0.0247   -2.1450   -6.5630 S.3       1 <0>        -0.0210
     19 H1          1.0048    1.8381    0.0023 H         1 <0>         0.0535
     20 H2         -0.5450    1.8219   -0.8730 H         1 <0>         0.0724
     21 H3         -0.5280    1.8123    0.9069 H         1 <0>         0.0706
     22 H4         -0.9979   -0.9406    1.5900 H         1 <0>         0.0536
     23 H5          0.5496   -1.6879    1.1262 H         1 <0>         0.0726
     24 H6          0.5371   -0.1514    2.0246 H         1 <0>         0.0705
     25 H7          0.0252   -2.6287   -0.2814 H         1 <0>         0.1323
     26 H8          0.0219   -3.8503   -2.4137 H         1 <0>         0.1361
     27 H9         -0.0299   -0.1238   -4.5382 H         1 <0>         0.1278
     28 H10        -0.0356    1.0888   -2.4009 H         1 <0>         0.1327
     29 H11         0.0099   -6.7554   -5.9365 H         1 <0>         0.1324
     30 H12         0.0042   -7.4267   -8.2605 H         1 <0>         0.1342
     31 H13        -0.0116   -5.7635  -10.0723 H         1 <0>         0.1390
     32 H14        -0.0239   -3.3539   -9.5185 H         1 <0>         0.1337
@<TRIPOS>BOND
     1    1    2 1
     2    1   19 1
     3    1   20 1
     4    1   21 1
     5    2    3 1
     6    2    4 1
     7    3   22 1
     8    3   23 1
     9    3   24 1
    10    4    9 ar
    11    4    5 ar
    12    5    6 ar
    13    5   25 1
    14    6    7 ar
    15    6   26 1
    16    7    8 ar
    17    7   10 1
    18    8    9 ar
    19    8   27 1
    20    9   28 1
    21   10   18 1
    22   10   11 2
    23   11   12 1
    24   12   17 ar
    25   12   13 ar
    26   13   14 ar
    27   13   29 1
    28   14   15 ar
    29   14   30 1
    30   15   16 ar
    31   15   31 1
    32   16   17 ar
    33   16   32 1
    34   17   18 1
@<TRIPOS>MOLECULE
ZINC13522703
   26    28     0     0     0
SMALL
USER_CHARGES
4-(6-bromo-1,3-benzothiazol-2-yl)aniline
@<TRIPOS>ATOM
      1 C1         -1.7152    5.9178    0.0543 C.ar      1 <0>        -0.0285
      2 C2         -2.7130    6.8673    0.0640 C.ar      1 <0>        -0.2002
      3 C3         -4.0477    6.4755    0.0741 C.ar      1 <0>         0.2470
      4 C4         -4.3790    5.1245    0.0699 C.ar      1 <0>        -0.2041
      5 C5         -3.3856    4.1704    0.0553 C.ar      1 <0>        -0.0078
      6 C6         -2.0447    4.5607    0.0447 C.ar      1 <0>        -0.0994
      7 C7         -0.9768    3.5398    0.0296 C.2       1 <0>         0.2369
      8 N1         -1.0882    2.2291    0.0190 N.2       1 <0>        -0.5163
      9 C8         -0.0171    1.4112    0.0098 C.ar      1 <0>         0.1045
     10 C9          0.0021   -0.0041    0.0020 C.ar      1 <0>        -0.0594
     11 C10         1.1786   -0.6852   -0.0129 C.ar      1 <0>        -0.0821
     12 C11         2.4018   -0.0276   -0.0211 C.ar      1 <0>        -0.0793
     13 C12         2.4275    1.3555   -0.0139 C.ar      1 <0>        -0.0295
     14 C13         1.2442    2.0524    0.0012 C.ar      1 <0>        -0.1507
     15 S1          0.7955    3.7712    0.0141 S.3       1 <0>         0.0000
     16 Br1         4.0158   -1.0127   -0.0424 Br        1 <0>        -0.0291
     17 N2         -5.0551    7.4385    0.0889 N.pl3     1 <0>        -0.8668
     18 H1         -0.6791    6.2226    0.0506 H         1 <0>         0.1288
     19 H2         -2.4589    7.9169    0.0677 H         1 <0>         0.1316
     20 H3         -5.4161    4.8233    0.0778 H         1 <0>         0.1311
     21 H4         -3.6434    3.1217    0.0524 H         1 <0>         0.1374
     22 H5         -0.9298   -0.5499    0.0084 H         1 <0>         0.1428
     23 H6          1.1616   -1.7650   -0.0182 H         1 <0>         0.1440
     24 H7          3.3700    1.8828   -0.0197 H         1 <0>         0.1436
     25 H8         -5.9861    7.1664    0.0962 H         1 <0>         0.4029
     26 H9         -4.8252    8.3809    0.0918 H         1 <0>         0.4026
@<TRIPOS>BOND
     1    1    6 ar
     2    1    2 ar
     3    1   18 1
     4    2    3 ar
     5    2   19 1
     6    3    4 ar
     7    3   17 1
     8    4    5 ar
     9    4   20 1
    10    5    6 ar
    11    5   21 1
    12    6    7 1
    13    7   15 1
    14    7    8 2
    15    8    9 1
    16    9   14 ar
    17    9   10 ar
    18   10   11 ar
    19   10   22 1
    20   11   12 ar
    21   11   23 1
    22   12   13 ar
    23   12   16 1
    24   13   14 ar
    25   13   24 1
    26   14   15 1
    27   17   25 1
    28   17   26 1
@<TRIPOS>MOLECULE
ZINC00142942
   29    31     0     0     0
SMALL
USER_CHARGES

@<TRIPOS>ATOM
      1 C1         -0.0184    1.5028    0.0103 C.3       1 <0>        -0.1140
      2 C2          0.0021   -0.0041    0.0020 C.ar      1 <0>        -0.0633
      3 C3          0.0060   -0.6984   -1.1998 C.ar      1 <0>        -0.1108
      4 C4          0.0247   -2.0573   -1.2395 C.ar      1 <0>        -0.0593
      5 C5          0.0406   -2.8177   -0.0457 C.ar      1 <0>         0.0779
      6 C6          0.0362   -2.0815    1.1626 C.ar      1 <0>        -0.1388
      7 C7          0.0229   -0.7086    1.1914 C.ar      1 <0>        -0.0693
      8 S1          0.0600   -3.3665    2.3891 S.3       1 <0>        -0.0206
      9 C8          0.0738   -4.7526    1.2608 C.2       1 <0>         0.2236
     10 N1          0.0599   -4.1585    0.0871 N.2       1 <0>        -0.5105
     11 C9          0.0958   -6.1976    1.5680 C.ar      1 <0>        -0.0932
     12 C10         0.1028   -6.6306    2.8958 C.ar      1 <0>        -0.0315
     13 C11         0.1228   -7.9784    3.1790 C.ar      1 <0>        -0.1997
     14 C12         0.1360   -8.9079    2.1442 C.ar      1 <0>         0.2432
     15 C13         0.1295   -8.4797    0.8207 C.ar      1 <0>        -0.2033
     16 C14         0.1037   -7.1333    0.5312 C.ar      1 <0>        -0.0115
     17 N2          0.1563  -10.2710    2.4340 N.pl3     1 <0>        -0.8682
     18 H1          1.0042    1.8801    0.0026 H         1 <0>         0.0765
     19 H2         -0.5455    1.8639   -0.8728 H         1 <0>         0.0726
     20 H3         -0.5286    1.8543    0.9071 H         1 <0>         0.0705
     21 H4         -0.0066   -0.1450   -2.1272 H         1 <0>         0.1340
     22 H5          0.0272   -2.5629   -2.1938 H         1 <0>         0.1332
     23 H6          0.0247   -0.1836    2.1353 H         1 <0>         0.1333
     24 H7          0.0929   -5.9094    3.6996 H         1 <0>         0.1280
     25 H8          0.1287   -8.3138    4.2056 H         1 <0>         0.1305
     26 H9          0.1405   -9.2036    0.0194 H         1 <0>         0.1301
     27 H10         0.0938   -6.8015   -0.4965 H         1 <0>         0.1363
     28 H11         0.1612  -10.5707    3.3566 H         1 <0>         0.4020
     29 H12         0.1655  -10.9200    1.7132 H         1 <0>         0.4022
@<TRIPOS>BOND
     1    1    2 1
     2    1   18 1
     3    1   19 1
     4    1   20 1
     5    2    7 ar
     6    2    3 ar
     7    3    4 ar
     8    3   21 1
     9    4    5 ar
    10    4   22 1
    11    5   10 1
    12    5    6 ar
    13    6    7 ar
    14    6    8 1
    15    7   23 1
    16    8    9 1
    17    9   10 2
    18    9   11 1
    19   11   16 ar
    20   11   12 ar
    21   12   13 ar
    22   12   24 1
    23   13   14 ar
    24   13   25 1
    25   14   15 ar
    26   14   17 1
    27   15   16 ar
    28   15   26 1
    29   16   27 1
    30   17   28 1
    31   17   29 1
@<TRIPOS>MOLECULE
ZINC00006299
   26    28     0     0     0
SMALL
USER_CHARGES

@<TRIPOS>ATOM
      1 C1         -0.0164    1.3554    0.0095 C.ar      1 <0>        -0.1103
      2 C2          1.1548    2.1004    0.0023 C.ar      1 <0>        -0.0979
      3 C3          2.3732    1.4472   -0.0128 C.ar      1 <0>        -0.0663
      4 C4          2.4030    0.0742   -0.0205 C.ar      1 <0>        -0.1452
      5 C5          1.2272   -0.7128   -0.0135 C.ar      1 <0>         0.0844
      6 C6          0.0021   -0.0041    0.0020 C.ar      1 <0>        -0.0648
      7 N1          1.4170   -2.0468   -0.0229 N.2       1 <0>        -0.5128
      8 C7          2.6149   -2.5905   -0.0377 C.2       1 <0>         0.2268
      9 S1          3.6831   -1.1574   -0.0400 S.3       1 <0>        -0.0201
     10 C8          2.9834   -4.0211   -0.0494 C.ar      1 <0>        -0.0945
     11 C9          1.9875   -5.0002   -0.0510 C.ar      1 <0>        -0.0108
     12 C10         2.3341   -6.3332   -0.0618 C.ar      1 <0>        -0.2035
     13 C11         3.6746   -6.7047   -0.0712 C.ar      1 <0>         0.2439
     14 C12         4.6689   -5.7318   -0.0692 C.ar      1 <0>        -0.1999
     15 C13         4.3284   -4.3971   -0.0646 C.ar      1 <0>        -0.0308
     16 N2          4.0223   -8.0543   -0.0822 N.pl3     1 <0>        -0.8679
     17 H1         -0.9664    1.8687    0.0259 H         1 <0>         0.1343
     18 H2          1.1146    3.1797    0.0081 H         1 <0>         0.1391
     19 H3          3.2937    2.0120   -0.0190 H         1 <0>         0.1339
     20 H4         -0.9298   -0.5500    0.0080 H         1 <0>         0.1326
     21 H5          0.9466   -4.7124   -0.0434 H         1 <0>         0.1364
     22 H6          1.5644   -7.0908   -0.0627 H         1 <0>         0.1303
     23 H7          5.7088   -6.0232   -0.0757 H         1 <0>         0.1307
     24 H8          5.1007   -3.6422   -0.0682 H         1 <0>         0.1282
     25 H9          3.3298   -8.7335   -0.0833 H         1 <0>         0.4023
     26 H10         4.9567   -8.3144   -0.0887 H         1 <0>         0.4021
@<TRIPOS>BOND
     1    1    6 ar
     2    1    2 ar
     3    1   17 1
     4    2    3 ar
     5    2   18 1
     6    3    4 ar
     7    3   19 1
     8    4    9 1
     9    4    5 ar
    10    5    6 ar
    11    5    7 1
    12    6   20 1
    13    7    8 2
    14    8    9 1
    15    8   10 1
    16   10   15 ar
    17   10   11 ar
    18   11   12 ar
    19   11   21 1
    20   12   13 ar
    21   12   22 1
    22   13   14 ar
    23   13   16 1
    24   14   15 ar
    25   14   23 1
    26   15   24 1
    27   16   25 1
    28   16   26 1
@<TRIPOS>MOLECULE
ZINC13522700
   27    29     0     0     0
SMALL
USER_CHARGES
2-(4-aminophenyl)-1,3-benzothiazole-6-carbonitrile
@<TRIPOS>ATOM
      1 C1          7.1821    0.6477   -0.0674 C.ar      1 <0>        -0.0271
      2 C2          8.4932    0.2263   -0.0764 C.ar      1 <0>        -0.2009
      3 C3          8.7883   -1.1333   -0.0866 C.ar      1 <0>         0.2486
      4 C4          7.7606   -2.0711   -0.0823 C.ar      1 <0>        -0.2048
      5 C5          6.4476   -1.6558   -0.0675 C.ar      1 <0>        -0.0059
      6 C6          6.1481   -0.2915   -0.0572 C.ar      1 <0>        -0.1022
      7 C7          4.7411    0.1572   -0.0418 C.2       1 <0>         0.2425
      8 N1          3.6420   -0.5683   -0.0353 N.2       1 <0>        -0.5215
      9 C8          2.4167   -0.0259   -0.0207 C.ar      1 <0>         0.1234
     10 C9          1.1670   -0.6964   -0.0128 C.ar      1 <0>        -0.0669
     11 C10         0.0021   -0.0041    0.0020 C.ar      1 <0>        -0.0627
     12 C11        -0.0169    1.3983    0.0097 C.ar      1 <0>        -0.0149
     13 C12         1.1964    2.0932    0.0019 C.ar      1 <0>        -0.0045
     14 C13         2.3713    1.3907   -0.0127 C.ar      1 <0>        -0.1629
     15 S1          4.0946    1.8237   -0.0268 S.3       1 <0>         0.0058
     16 C14        -1.2606    2.1081    0.0195 C.1       1 <0>         0.2546
     17 N2         -2.2473    2.6711    0.0272 N.1       1 <0>        -0.4040
     18 N3         10.1157   -1.5565   -0.1016 N.pl3     1 <0>        -0.8660
     19 H1          6.9536    1.7033   -0.0637 H         1 <0>         0.1291
     20 H2          9.2931    0.9519   -0.0802 H         1 <0>         0.1317
     21 H3          7.9928   -3.1258   -0.0902 H         1 <0>         0.1314
     22 H4          5.6503   -2.3843   -0.0641 H         1 <0>         0.1382
     23 H5          1.1433   -1.7762   -0.0184 H         1 <0>         0.1445
     24 H6         -0.9329   -0.5445    0.0084 H         1 <0>         0.1443
     25 H7          1.2066    3.1731    0.0072 H         1 <0>         0.1442
     26 H8         10.3225   -2.5042   -0.1090 H         1 <0>         0.4031
     27 H9         10.8329   -0.9035   -0.1046 H         1 <0>         0.4028
@<TRIPOS>BOND
     1    1    6 ar
     2    1    2 ar
     3    1   19 1
     4    2    3 ar
     5    2   20 1
     6    3    4 ar
     7    3   18 1
     8    4    5 ar
     9    4   21 1
    10    5    6 ar
    11    5   22 1
    12    6    7 1
    13    7   15 1
    14    7    8 2
    15    8    9 1
    16    9   14 ar
    17    9   10 ar
    18   10   11 ar
    19   10   23 1
    20   11   12 ar
    21   11   24 1
    22   12   13 ar
    23   12   16 1
    24   13   14 ar
    25   13   25 1
    26   14   15 1
    27   16   17 3
    28   18   26 1
    29   18   27 1
@<TRIPOS>MOLECULE
ZINC00009200
   29    31     0     0     0
SMALL
USER_CHARGES

@<TRIPOS>ATOM
      1 C1         -0.0178    1.4608    0.0101 C.3       1 <0>         0.0864
      2 N1          0.0021   -0.0041    0.0020 N.pl3     1 <0>        -0.7439
      3 C2          0.6049   -0.6870   -1.0527 C.ar      1 <0>         0.2404
      4 C3          1.1925    0.0237   -2.0943 C.ar      1 <0>        -0.2024
      5 C4          1.7890   -0.6485   -3.1380 C.ar      1 <0>        -0.0111
      6 C5          1.8041   -2.0449   -3.1498 C.ar      1 <0>        -0.0942
      7 C6          1.2138   -2.7557   -2.1024 C.ar      1 <0>        -0.0318
      8 C7          0.6230   -2.0779   -1.0590 C.ar      1 <0>        -0.1968
      9 C8          2.4428   -2.7689   -4.2681 C.2       1 <0>         0.2274
     10 N2          3.0482   -2.2803   -5.3290 N.2       1 <0>        -0.5132
     11 C9          3.5914   -3.0663   -6.2791 C.ar      1 <0>         0.0846
     12 C10         4.2650   -2.6724   -7.4601 C.ar      1 <0>        -0.0650
     13 C11         4.7577   -3.5999   -8.3236 C.ar      1 <0>        -0.1103
     14 C12         4.6228   -4.9609   -8.0866 C.ar      1 <0>        -0.0981
     15 C13         3.9718   -5.3884   -6.9443 C.ar      1 <0>        -0.0662
     16 C14         3.4704   -4.4598   -6.0655 C.ar      1 <0>        -0.1454
     17 S1          2.5965   -4.5317   -4.5205 S.3       1 <0>        -0.0204
     18 H1          1.0048    1.8381    0.0023 H         1 <0>         0.0570
     19 H2         -0.5450    1.8219   -0.8730 H         1 <0>         0.0570
     20 H3         -0.5280    1.8123    0.9069 H         1 <0>         0.0768
     21 H4         -0.4044   -0.4986    0.7308 H         1 <0>         0.4041
     22 H5          1.1805    1.1036   -2.0847 H         1 <0>         0.1308
     23 H6          2.2444   -0.0962   -3.9468 H         1 <0>         0.1360
     24 H7          1.2236   -3.8356   -2.1090 H         1 <0>         0.1281
     25 H8          0.1700   -2.6270   -0.2467 H         1 <0>         0.1306
     26 H9          4.3888   -1.6219   -7.6782 H         1 <0>         0.1325
     27 H10         5.2668   -3.2692   -9.2168 H         1 <0>         0.1343
     28 H11         5.0221   -5.6787   -8.7878 H         1 <0>         0.1391
     29 H12         3.8586   -6.4438   -6.7448 H         1 <0>         0.1338
@<TRIPOS>BOND
     1    1    2 1
     2    1   18 1
     3    1   19 1
     4    1   20 1
     5    2    3 1
     6    2   21 1
     7    3    8 ar
     8    3    4 ar
     9    4    5 ar
    10    4   22 1
    11    5    6 ar
    12    5   23 1
    13    6    7 ar
    14    6    9 1
    15    7    8 ar
    16    7   24 1
    17    8   25 1
    18    9   17 1
    19    9   10 2
    20   10   11 1
    21   11   16 ar
    22   11   12 ar
    23   12   13 ar
    24   12   26 1
    25   13   14 ar
    26   13   27 1
    27   14   15 ar
    28   14   28 1
    29   15   16 ar
    30   15   29 1
    31   16   17 1
@<TRIPOS>MOLECULE
ZINC13522696
   27    29     0     0     0
SMALL
USER_CHARGES
2-(4-aminophenyl)-1,3-benzothiazol-6-ol
@<TRIPOS>ATOM
      1 C1          7.1813    0.6658   -0.0673 C.ar      1 <0>        -0.0308
      2 C2          8.4953    0.2526   -0.0768 C.ar      1 <0>        -0.1998
      3 C3          8.7990   -1.1048   -0.0865 C.ar      1 <0>         0.2443
      4 C4          7.7774   -2.0489   -0.0823 C.ar      1 <0>        -0.2034
      5 C5          6.4616   -1.6419   -0.0675 C.ar      1 <0>        -0.0105
      6 C6          6.1536   -0.2797   -0.0572 C.ar      1 <0>        -0.0948
      7 C7          4.7432    0.1602   -0.0418 C.2       1 <0>         0.2264
      8 N1          3.6508   -0.5719   -0.0354 N.2       1 <0>        -0.5101
      9 C8          2.4158   -0.0309   -0.0207 C.ar      1 <0>         0.0774
     10 C9          1.1689   -0.7008   -0.0129 C.ar      1 <0>        -0.0467
     11 C10         0.0021   -0.0041    0.0020 C.ar      1 <0>        -0.1329
     12 C11        -0.0168    1.3883    0.0097 C.ar      1 <0>         0.1275
     13 C12         1.1842    2.0819    0.0019 C.ar      1 <0>        -0.0923
     14 C13         2.3662    1.3831   -0.0127 C.ar      1 <0>        -0.1319
     15 S1          4.0874    1.8228   -0.0267 S.3       1 <0>        -0.0110
     16 O1         -1.1988    2.0599    0.0190 O.3       1 <0>        -0.4897
     17 N2         10.1296   -1.5198   -0.1010 N.pl3     1 <0>        -0.8678
     18 H1          6.9461    1.7199   -0.0639 H         1 <0>         0.1282
     19 H2          9.2906    0.9834   -0.0808 H         1 <0>         0.1308
     20 H3          8.0162   -3.1021   -0.0903 H         1 <0>         0.1304
     21 H4          5.6689   -2.3754   -0.0642 H         1 <0>         0.1367
     22 H5          1.1444   -1.7805   -0.0184 H         1 <0>         0.1386
     23 H6         -0.9335   -0.5436    0.0084 H         1 <0>         0.1411
     24 H7          1.1898    3.1619    0.0073 H         1 <0>         0.1400
     25 H8         -1.5365    2.2495    0.9050 H         1 <0>         0.3959
     26 H9         10.3424   -2.4661   -0.1082 H         1 <0>         0.4024
     27 H10        10.8427   -0.8622   -0.1040 H         1 <0>         0.4022
@<TRIPOS>BOND
     1    1    6 ar
     2    1    2 ar
     3    1   18 1
     4    2    3 ar
     5    2   19 1
     6    3    4 ar
     7    3   17 1
     8    4    5 ar
     9    4   20 1
    10    5    6 ar
    11    5   21 1
    12    6    7 1
    13    7   15 1
    14    7    8 2
    15    8    9 1
    16    9   14 ar
    17    9   10 ar
    18   10   11 ar
    19   10   22 1
    20   11   12 ar
    21   11   23 1
    22   12   13 ar
    23   12   16 1
    24   13   14 ar
    25   13   24 1
    26   14   15 1
    27   16   25 1
    28   17   26 1
    29   17   27 1
@<TRIPOS>MOLECULE
ZINC13522710
   33    35     0     0     0
SMALL
USER_CHARGES
4-(6-methoxy-1,3-benzothiazol-2-yl)-N-methyl-aniline
@<TRIPOS>ATOM
      1 C1         -4.7158    8.8574    0.0983 C.3       1 <0>         0.0868
      2 N1         -5.0616    7.4338    0.0930 N.pl3     1 <0>        -0.7447
      3 C2         -4.0532    6.4717    0.0772 C.ar      1 <0>         0.2384
      4 C3         -4.3831    5.1204    0.0721 C.ar      1 <0>        -0.1999
      5 C4         -3.3887    4.1673    0.0569 C.ar      1 <0>        -0.0139
      6 C5         -2.0482    4.5589    0.0462 C.ar      1 <0>        -0.0897
      7 C6         -1.7201    5.9163    0.0563 C.ar      1 <0>        -0.0333
      8 C7         -2.7189    6.8648    0.0670 C.ar      1 <0>        -0.1981
      9 C8         -0.9793    3.5391    0.0305 C.2       1 <0>         0.2151
     10 N2         -1.0894    2.2287    0.0191 N.2       1 <0>        -0.5027
     11 C9         -0.0171    1.4113    0.0098 C.ar      1 <0>         0.0474
     12 C10         0.0021   -0.0041    0.0020 C.ar      1 <0>        -0.0204
     13 C11         1.1775   -0.6863   -0.0129 C.ar      1 <0>        -0.1910
     14 C12         2.4041   -0.0273   -0.0211 C.ar      1 <0>         0.1504
     15 C13         2.4279    1.3595   -0.0139 C.ar      1 <0>        -0.1048
     16 C14         1.2434    2.0539    0.0012 C.ar      1 <0>        -0.1066
     17 S1          0.7927    3.7723    0.0148 S.3       1 <0>        -0.0095
     18 O1          3.5648   -0.7349   -0.0356 O.3       1 <0>        -0.3082
     19 C15         3.4560   -2.1597   -0.0417 C.3       1 <0>         0.0243
     20 H1         -5.6287    9.4530    0.1109 H         1 <0>         0.0764
     21 H2         -4.1221    9.0837    0.9840 H         1 <0>         0.0566
     22 H3         -4.1395    9.0947   -0.7959 H         1 <0>         0.0566
     23 H4         -5.9924    7.1607    0.1004 H         1 <0>         0.4041
     24 H5         -5.4199    4.8182    0.0803 H         1 <0>         0.1294
     25 H6         -3.6455    3.1182    0.0537 H         1 <0>         0.1359
     26 H7         -0.6843    6.2221    0.0526 H         1 <0>         0.1275
     27 H8         -2.4658    7.9147    0.0717 H         1 <0>         0.1308
     28 H9         -0.9301   -0.5493    0.0084 H         1 <0>         0.1374
     29 H10         1.1597   -1.7662   -0.0182 H         1 <0>         0.1400
     30 H11         3.3695    1.8883   -0.0204 H         1 <0>         0.1424
     31 H12         2.9076   -2.4784   -0.9282 H         1 <0>         0.0594
     32 H13         4.4529   -2.6003   -0.0533 H         1 <0>         0.1049
     33 H14         2.9244   -2.4874    0.8517 H         1 <0>         0.0594
@<TRIPOS>BOND
     1    1    2 1
     2    1   20 1
     3    1   21 1
     4    1   22 1
     5    2    3 1
     6    2   23 1
     7    3    8 ar
     8    3    4 ar
     9    4    5 ar
    10    4   24 1
    11    5    6 ar
    12    5   25 1
    13    6    7 ar
    14    6    9 1
    15    7    8 ar
    16    7   26 1
    17    8   27 1
    18    9   17 1
    19    9   10 2
    20   10   11 1
    21   11   16 ar
    22   11   12 ar
    23   12   13 ar
    24   12   28 1
    25   13   14 ar
    26   13   29 1
    27   14   15 ar
    28   14   18 1
    29   15   16 ar
    30   15   30 1
    31   16   17 1
    32   18   19 1
    33   19   31 1
    34   19   32 1
    35   19   33 1
