@<TRIPOS>MOLECULE
ZINC15880093
   34    36     0     0     0
SMALL
USER_CHARGES

@<TRIPOS>ATOM
      1 C1         -0.0178    1.4608    0.0101 C.3       1 <0>         0.0854
      2 N1          0.0021   -0.0041    0.0020 N.am      1 <0>        -0.5106
      3 C2         -1.1889   -0.7120    0.0039 C.2       1 <0>         0.3238
      4 C3         -1.1437   -2.1005   -0.0039 C.2       1 <0>        -0.1540
      5 C4          0.1107   -2.7476   -0.0134 C.2       1 <0>         0.5938
      6 O1          0.1765   -3.9638   -0.0207 O.2       1 <0>        -0.5125
      7 N2          1.2361   -2.0032   -0.0148 N.am      1 <0>        -0.5511
      8 C5          1.1776   -0.6603   -0.0127 C.2       1 <0>         0.7080
      9 O2          2.2126   -0.0219   -0.0196 O.2       1 <0>        -0.5321
     10 C6          2.5413   -2.6685   -0.0246 C.3       1 <0>         0.0833
     11 N3         -2.4557   -2.5297    0.0001 N.pl3     1 <0>        -0.5129
     12 H1         -2.7618   -3.4502   -0.0030 H         1 <0>         0.4351
     13 C7         -3.2306   -1.4275    0.0098 C.2       1 <0>         0.3086
     14 N4         -2.4766   -0.3579    0.0120 N.2       1 <0>        -0.4911
     15 C8         -4.7376   -1.4266    0.0162 C.3       1 <0>        -0.0169
     16 C9         -5.2635   -2.6576    0.7829 C.3       1 <0>        -0.1247
     17 C10        -6.5224   -3.0893   -0.0094 C.3       1 <0>        -0.1243
     18 C11        -6.1023   -2.8421   -1.4796 C.3       1 <0>        -0.1289
     19 C12        -5.2709   -1.5439   -1.4224 C.3       1 <0>        -0.1171
     20 H2          1.0048    1.8381    0.0023 H         1 <0>         0.1034
     21 H3         -0.5450    1.8219   -0.8730 H         1 <0>         0.0796
     22 H4         -0.5280    1.8123    0.9069 H         1 <0>         0.0799
     23 H5          2.8601   -2.8279   -1.0547 H         1 <0>         0.0772
     24 H6          3.2716   -2.0434    0.4891 H         1 <0>         0.0972
     25 H7          2.4632   -3.6292    0.4844 H         1 <0>         0.0953
     26 H8         -5.1081   -0.5116    0.4783 H         1 <0>         0.1182
     27 H9         -4.5198   -3.4544    0.7812 H         1 <0>         0.0624
     28 H10        -5.5302   -2.3856    1.8042 H         1 <0>         0.0826
     29 H11        -6.7412   -4.1439    0.1577 H         1 <0>         0.0739
     30 H12        -7.3782   -2.4691    0.2573 H         1 <0>         0.0763
     31 H13        -5.4941   -3.6687   -1.8467 H         1 <0>         0.0666
     32 H14        -6.9812   -2.7047   -2.1096 H         1 <0>         0.0745
     33 H15        -5.9010   -0.6863   -1.6581 H         1 <0>         0.0826
     34 H16        -4.4397   -1.6015   -2.1252 H         1 <0>         0.0685
@<TRIPOS>BOND
     1    1    2 1
     2    1   20 1
     3    1   21 1
     4    1   22 1
     5    2    8 am
     6    2    3 1
     7    3   14 1
     8    3    4 2
     9    4    5 1
    10    4   11 1
    11    5    6 2
    12    5    7 am
    13    7    8 am
    14    7   10 1
    15    8    9 2
    16   10   23 1
    17   10   24 1
    18   10   25 1
    19   11   12 1
    20   11   13 1
    21   13   14 2
    22   13   15 1
    23   15   19 1
    24   15   16 1
    25   15   26 1
    26   16   17 1
    27   16   27 1
    28   16   28 1
    29   17   18 1
    30   17   29 1
    31   17   30 1
    32   18   19 1
    33   18   31 1
    34   18   32 1
    35   19   33 1
    36   19   34 1
@<TRIPOS>MOLECULE
ZINC49784878
   28    30     0     0     0
SMALL
USER_CHARGES

@<TRIPOS>ATOM
      1 C1         -0.0178    1.4608    0.0101 C.3       1 <0>         0.0891
      2 N1          0.0021   -0.0041    0.0020 N.pl3     1 <0>        -0.3241
      3 C2          0.0074   -0.7671   -1.0994 C.2       1 <0>         0.1302
      4 C3          0.0280   -2.0836   -0.6995 C.ar      1 <0>        -0.3535
      5 C4          0.0430   -3.3846   -1.3658 C.ar      1 <0>         0.5422
      6 N2          0.0621   -4.4666   -0.6004 N.ar      1 <0>        -0.6170
      7 C5          0.0676   -4.3905    0.7292 C.ar      1 <0>         0.4551
      8 N3          0.0546   -3.2636    1.4074 N.ar      1 <0>        -0.5411
      9 C6          0.0352   -2.0765    0.7747 C.ar      1 <0>         0.3186
     10 N4          0.0244   -0.8138    1.1440 N.2       1 <0>        -0.2925
     11 C7          0.0893   -5.6597    1.4954 C.ar      1 <0>        -0.0505
     12 C8          0.0901   -5.6356    2.8892 C.ar      1 <0>        -0.0652
     13 C9          0.1104   -6.8200    3.5971 C.ar      1 <0>        -0.1340
     14 C10         0.1299   -8.0296    2.9261 C.ar      1 <0>        -0.0983
     15 C11         0.1292   -8.0597    1.5431 C.ar      1 <0>        -0.1357
     16 C12         0.1032   -6.8817    0.8247 C.ar      1 <0>        -0.0658
     17 N5          0.0372   -3.4826   -2.7394 N.pl3     1 <0>        -0.8133
     18 H1          1.0048    1.8381    0.0023 H         1 <0>         0.0883
     19 H2         -0.5450    1.8219   -0.8730 H         1 <0>         0.0976
     20 H3         -0.5280    1.8123    0.9069 H         1 <0>         0.1008
     21 H4         -0.0030   -0.4122   -2.1193 H         1 <0>         0.1893
     22 H5          0.0752   -4.6918    3.4141 H         1 <0>         0.1383
     23 H6          0.1114   -6.8026    4.6769 H         1 <0>         0.1269
     24 H7          0.1461   -8.9541    3.4842 H         1 <0>         0.1239
     25 H8          0.1449   -9.0070    1.0246 H         1 <0>         0.1264
     26 H9          0.0978   -6.9064   -0.2550 H         1 <0>         0.1366
     27 H10         0.0228   -2.6793   -3.2829 H         1 <0>         0.4132
     28 H11         0.0474   -4.3550   -3.1634 H         1 <0>         0.4146
@<TRIPOS>BOND
     1    1    2 1
     2    1   18 1
     3    1   19 1
     4    1   20 1
     5    2   10 1
     6    2    3 1
     7    3    4 2
     8    3   21 1
     9    4    9 ar
    10    4    5 ar
    11    5    6 ar
    12    5   17 1
    13    6    7 ar
    14    7    8 ar
    15    7   11 1
    16    8    9 ar
    17    9   10 2
    18   11   16 ar
    19   11   12 ar
    20   12   13 ar
    21   12   22 1
    22   13   14 ar
    23   13   23 1
    24   14   15 ar
    25   14   24 1
    26   15   16 ar
    27   15   25 1
    28   16   26 1
    29   17   27 1
    30   17   28 1
@<TRIPOS>MOLECULE
ZINC14125194
   46    49     0     0     0
SMALL
USER_CHARGES
3-(3-allyloxyphenyl)-5-ethyl-1-hydroxy-imidazo[1,5-c]phthalazin-6-one
@<TRIPOS>ATOM
      1 C1         -3.5175    3.9082    0.3223 C.3       1 <0>        -0.1743
      2 C2         -2.7945    4.3785   -0.9414 C.3       1 <0>         0.0901
      3 N1         -2.2367    5.7143   -0.7164 N.am      1 <0>        -0.3992
      4 C3         -3.0385    6.7874   -0.8497 C.2       1 <0>         0.5727
      5 O1         -4.2070    6.6387   -1.1524 O.2       1 <0>        -0.4985
      6 C4         -2.5028    8.1407   -0.6291 C.ar      1 <0>        -0.1510
      7 C5         -3.3046    9.2714   -0.7583 C.ar      1 <0>        -0.0428
      8 C6         -2.7624   10.5217   -0.5422 C.ar      1 <0>        -0.1262
      9 C7         -1.4262   10.6632   -0.1974 C.ar      1 <0>        -0.0761
     10 C8         -0.6139    9.5563   -0.0641 C.ar      1 <0>        -0.1061
     11 C9         -1.1413    8.2848   -0.2778 C.ar      1 <0>         0.0278
     12 C10        -0.3199    7.0757   -0.1477 C.2       1 <0>        -0.0160
     13 N2         -0.8890    5.8359   -0.3695 N.pl3     1 <0>        -0.2349
     14 C11         0.0972    4.9137   -0.1793 C.2       1 <0>         0.2836
     15 N3          1.2115    5.5357    0.1463 N.2       1 <0>        -0.4483
     16 C12         1.0012    6.8550    0.1713 C.2       1 <0>         0.2442
     17 O2          1.9245    7.8078    0.4641 O.3       1 <0>        -0.4440
     18 C13        -0.0607    3.4501   -0.3111 C.ar      1 <0>         0.0064
     19 C14        -0.9624    2.7661    0.5068 C.ar      1 <0>        -0.1386
     20 C15        -1.1116    1.4008    0.3767 C.ar      1 <0>        -0.0770
     21 C16        -0.3626    0.7045   -0.5543 C.ar      1 <0>        -0.1891
     22 C17         0.5367    1.3759   -1.3715 C.ar      1 <0>         0.1341
     23 C18         0.6904    2.7470   -1.2534 C.ar      1 <0>        -0.1063
     24 O3          1.2664    0.6871   -2.2881 O.3       1 <0>        -0.3071
     25 C19         1.0569   -0.7248   -2.3559 C.3       1 <0>         0.0866
     26 C20         1.9455   -1.3140   -3.4209 C.2       1 <0>        -0.1620
     27 C21         2.6181   -2.4119   -3.1792 C.2       1 <0>        -0.1650
     28 H1         -2.8907    4.1017    1.1928 H         1 <0>         0.0651
     29 H2         -4.4586    4.4486    0.4249 H         1 <0>         0.0705
     30 H3         -3.7183    2.8394    0.2495 H         1 <0>         0.0838
     31 H4         -3.4999    4.4145   -1.7715 H         1 <0>         0.1075
     32 H5         -1.9889    3.6837   -1.1790 H         1 <0>         0.1044
     33 H6         -4.3460    9.1705   -1.0263 H         1 <0>         0.1431
     34 H7         -3.3844   11.3988   -0.6428 H         1 <0>         0.1377
     35 H8         -1.0180   11.6493   -0.0322 H         1 <0>         0.1382
     36 H9          0.4253    9.6748    0.2050 H         1 <0>         0.1447
     37 H10         1.9763    8.0296    1.4039 H         1 <0>         0.3966
     38 H11        -1.5460    3.3062    1.2377 H         1 <0>         0.1369
     39 H12        -1.8126    0.8734    1.0067 H         1 <0>         0.1362
     40 H13        -0.4809   -0.3648   -0.6490 H         1 <0>         0.1350
     41 H14         1.3892    3.2705   -1.8891 H         1 <0>         0.1406
     42 H15         1.2972   -1.1745   -1.3924 H         1 <0>         0.0704
     43 H16         0.0139   -0.9260   -2.6006 H         1 <0>         0.0743
     44 H17         2.0278   -0.8312   -4.3834 H         1 <0>         0.1212
     45 H18         3.2549   -2.8341   -3.9424 H         1 <0>         0.1100
     46 H19         2.5357   -2.8947   -2.2166 H         1 <0>         0.1005
@<TRIPOS>BOND
     1    1    2 1
     2    1   28 1
     3    1   29 1
     4    1   30 1
     5    2    3 1
     6    2   31 1
     7    2   32 1
     8    3   13 1
     9    3    4 am
    10    4    5 2
    11    4    6 1
    12    6   11 ar
    13    6    7 ar
    14    7    8 ar
    15    7   33 1
    16    8    9 ar
    17    8   34 1
    18    9   10 ar
    19    9   35 1
    20   10   11 ar
    21   10   36 1
    22   11   12 1
    23   12   16 2
    24   12   13 1
    25   13   14 1
    26   14   15 2
    27   14   18 1
    28   15   16 1
    29   16   17 1
    30   17   37 1
    31   18   23 ar
    32   18   19 ar
    33   19   20 ar
    34   19   38 1
    35   20   21 ar
    36   20   39 1
    37   21   22 ar
    38   21   40 1
    39   22   23 ar
    40   22   24 1
    41   23   41 1
    42   24   25 1
    43   25   26 1
    44   25   42 1
    45   25   43 1
    46   26   27 2
    47   26   44 1
    48   27   45 1
    49   27   46 1
@<TRIPOS>MOLECULE
ZINC00005258
   41    44     0     0     0
SMALL
USER_CHARGES

@<TRIPOS>ATOM
      1 C1         -0.0162    1.3434    0.0094 C.2       1 <0>        -0.2218
      2 C2          1.3251    1.7745   -0.0011 C.2       1 <0>        -0.0887
      3 C3          2.0961    0.6548   -0.0144 C.2       1 <0>        -0.0062
      4 O1          1.2796   -0.4166   -0.0124 O.3       1 <0>        -0.1583
      5 C4          0.0021   -0.0041    0.0020 C.2       1 <0>         0.0256
      6 C5          3.5734    0.6193   -0.0287 C.2       1 <0>         0.4157
      7 N1          4.3742    1.6925   -0.0248 N.2       1 <0>        -0.4645
      8 C6          5.6386    1.3040   -0.0409 C.2       1 <0>         0.5441
      9 N2          6.8046    1.9657   -0.0448 N.2       1 <0>        -0.5016
     10 C7          7.9464    1.2979   -0.0627 C.2       1 <0>         0.6561
     11 N3          7.9670   -0.0378   -0.0777 N.pl3     1 <0>        -0.5981
     12 C8          6.8416   -0.7289   -0.0744 C.cat     1 <0>         0.7695
     13 N4          5.6489   -0.0664   -0.0556 N.pl3     1 <0>        -0.4039
     14 N5          4.3107   -0.4751   -0.0417 N.2       1 <0>        -0.2939
     15 N6          6.8714   -2.0989   -0.0903 N.pl3     1 <0>        -0.7459
     16 N7          9.1377    1.9935   -0.0665 N.pl3     1 <0>        -0.6525
     17 C9          9.1306    3.4584   -0.0508 C.3       1 <0>         0.1217
     18 C10        10.5705    3.9755   -0.0588 C.3       1 <0>        -0.0898
     19 C11        10.5632    5.4824   -0.0426 C.ar      1 <0>        -0.1082
     20 C12        10.5428    6.1853   -1.2331 C.ar      1 <0>        -0.0920
     21 C13        10.5366    7.5667   -1.2210 C.ar      1 <0>        -0.1431
     22 C14        10.5502    8.2486   -0.0129 C.ar      1 <0>         0.1179
     23 C15        10.5702    7.5411    1.1802 C.ar      1 <0>        -0.1430
     24 C16        10.5712    6.1597    1.1628 C.ar      1 <0>        -0.0920
     25 O2         10.5445    9.6076    0.0017 O.3       1 <0>        -0.4985
     26 H1         -0.8931    1.9737    0.0252 H         1 <0>         0.1685
     27 H2          1.6734    2.7967    0.0008 H         1 <0>         0.1702
     28 H3         -0.8667   -0.6456    0.0069 H         1 <0>         0.2226
     29 H4          7.7217   -2.5654   -0.1039 H         1 <0>         0.4476
     30 H5          6.0421   -2.6021   -0.0878 H         1 <0>         0.4601
     31 H6          9.9800    1.5127   -0.0796 H         1 <0>         0.4298
     32 H7          8.6066    3.8287   -0.9319 H         1 <0>         0.0992
     33 H8          8.6234    3.8096    0.8478 H         1 <0>         0.0992
     34 H9         11.0945    3.6052    0.8223 H         1 <0>         0.0876
     35 H10        11.0777    3.6243   -0.9574 H         1 <0>         0.0877
     36 H11        10.5322    5.6540   -2.1733 H         1 <0>         0.1282
     37 H12        10.5214    8.1153   -2.1511 H         1 <0>         0.1332
     38 H13        10.5809    8.0697    2.1220 H         1 <0>         0.1332
     39 H14        10.5822    5.6084    2.0914 H         1 <0>         0.1282
     40 H15         9.6596    9.9970    0.0181 H         1 <0>         0.3968
     41 H16         8.8171   -0.5047   -0.0913 H         1 <0>         0.4591
@<TRIPOS>BOND
     1    1    5 2
     2    1    2 1
     3    1   26 1
     4    2    3 2
     5    2   27 1
     6    3    4 1
     7    3    6 1
     8    4    5 1
     9    5   28 1
    10    6   14 2
    11    6    7 1
    12    7    8 2
    13    8   13 1
    14    8    9 1
    15    9   10 2
    16   10   11 1
    17   10   16 1
    18   11   12 2
    19   11   41 1
    20   12   13 1
    21   12   15 1
    22   13   14 1
    23   15   29 1
    24   15   30 1
    25   16   17 1
    26   16   31 1
    27   17   18 1
    28   17   32 1
    29   17   33 1
    30   18   19 1
    31   18   34 1
    32   18   35 1
    33   19   24 ar
    34   19   20 ar
    35   20   21 ar
    36   20   36 1
    37   21   22 ar
    38   21   37 1
    39   22   23 ar
    40   22   25 1
    41   23   24 ar
    42   23   38 1
    43   24   39 1
    44   25   40 1
@<TRIPOS>MOLECULE
ZINC03811810
   48    51     0     0     0
SMALL
USER_CHARGES

@<TRIPOS>ATOM
      1 C1         -0.0178    1.4608    0.0101 C.3       1 <0>         0.0858
      2 N1          0.0021   -0.0041    0.0020 N.am      1 <0>        -0.7308
      3 C2         -1.1558   -0.6938    0.0094 C.2       1 <0>         0.5149
      4 O1         -2.2142   -0.1017    0.0227 O.2       1 <0>        -0.5024
      5 C3         -1.1354   -2.2006    0.0011 C.3       1 <0>         0.0320
      6 H1         -0.5471   -2.5799    0.8366 H         1 <0>         0.1225
      7 C4         -0.5782   -2.7315   -1.3443 C.3       1 <0>         0.0506
      8 H2         -0.9118   -2.1105   -2.1757 H         1 <0>         0.0948
      9 C5         -1.2083   -4.1435   -1.4217 C.3       1 <0>         0.0832
     10 H3         -1.5347   -4.3603   -2.4388 H         1 <0>         0.0899
     11 C6         -2.4187   -4.0695   -0.4709 C.3       1 <0>         0.3144
     12 H4         -2.2882   -4.7738    0.3507 H         1 <0>         0.1316
     13 O2         -2.4789   -2.7275    0.0446 O.3       1 <0>        -0.3270
     14 N2         -3.6479   -4.3821   -1.2041 N.pl3     1 <0>        -0.4753
     15 C7         -4.4978   -3.4819   -1.7747 C.2       1 <0>         0.2660
     16 N3         -5.4881   -4.1049   -2.3448 N.2       1 <0>        -0.4586
     17 C8         -5.3371   -5.4406   -2.1768 C.ar      1 <0>        -0.1040
     18 C9         -4.1517   -5.6348   -1.4476 C.ar      1 <0>         0.3101
     19 N4         -3.7707   -6.8732   -1.1522 N.ar      1 <0>        -0.5538
     20 C10        -4.4895   -7.9064   -1.5380 C.ar      1 <0>         0.3661
     21 N5         -5.6079   -7.7739   -2.2273 N.ar      1 <0>        -0.5871
     22 C11        -6.0726   -6.5743   -2.5614 C.ar      1 <0>         0.5073
     23 N6         -7.2452   -6.4456   -3.2850 N.pl3     1 <0>        -0.6904
     24 C12        -7.9987   -7.6392   -3.6772 C.3       1 <0>         0.1703
     25 C13        -9.2253   -7.2276   -4.4499 C.ar      1 <0>        -0.1092
     26 C14       -10.4099   -6.9750   -3.7831 C.ar      1 <0>        -0.0788
     27 C15       -11.5351   -6.5975   -4.4915 C.ar      1 <0>        -0.1155
     28 C16       -11.4764   -6.4722   -5.8670 C.ar      1 <0>        -0.0754
     29 C17       -10.2918   -6.7247   -6.5341 C.ar      1 <0>        -0.1026
     30 C18        -9.1645   -7.0970   -5.8244 C.ar      1 <0>        -0.0641
     31 I1        -10.2026   -6.5356   -8.6187 I         1 <0>        -0.0379
     32 O3         -0.2777   -5.1316   -0.9750 O.3       1 <0>        -0.5314
     33 O4          0.8483   -2.8101   -1.3100 O.3       1 <0>        -0.5362
     34 H5          1.0048    1.8381    0.0023 H         1 <0>         0.0830
     35 H6         -0.5450    1.8219   -0.8730 H         1 <0>         0.0653
     36 H7         -0.5280    1.8123    0.9069 H         1 <0>         0.0657
     37 H8          0.8486   -0.4776   -0.0086 H         1 <0>         0.3996
     38 H9         -4.3686   -2.4098   -1.7561 H         1 <0>         0.2242
     39 H10        -4.1517   -8.8996   -1.2813 H         1 <0>         0.2060
     40 H11        -7.5682   -5.5651   -3.5326 H         1 <0>         0.4195
     41 H12        -7.3721   -8.2754   -4.3023 H         1 <0>         0.0825
     42 H13        -8.2988   -8.1888   -2.7851 H         1 <0>         0.0840
     43 H14       -10.4561   -7.0732   -2.7086 H         1 <0>         0.1321
     44 H15       -12.4604   -6.4006   -3.9704 H         1 <0>         0.1349
     45 H16       -12.3557   -6.1775   -6.4205 H         1 <0>         0.1316
     46 H17        -8.2379   -7.2896   -6.3447 H         1 <0>         0.1313
     47 H18         0.5294   -5.1801   -1.5054 H         1 <0>         0.3970
     48 H19         1.2858   -1.9588   -1.1720 H         1 <0>         0.3844
@<TRIPOS>BOND
     1    1    2 1
     2    1   34 1
     3    1   35 1
     4    1   36 1
     5    2    3 am
     6    2   37 1
     7    3    4 2
     8    3    5 1
     9    5    6 1
    10    5   13 1
    11    5    7 1
    12    7    8 1
    13    7    9 1
    14    7   33 1
    15    9   10 1
    16    9   11 1
    17    9   32 1
    18   11   12 1
    19   11   13 1
    20   11   14 1
    21   14   18 1
    22   14   15 1
    23   15   16 2
    24   15   38 1
    25   16   17 1
    26   17   22 ar
    27   17   18 ar
    28   18   19 ar
    29   19   20 ar
    30   20   21 ar
    31   20   39 1
    32   21   22 ar
    33   22   23 1
    34   23   24 1
    35   23   40 1
    36   24   25 1
    37   24   41 1
    38   24   42 1
    39   25   30 ar
    40   25   26 ar
    41   26   27 ar
    42   26   43 1
    43   27   28 ar
    44   27   44 1
    45   28   29 ar
    46   28   45 1
    47   29   30 ar
    48   29   31 1
    49   30   46 1
    50   32   47 1
    51   33   48 1
@<TRIPOS>MOLECULE
ZINC00192156
   38    40     0     0     0
SMALL
USER_CHARGES

@<TRIPOS>ATOM
      1 C1          0.0044    1.4814    0.4806 C.3       1 <0>        -0.1533
      2 C2          0.0119   -0.0230    0.2019 C.3       1 <0>         0.0634
      3 O1         -1.3279   -0.5192    0.2295 O.3       1 <0>        -0.3516
      4 C3         -1.4975   -1.8387    0.0007 C.2       1 <0>         0.5610
      5 O2         -0.5324   -2.5477   -0.2162 O.2       1 <0>        -0.4866
      6 C4         -2.7978   -2.3977    0.0132 C.2       1 <0>        -0.3345
      7 C5         -3.1967   -3.7376   -0.0757 C.2       1 <0>         0.2471
      8 N1         -4.4952   -3.9544   -0.0362 N.2       1 <0>        -0.5505
      9 C6         -5.3560   -2.9630    0.0801 C.2       1 <0>         0.2614
     10 S1         -4.3847   -1.5913    0.1545 S.3       1 <0>         0.3281
     11 N2         -6.7353   -3.0342    0.1343 N.am      1 <0>        -0.5996
     12 C7         -7.4640   -1.9069    0.2557 C.2       1 <0>         0.6117
     13 O3         -6.9076   -0.8264    0.3176 O.2       1 <0>        -0.4741
     14 C8         -8.9267   -1.9824    0.3132 C.2       1 <0>        -0.0958
     15 C9         -9.7812   -0.9231    0.4292 C.2       1 <0>        -0.0886
     16 C10       -11.0807   -1.4529    0.4457 C.2       1 <0>        -0.2264
     17 C11       -10.9644   -2.7953    0.3405 C.2       1 <0>         0.0180
     18 O4         -9.6653   -3.1100    0.2550 O.3       1 <0>        -0.1643
     19 C12        -2.2187   -4.8422   -0.2066 C.ar      1 <0>        -0.0439
     20 C13        -1.0837   -4.8722    0.6036 C.ar      1 <0>        -0.0489
     21 C14        -0.1765   -5.9041    0.4773 C.ar      1 <0>        -0.1261
     22 C15        -0.3908   -6.9076   -0.4506 C.ar      1 <0>        -0.1002
     23 C16        -1.5144   -6.8832   -1.2574 C.ar      1 <0>        -0.1314
     24 C17        -2.4318   -5.8597   -1.1365 C.ar      1 <0>        -0.0762
     25 H1          1.0264    1.8599    0.4595 H         1 <0>         0.0812
     26 H2         -0.5868    1.9891   -0.2815 H         1 <0>         0.0673
     27 H3         -0.4316    1.6669    1.4622 H         1 <0>         0.0673
     28 H4          0.4480   -0.2085   -0.7797 H         1 <0>         0.0699
     29 H5          0.6032   -0.5308    0.9639 H         1 <0>         0.0698
     30 H6         -7.1788   -3.8954    0.0850 H         1 <0>         0.4340
     31 H7         -9.5095    0.1201    0.4956 H         1 <0>         0.1681
     32 H8        -12.0007   -0.8932    0.5277 H         1 <0>         0.1645
     33 H9        -11.7842   -3.4981    0.3238 H         1 <0>         0.2179
     34 H10        -0.9151   -4.0891    1.3280 H         1 <0>         0.1212
     35 H11         0.7029   -5.9282    1.1038 H         1 <0>         0.1260
     36 H12         0.3222   -7.7132   -0.5458 H         1 <0>         0.1242
     37 H13        -1.6759   -7.6691   -1.9804 H         1 <0>         0.1258
     38 H14        -3.3111   -5.8442   -1.7635 H         1 <0>         0.1241
@<TRIPOS>BOND
     1    1    2 1
     2    1   25 1
     3    1   26 1
     4    1   27 1
     5    2    3 1
     6    2   28 1
     7    2   29 1
     8    3    4 1
     9    4    5 2
    10    4    6 1
    11    6   10 1
    12    6    7 2
    13    7    8 1
    14    7   19 1
    15    8    9 2
    16    9   10 1
    17    9   11 1
    18   11   12 am
    19   11   30 1
    20   12   13 2
    21   12   14 1
    22   14   18 1
    23   14   15 2
    24   15   16 1
    25   15   31 1
    26   16   17 2
    27   16   32 1
    28   17   18 1
    29   17   33 1
    30   19   24 ar
    31   19   20 ar
    32   20   21 ar
    33   20   34 1
    34   21   22 ar
    35   21   35 1
    36   22   23 ar
    37   22   36 1
    38   23   24 ar
    39   23   37 1
    40   24   38 1
@<TRIPOS>MOLECULE
ZINC27195995
   37    39     0     0     0
SMALL
USER_CHARGES
2-amino-4-(4-hydroxyphenyl)-6-(1H-imidazol-2-ylmethylsulfanyl)pyridine-3,5-dicarbonitrile
@<TRIPOS>ATOM
      1 C1         -2.1592    2.0697   -1.0740 C.ar      1 <0>        -0.0416
      2 C2         -3.3512    2.7607   -1.0589 C.ar      1 <0>        -0.1604
      3 C3         -3.6890    3.5427    0.0386 C.ar      1 <0>         0.1793
      4 C4         -2.8292    3.6278    1.1265 C.ar      1 <0>        -0.2142
      5 C5         -1.6377    2.9360    1.1210 C.ar      1 <0>        -0.0430
      6 C6         -1.2948    2.1485    0.0199 C.ar      1 <0>        -0.1358
      7 C7         -0.0170    1.4050    0.0098 C.ar      1 <0>         0.1689
      8 C8          1.2181    2.0849    0.0016 C.ar      1 <0>        -0.1628
      9 C9          2.4085    1.3352   -0.0138 C.ar      1 <0>         0.5036
     10 N1          2.3794    0.0120   -0.0206 N.ar      1 <0>        -0.5535
     11 C10         1.2431   -0.6686   -0.0134 C.ar      1 <0>         0.2398
     12 C11         0.0021   -0.0041    0.0020 C.ar      1 <0>        -0.1246
     13 C12        -1.2214   -0.7482    0.0102 C.1       1 <0>         0.2580
     14 N2         -2.1920   -1.3385    0.0166 N.1       1 <0>        -0.3941
     15 S1          1.2853   -2.4300   -0.0227 S.3       1 <0>         0.0070
     16 C13         3.0747   -2.7014   -0.0414 C.3       1 <0>        -0.0239
     17 C14         3.3582   -4.1815   -0.0517 C.2       1 <0>         0.1888
     18 N3          3.5223   -4.9590    1.0402 N.pl3     1 <0>        -0.5707
     19 H1          3.4541   -4.5172    2.0453 H         1 <0>         0.4499
     20 C15         3.7568   -6.2332    0.5985 C.2       1 <0>        -0.0259
     21 C16         3.7371   -6.1887   -0.7474 C.2       1 <0>        -0.0289
     22 N4          3.4915   -4.9231   -1.1172 N.2       1 <0>        -0.4704
     23 N5          3.6244    1.9891   -0.0223 N.pl3     1 <0>        -0.8447
     24 C17         1.2603    3.5163    0.0089 C.1       1 <0>         0.2605
     25 N6          1.2937    4.6518    0.0147 N.1       1 <0>        -0.4068
     26 O1         -4.8625    4.2261    0.0477 O.3       1 <0>        -0.5052
     27 H2         -1.8954    1.4653   -1.9292 H         1 <0>         0.1345
     28 H3         -4.0221    2.6970   -1.9028 H         1 <0>         0.1365
     29 H4         -3.0953    4.2368    1.9779 H         1 <0>         0.1338
     30 H5         -0.9697    3.0029    1.9669 H         1 <0>         0.1285
     31 H6          3.5063   -2.2391   -0.9414 H         1 <0>         0.1313
     32 H7          3.5237   -2.2483    0.8547 H         1 <0>         0.1158
     33 H8          3.9287   -7.1056    1.2113 H         1 <0>         0.1801
     34 H9          3.8922   -7.0255   -1.4123 H         1 <0>         0.1744
     35 H10         4.5599    1.4106   -0.0343 H         1 <0>         0.4397
     36 H11         3.6576    3.0886   -0.0170 H         1 <0>         0.4382
     37 H12        -5.1314    4.8457    0.9159 H         1 <0>         0.4381
@<TRIPOS>BOND
     1    1    6 ar
     2    1    2 ar
     3    1   27 1
     4    2    3 ar
     5    2   28 1
     6    3    4 ar
     7    3   26 1
     8    4    5 ar
     9    4   29 1
    10    5    6 ar
    11    5   30 1
    12    6    7 1
    13    7   12 ar
    14    7    8 ar
    15    8    9 ar
    16    8   24 1
    17    9   10 ar
    18    9   23 1
    19   10   11 ar
    20   11   12 ar
    21   11   15 1
    22   12   13 1
    23   13   14 3
    24   15   16 1
    25   16   17 1
    26   16   31 1
    27   16   32 1
    28   17   22 2
    29   17   18 1
    30   18   19 1
    31   18   20 1
    32   20   21 2
    33   20   33 1
    34   21   22 1
    35   21   34 1
    36   23   35 1
    37   23   36 1
    38   24   25 3
    39   26   37 1
@<TRIPOS>MOLECULE
ZINC02022527
   54    55     0     0     0
SMALL
USER_CHARGES

@<TRIPOS>ATOM
      1 C1         -3.0730    2.2881   -4.2693 C.3       1 <0>        -0.1569
      2 C2         -2.3049    1.5870   -3.1471 C.3       1 <0>        -0.1270
      3 C3         -2.8110    2.0874   -1.7927 C.3       1 <0>        -0.1231
      4 C4         -2.0429    1.3862   -0.6705 C.3       1 <0>        -0.1174
      5 C5         -2.5490    1.8867    0.6839 C.3       1 <0>        -0.1006
      6 C6         -2.2117    3.3722    0.8391 C.3       1 <0>        -0.1451
      7 C7         -2.6658    3.8518    2.2196 C.3       1 <0>        -0.0114
      8 C8         -2.3347    1.6429    3.1595 C.3       1 <0>        -0.0001
      9 C9         -1.8707    1.0973    1.8070 C.3       1 <0>        -0.1442
     10 C10        -2.2939    3.5901    4.5974 C.3       1 <0>        -0.0052
     11 C11        -2.1583    5.1140    4.5919 C.3       1 <0>        -0.1459
     12 C12        -2.4764    5.6593    5.9856 C.3       1 <0>        -0.1543
     13 C13        -2.3428    7.1604    5.9803 C.2       1 <0>         0.3987
     14 O1         -2.0245    7.7371    4.9623 O.2       1 <0>        -0.4456
     15 C14        -2.5986    7.9263    7.2106 C.ar      1 <0>        -0.1885
     16 C15        -3.0878    7.2813    8.3513 C.ar      1 <0>        -0.0705
     17 C16        -3.3195    8.0047    9.5018 C.ar      1 <0>        -0.1389
     18 C17        -3.0801    9.3679    9.5265 C.ar      1 <0>        -0.0729
     19 C18        -2.6016   10.0143    8.4004 C.ar      1 <0>        -0.1345
     20 C19        -2.3594    9.3036    7.2436 C.ar      1 <0>        -0.0178
     21 C20        -1.8387   10.0095    6.0182 C.3       1 <0>        -0.1264
     22 H1         -4.1363    2.0676   -4.1746 H         1 <0>         0.0549
     23 H2         -2.9175    3.3647   -4.1985 H         1 <0>         0.0540
     24 H3         -2.7125    1.9316   -5.2342 H         1 <0>         0.0581
     25 H4         -1.2417    1.8075   -3.2417 H         1 <0>         0.0621
     26 H5         -2.4605    0.5104   -3.2179 H         1 <0>         0.0631
     27 H6         -3.8743    1.8669   -1.6981 H         1 <0>         0.0644
     28 H7         -2.6555    3.1639   -1.7219 H         1 <0>         0.0632
     29 H8         -2.1984    0.3097   -0.7413 H         1 <0>         0.0733
     30 H9         -0.9796    1.6067   -0.7651 H         1 <0>         0.0688
     31 H10        -3.6287    1.7492    0.7427 H         1 <0>         0.0884
     32 H11        -1.1354    3.5132    0.7407 H         1 <0>         0.0881
     33 H12        -2.7264    3.9447    0.0675 H         1 <0>         0.1133
     34 H13        -3.7442    3.7233    2.3122 H         1 <0>         0.1295
     35 H14        -2.4142    4.9057    2.3388 H         1 <0>         0.1342
     36 H15        -3.4146    1.5248    3.2476 H         1 <0>         0.1293
     37 H16        -1.8426    1.0924    3.9613 H         1 <0>         0.1282
     38 H17        -2.1418    0.0446    1.7270 H         1 <0>         0.1118
     39 H18        -0.7890    1.2025    1.7239 H         1 <0>         0.0880
     40 H19        -3.3133    3.3170    4.8704 H         1 <0>         0.1315
     41 H20        -1.5979    3.1659    5.3211 H         1 <0>         0.1302
     42 H21        -1.1389    5.3871    4.3190 H         1 <0>         0.0944
     43 H22        -2.8542    5.5382    3.8682 H         1 <0>         0.0968
     44 H23        -3.4115    5.4088    6.2361 H         1 <0>         0.0981
     45 H24        -1.7805    5.2352    6.7093 H         1 <0>         0.1100
     46 H25        -3.2793    6.2186    8.3321 H         1 <0>         0.1290
     47 H26        -3.6933    7.5074   10.3846 H         1 <0>         0.1322
     48 H27        -3.2682    9.9300   10.4293 H         1 <0>         0.1326
     49 H28        -2.4176   11.0782    8.4274 H         1 <0>         0.1332
     50 H29        -2.6709   10.2515    5.3572 H         1 <0>         0.0784
     51 H30        -1.3321   10.9277    6.3156 H         1 <0>         0.0652
     52 H31        -1.1365    9.3600    5.4956 H         1 <0>         0.0893
     53 N1         -1.9588    3.0696    3.2558 N.4       1 <0>        -0.3931
     54 H32        -0.9467    3.1581    3.1071 H         1 <0>         0.4272
@<TRIPOS>BOND
     1    1    2 1
     2    1   22 1
     3    1   23 1
     4    1   24 1
     5    2    3 1
     6    2   25 1
     7    2   26 1
     8    3    4 1
     9    3   27 1
    10    3   28 1
    11    4    5 1
    12    4   29 1
    13    4   30 1
    14    5    9 1
    15    5    6 1
    16    5   31 1
    17    6    7 1
    18    6   32 1
    19    6   33 1
    20    7   34 1
    21    7   35 1
    22    7   53 1
    23    8    9 1
    24    8   36 1
    25    8   37 1
    26    8   53 1
    27    9   38 1
    28    9   39 1
    29   10   11 1
    30   10   40 1
    31   10   41 1
    32   10   53 1
    33   11   12 1
    34   11   42 1
    35   11   43 1
    36   12   13 1
    37   12   44 1
    38   12   45 1
    39   13   14 2
    40   13   15 1
    41   15   20 ar
    42   15   16 ar
    43   16   17 ar
    44   16   46 1
    45   17   18 ar
    46   17   47 1
    47   18   19 ar
    48   18   48 1
    49   19   20 ar
    50   19   49 1
    51   20   21 1
    52   21   50 1
    53   21   51 1
    54   21   52 1
    55   53   54 1
@<TRIPOS>MOLECULE
ZINC00602847
   48    52     0     0     0
SMALL
USER_CHARGES

@<TRIPOS>ATOM
      1 C1         -0.0173    1.4248    0.0099 C.3       1 <0>         0.0269
      2 O1          0.0021   -0.0041    0.0020 O.3       1 <0>        -0.3182
      3 C2          0.6258   -0.6184    1.0415 C.ar      1 <0>         0.1243
      4 C3          1.2022    0.1384    2.0513 C.ar      1 <0>        -0.2068
      5 C4          1.8353   -0.4884    3.1070 C.ar      1 <0>        -0.0750
      6 C5          1.8951   -1.8688    3.1577 C.ar      1 <0>        -0.1214
      7 C6          1.3218   -2.6253    2.1523 C.ar      1 <0>        -0.0748
      8 C7          0.6822   -2.0034    1.0976 C.ar      1 <0>        -0.1496
      9 C8          2.5867   -2.5500    4.3104 C.3       1 <0>        -0.0706
     10 C9          1.5771   -2.8076    5.4307 C.3       1 <0>        -0.1307
     11 C10         2.2793   -3.4992    6.6010 C.3       1 <0>         0.1366
     12 N1          1.3125   -3.7459    7.6738 N.pl3     1 <0>        -0.3534
     13 C11         1.0184   -2.8933    8.6954 C.2       1 <0>         0.3698
     14 C12         0.0463   -3.5315    9.4806 C.2       1 <0>        -0.2674
     15 C13        -0.2172   -4.7794    8.8878 C.2       1 <0>         0.1302
     16 N2          0.5272   -4.8958    7.8225 N.2       1 <0>        -0.2626
     17 C14        -0.4546   -2.8267   10.6611 C.2       1 <0>         0.4067
     18 N3         -1.3368   -3.1079   11.5974 N.2       1 <0>        -0.5163
     19 C15        -1.4144   -2.0890   12.4629 C.2       1 <0>         0.3505
     20 N4         -0.5791   -1.1375   12.0907 N.2       1 <0>        -0.3000
     21 N5          0.0588   -1.5837   10.9262 N.pl3     1 <0>        -0.3765
     22 C16         1.0032   -1.0458   10.1009 C.2       1 <0>         0.6913
     23 N6          1.4538   -1.6744    9.0431 N.2       1 <0>        -0.5609
     24 N7          1.5011    0.2031   10.3906 N.pl3     1 <0>        -0.8026
     25 C17        -2.2961   -2.0382   13.6479 C.2       1 <0>         0.0425
     26 C18        -2.3879   -1.0082   14.5304 C.2       1 <0>        -0.1373
     27 C19        -3.3441   -1.3838   15.4947 C.2       1 <0>        -0.2200
     28 C20        -3.7842   -2.6118   15.1567 C.2       1 <0>        -0.0041
     29 O2         -3.1527   -3.0019   14.0378 O.3       1 <0>        -0.1521
     30 H1          1.0053    1.8021    0.0021 H         1 <0>         0.0559
     31 H2         -0.5445    1.7859   -0.8732 H         1 <0>         0.1012
     32 H3         -0.5275    1.7763    0.9067 H         1 <0>         0.0554
     33 H4          1.1564    1.2167    2.0118 H         1 <0>         0.1276
     34 H5          2.2842    0.1003    3.8934 H         1 <0>         0.1242
     35 H6          1.3701   -3.7035    2.1940 H         1 <0>         0.1301
     36 H7          0.2307   -2.5948    0.3148 H         1 <0>         0.1312
     37 H8          3.0056   -3.4983    3.9736 H         1 <0>         0.0778
     38 H9          3.3874   -1.9109    4.6827 H         1 <0>         0.0761
     39 H10         1.1582   -1.8593    5.7675 H         1 <0>         0.0709
     40 H11         0.7764   -3.4467    5.0584 H         1 <0>         0.0759
     41 H12         2.6982   -4.4475    6.2643 H         1 <0>         0.1031
     42 H13         3.0799   -2.8601    6.9733 H         1 <0>         0.1002
     43 H14        -0.9200   -5.5149    9.2505 H         1 <0>         0.2021
     44 H15         1.1805    0.6844   11.1693 H         1 <0>         0.4262
     45 H16         2.1729    0.6026    9.8161 H         1 <0>         0.4302
     46 H17        -1.8346   -0.0812   14.4987 H         1 <0>         0.1599
     47 H18        -3.6636   -0.7985   16.3442 H         1 <0>         0.1594
     48 H19        -4.5248   -3.1853   15.6942 H         1 <0>         0.2142
@<TRIPOS>BOND
     1    1    2 1
     2    1   30 1
     3    1   31 1
     4    1   32 1
     5    2    3 1
     6    3    8 ar
     7    3    4 ar
     8    4    5 ar
     9    4   33 1
    10    5    6 ar
    11    5   34 1
    12    6    7 ar
    13    6    9 1
    14    7    8 ar
    15    7   35 1
    16    8   36 1
    17    9   10 1
    18    9   37 1
    19    9   38 1
    20   10   11 1
    21   10   39 1
    22   10   40 1
    23   11   12 1
    24   11   41 1
    25   11   42 1
    26   12   16 1
    27   12   13 1
    28   13   23 1
    29   13   14 2
    30   14   15 1
    31   14   17 1
    32   15   16 2
    33   15   43 1
    34   17   21 1
    35   17   18 2
    36   18   19 1
    37   19   20 2
    38   19   25 1
    39   20   21 1
    40   21   22 1
    41   22   23 2
    42   22   24 1
    43   24   44 1
    44   24   45 1
    45   25   29 1
    46   25   26 2
    47   26   27 1
    48   26   46 1
    49   27   28 2
    50   27   47 1
    51   28   29 1
    52   28   48 1
@<TRIPOS>MOLECULE
ZINC04475322
   51    54     0     0     0
SMALL
USER_CHARGES

@<TRIPOS>ATOM
      1 C1         -0.0187    1.5258    0.0104 C.3       1 <0>        -0.1631
      2 C2          0.0021   -0.0041    0.0020 C.3       1 <0>         0.1538
      3 H1          0.5293   -0.3651    0.8851 H         1 <0>         0.0970
      4 C3          0.7182   -0.4975   -1.2568 C.3       1 <0>        -0.0915
      5 C4          0.8473   -1.9981   -1.2057 C.ar      1 <0>        -0.0833
      6 C5          1.9579   -2.5768   -0.6205 C.ar      1 <0>        -0.1153
      7 C6          2.0763   -3.9532   -0.5737 C.ar      1 <0>        -0.1179
      8 C7          1.0839   -4.7510   -1.1116 C.ar      1 <0>        -0.1236
      9 C8         -0.0272   -4.1724   -1.6960 C.ar      1 <0>        -0.1166
     10 C9         -0.1477   -2.7959   -1.7390 C.ar      1 <0>        -0.1114
     11 N1         -1.3723   -0.5112    0.0124 N.pl3     1 <0>        -0.6847
     12 C10        -2.0462   -0.6591    1.2121 C.ar      1 <0>         0.5114
     13 C11        -3.3630   -1.1495    1.2414 C.ar      1 <0>        -0.1076
     14 C12        -3.9954   -1.2776    2.4893 C.ar      1 <0>         0.3133
     15 N2         -3.3315   -0.9338    3.5883 N.ar      1 <0>        -0.5521
     16 C13        -2.0986   -0.4792    3.5127 C.ar      1 <0>         0.3641
     17 N3         -1.4615   -0.3459    2.3635 N.ar      1 <0>        -0.5871
     18 N4         -5.2495   -1.7694    2.2292 N.pl3     1 <0>        -0.4716
     19 C14        -5.3550   -1.9261    0.8792 C.2       1 <0>         0.2599
     20 N5         -4.2472   -1.5619    0.3015 N.2       1 <0>        -0.4591
     21 C15        -6.2852   -2.0711    3.2205 C.3       1 <0>         0.3143
     22 H2         -5.8341   -2.4623    4.1324 H         1 <0>         0.1224
     23 C16        -7.1166   -0.8068    3.5314 C.3       1 <0>         0.0799
     24 H3         -7.0713   -0.1054    2.6982 H         1 <0>         0.0849
     25 C17        -8.5557   -1.3392    3.7133 C.3       1 <0>         0.0472
     26 H4         -9.2218   -0.9010    2.9700 H         1 <0>         0.0868
     27 C18        -8.4234   -2.8621    3.4907 C.3       1 <0>         0.0504
     28 H5         -8.3019   -3.3758    4.4444 H         1 <0>         0.1000
     29 O1         -7.2349   -3.0173    2.6833 O.3       1 <0>        -0.3469
     30 C19        -9.6487   -3.4004    2.7493 C.3       1 <0>         0.0822
     31 O2         -9.5620   -4.8238    2.6564 O.3       1 <0>        -0.5634
     32 O3         -9.0288   -1.0625    5.0330 O.3       1 <0>        -0.5387
     33 O4         -6.6539   -0.1861    4.7325 O.3       1 <0>        -0.5251
     34 H6          1.0039    1.9031    0.0027 H         1 <0>         0.0681
     35 H7         -0.5459    1.8868   -0.8726 H         1 <0>         0.0555
     36 H8         -0.5289    1.8773    0.9072 H         1 <0>         0.0645
     37 H9          0.1430   -0.2121   -2.1375 H         1 <0>         0.0786
     38 H10         1.7103   -0.0491   -1.3098 H         1 <0>         0.0924
     39 H11         2.7333   -1.9534   -0.2002 H         1 <0>         0.1218
     40 H12         2.9444   -4.4053   -0.1171 H         1 <0>         0.1212
     41 H13         1.1767   -5.8264   -1.0757 H         1 <0>         0.1199
     42 H14        -0.8025   -4.7957   -2.1166 H         1 <0>         0.1203
     43 H15        -1.0175   -2.3439   -2.1923 H         1 <0>         0.1175
     44 H16        -1.8100   -0.7432   -0.8215 H         1 <0>         0.4144
     45 H17        -1.5876   -0.2084    4.4248 H         1 <0>         0.2035
     46 H18        -6.2290   -2.2977    0.3649 H         1 <0>         0.2215
     47 H19       -10.5523   -3.1263    3.2938 H         1 <0>         0.0670
     48 H20        -9.6843   -2.9724    1.7475 H         1 <0>         0.0609
     49 H21       -10.3074   -5.2341    2.1971 H         1 <0>         0.3867
     50 H22        -9.9281   -1.3753    5.2020 H         1 <0>         0.3872
     51 H23        -7.1412    0.6131    4.9751 H         1 <0>         0.3903
@<TRIPOS>BOND
     1    1    2 1
     2    1   34 1
     3    1   35 1
     4    1   36 1
     5    2    3 1
     6    2    4 1
     7    2   11 1
     8    4    5 1
     9    4   37 1
    10    4   38 1
    11    5   10 ar
    12    5    6 ar
    13    6    7 ar
    14    6   39 1
    15    7    8 ar
    16    7   40 1
    17    8    9 ar
    18    8   41 1
    19    9   10 ar
    20    9   42 1
    21   10   43 1
    22   11   12 1
    23   11   44 1
    24   12   17 ar
    25   12   13 ar
    26   13   20 1
    27   13   14 ar
    28   14   15 ar
    29   14   18 1
    30   15   16 ar
    31   16   17 ar
    32   16   45 1
    33   18   19 1
    34   18   21 1
    35   19   20 2
    36   19   46 1
    37   21   22 1
    38   21   29 1
    39   21   23 1
    40   23   24 1
    41   23   25 1
    42   23   33 1
    43   25   26 1
    44   25   27 1
    45   25   32 1
    46   27   28 1
    47   27   29 1
    48   27   30 1
    49   30   31 1
    50   30   47 1
    51   30   48 1
    52   31   49 1
    53   32   50 1
    54   33   51 1
@<TRIPOS>MOLECULE
ZINC04654890
   33    34     0     0     0
SMALL
USER_CHARGES
1,3-dipropyl-7H-purine-2,6-dione
@<TRIPOS>ATOM
      1 C1          4.8600    4.3313   -1.4654 C.3       1 <0>        -0.1475
      2 C2          3.3301    4.3321   -1.4508 C.3       1 <0>        -0.1381
      3 C3          2.8338    4.3259   -0.0036 C.3       1 <0>         0.1189
      4 N1          1.3689    4.3267    0.0104 N.am      1 <0>        -0.5084
      5 C4          0.6765    3.1266    0.0116 C.2       1 <0>         0.3217
      6 C5         -0.7124    3.1538    0.0245 C.2       1 <0>        -0.1544
      7 C6         -1.3758    4.3997    0.0363 C.2       1 <0>         0.5935
      8 O1         -2.5926    4.4497    0.0477 O.2       1 <0>        -0.5123
      9 N2         -0.6460    5.5347    0.0341 N.am      1 <0>        -0.5489
     10 C7          0.6974    5.4937    0.0215 C.2       1 <0>         0.7070
     11 O2          1.3222    6.5369    0.0207 O.2       1 <0>        -0.5292
     12 C8         -1.3282    6.8311    0.0459 C.3       1 <0>         0.1135
     13 C9         -1.5790    7.2886   -1.3924 C.3       1 <0>        -0.1376
     14 C10        -2.2914    8.6425   -1.3801 C.3       1 <0>        -0.1474
     15 N3         -1.1247    1.8363    0.0168 N.pl3     1 <0>        -0.5215
     16 H1         -2.0695    1.5086    0.0176 H         1 <0>         0.4452
     17 C11        -0.0126    1.0758    0.0080 C.2       1 <0>         0.2766
     18 N4          1.0472    1.8436    0.0020 N.2       1 <0>        -0.4997
     19 H2          5.2135    4.3357   -2.4965 H         1 <0>         0.0608
     20 H3          5.2287    5.2188   -0.9511 H         1 <0>         0.0590
     21 H4          5.2277    3.4388   -0.9590 H         1 <0>         0.0591
     22 H5          2.9613    3.4446   -1.9652 H         1 <0>         0.0678
     23 H6          2.9624    5.2246   -1.9572 H         1 <0>         0.0676
     24 H7          3.2025    5.2134    0.5108 H         1 <0>         0.1001
     25 H8          3.2015    3.4334    0.5028 H         1 <0>         0.0990
     26 H9         -2.2803    6.7359    0.5681 H         1 <0>         0.1015
     27 H10        -0.7051    7.5649    0.5572 H         1 <0>         0.1034
     28 H11        -0.6269    7.3837   -1.9146 H         1 <0>         0.0691
     29 H12        -2.2021    6.5548   -1.9037 H         1 <0>         0.0670
     30 H13        -2.4700    8.9685   -2.4047 H         1 <0>         0.0615
     31 H14        -3.2435    8.5474   -0.8579 H         1 <0>         0.0590
     32 H15        -1.6683    9.3763   -0.8688 H         1 <0>         0.0599
     33 H16         0.0021   -0.0041    0.0020 H         1 <0>         0.2343
@<TRIPOS>BOND
     1    1    2 1
     2    1   19 1
     3    1   20 1
     4    1   21 1
     5    2    3 1
     6    2   22 1
     7    2   23 1
     8    3    4 1
     9    3   24 1
    10    3   25 1
    11    4   10 am
    12    4    5 1
    13    5   18 1
    14    5    6 2
    15    6    7 1
    16    6   15 1
    17    7    8 2
    18    7    9 am
    19    9   10 am
    20    9   12 1
    21   10   11 2
    22   12   13 1
    23   12   26 1
    24   12   27 1
    25   13   14 1
    26   13   28 1
    27   13   29 1
    28   14   30 1
    29   14   31 1
    30   14   32 1
    31   15   16 1
    32   15   17 1
    33   17   18 2
    34   17   33 1
@<TRIPOS>MOLECULE
ZINC00041847
   33    35     0     0     0
SMALL
USER_CHARGES

@<TRIPOS>ATOM
      1 C1         -1.1599    0.9855   -0.4114 C.3       1 <0>         0.0680
      2 N1         -0.5889   -0.3514   -0.2304 N.pl3     1 <0>        -0.6039
      3 C2          0.2986   -0.8554   -1.1616 C.2       1 <0>         0.3431
      4 N2          0.7508   -0.2825   -2.2637 N.2       1 <0>        -0.5392
      5 C3          1.6028   -0.9654   -3.0061 C.cat     1 <0>         0.4660
      6 N3          1.9447   -2.1787   -2.5930 N.pl3     1 <0>        -0.4816
      7 S1          1.0756   -2.3449   -1.1694 S.3       1 <0>         0.4528
      8 C4          2.8015   -3.0736   -3.1821 C.ar      1 <0>         0.0732
      9 C5          4.1035   -2.6884   -3.5060 C.ar      1 <0>        -0.0752
     10 C6          4.9602   -3.5933   -4.0978 C.ar      1 <0>        -0.0976
     11 C7          4.5314   -4.8802   -4.3705 C.ar      1 <0>        -0.0699
     12 C8          3.2419   -5.2684   -4.0525 C.ar      1 <0>        -0.0987
     13 C9          2.3769   -4.3750   -3.4551 C.ar      1 <0>        -0.0903
     14 C10         2.1570   -0.3967   -4.2569 C.ar      1 <0>        -0.0970
     15 C11         2.4578   -1.2318   -5.3325 C.ar      1 <0>        -0.0687
     16 C12         2.9734   -0.6962   -6.4950 C.ar      1 <0>        -0.1175
     17 C13         3.1924    0.6661   -6.5945 C.ar      1 <0>        -0.0606
     18 C14         2.8961    1.4996   -5.5309 C.ar      1 <0>        -0.1215
     19 C15         2.3747    0.9765   -4.3653 C.ar      1 <0>        -0.0403
     20 H1         -0.3576    1.7229   -0.4365 H         1 <0>         0.0886
     21 H2         -1.7144    1.0199   -1.3492 H         1 <0>         0.0887
     22 H3         -1.8325    1.2085    0.4168 H         1 <0>         0.1105
     23 H4         -0.8339   -0.8828    0.5432 H         1 <0>         0.4427
     24 H5          4.4393   -1.6840   -3.2940 H         1 <0>         0.1395
     25 H6          5.9677   -3.2965   -4.3492 H         1 <0>         0.1497
     26 H7          5.2060   -5.5848   -4.8339 H         1 <0>         0.1470
     27 H8          2.9132   -6.2742   -4.2686 H         1 <0>         0.1497
     28 H9          1.3722   -4.6806   -3.2030 H         1 <0>         0.1409
     29 H10         2.2878   -2.2956   -5.2557 H         1 <0>         0.1324
     30 H11         3.2066   -1.3419   -7.3287 H         1 <0>         0.1424
     31 H12         3.5968    1.0807   -7.5062 H         1 <0>         0.1419
     32 H13         3.0696    2.5623   -5.6143 H         1 <0>         0.1440
     33 H14         2.1399    1.6286   -3.5370 H         1 <0>         0.1405
@<TRIPOS>BOND
     1    1    2 1
     2    1   20 1
     3    1   21 1
     4    1   22 1
     5    2    3 1
     6    2   23 1
     7    3    7 1
     8    3    4 2
     9    4    5 1
    10    5    6 2
    11    5   14 1
    12    6    7 1
    13    6    8 1
    14    8   13 ar
    15    8    9 ar
    16    9   10 ar
    17    9   24 1
    18   10   11 ar
    19   10   25 1
    20   11   12 ar
    21   11   26 1
    22   12   13 ar
    23   12   27 1
    24   13   28 1
    25   14   19 ar
    26   14   15 ar
    27   15   16 ar
    28   15   29 1
    29   16   17 ar
    30   16   30 1
    31   17   18 ar
    32   17   31 1
    33   18   19 ar
    34   18   32 1
    35   19   33 1
@<TRIPOS>MOLECULE
ZINC21525625
   49    51     0     0     0
SMALL
USER_CHARGES
N-[4,6-bis(p-tolyl)pyrimidin-2-yl]butanamide
@<TRIPOS>ATOM
      1 C1          2.3933   -2.9945   -0.0369 C.3       1 <0>        -0.1550
      2 C2          1.0581   -2.2476   -0.0201 C.3       1 <0>        -0.1114
      3 C3          1.3172   -0.7397   -0.0145 C.3       1 <0>        -0.1363
      4 C4          0.0021   -0.0041    0.0020 C.2       1 <0>         0.5094
      5 O1         -1.0397   -0.6246    0.0086 O.2       1 <0>        -0.4691
      6 N1         -0.0162    1.3436    0.0094 N.am      1 <0>        -0.6574
      7 C5         -1.2289    2.0219    0.0189 C.ar      1 <0>         0.5536
      8 N2         -2.3545    1.3266    0.0150 N.ar      1 <0>        -0.5069
      9 C6         -3.5365    1.9402    0.0285 C.ar      1 <0>         0.2541
     10 C7         -3.5759    3.3348    0.0362 C.ar      1 <0>        -0.2514
     11 C8         -2.3669    4.0310    0.0347 C.ar      1 <0>         0.2568
     12 N3         -1.2254    3.3449    0.0260 N.ar      1 <0>        -0.5535
     13 C9         -2.3531    5.5141    0.0432 C.ar      1 <0>        -0.0684
     14 C10        -3.5520    6.2248    0.0465 C.ar      1 <0>        -0.0842
     15 C11        -3.5330    7.6047    0.0588 C.ar      1 <0>        -0.1263
     16 C12        -2.3271    8.2825    0.0581 C.ar      1 <0>        -0.0642
     17 C13        -1.1342    7.5823    0.0496 C.ar      1 <0>        -0.1287
     18 C14        -1.1410    6.2023    0.0422 C.ar      1 <0>        -0.0653
     19 C15        -2.3130    9.7894    0.0662 C.3       1 <0>        -0.1227
     20 C16        -4.7930    1.1523    0.0297 C.ar      1 <0>        -0.0716
     21 C17        -6.0261    1.8019    0.0445 C.ar      1 <0>        -0.0847
     22 C18        -7.1921    1.0636    0.0412 C.ar      1 <0>        -0.1299
     23 C19        -7.1386   -0.3186    0.0330 C.ar      1 <0>        -0.0639
     24 C20        -5.9176   -0.9688    0.0236 C.ar      1 <0>        -0.1304
     25 C21        -4.7452   -0.2407    0.0220 C.ar      1 <0>        -0.0589
     26 C22        -8.4153   -1.1193    0.0348 C.3       1 <0>        -0.1219
     27 H1          2.2070   -4.0786   -0.0409 H         1 <0>         0.0600
     28 H2          2.9750   -2.7257    0.8572 H         1 <0>         0.0558
     29 H3          2.9578   -2.7161   -0.9390 H         1 <0>         0.0558
     30 H4          0.4764   -2.5164   -0.9142 H         1 <0>         0.0711
     31 H5          0.4935   -2.5260    0.8820 H         1 <0>         0.0711
     32 H6          1.8989   -0.4710    0.8796 H         1 <0>         0.0988
     33 H7          1.8818   -0.4613   -0.9166 H         1 <0>         0.0988
     34 H8          0.9289    1.9065    0.0079 H         1 <0>         0.4496
     35 H9         -4.5184    3.8620    0.0435 H         1 <0>         0.1495
     36 H10        -4.4940    5.6967    0.0429 H         1 <0>         0.1284
     37 H11        -4.4614    8.1565    0.0651 H         1 <0>         0.1290
     38 H12        -0.1956    8.1166    0.0491 H         1 <0>         0.1279
     39 H13        -0.2090    5.6566    0.0352 H         1 <0>         0.1359
     40 H14        -1.2725   10.1463    0.0644 H         1 <0>         0.0681
     41 H15        -2.8248   10.1560    0.9682 H         1 <0>         0.0738
     42 H16        -2.8313   10.1657   -0.8281 H         1 <0>         0.0738
     43 H17        -6.0690    2.8810    0.0551 H         1 <0>         0.1271
     44 H18        -8.1481    1.5659    0.0489 H         1 <0>         0.1280
     45 H19        -5.8817   -2.0481    0.0173 H         1 <0>         0.1271
     46 H20        -3.7925   -0.7493    0.0150 H         1 <0>         0.1443
     47 H21        -8.1749   -2.1927    0.0274 H         1 <0>         0.0678
     48 H22        -9.0059   -0.8697   -0.8590 H         1 <0>         0.0732
     49 H23        -8.9969   -0.8800    0.9373 H         1 <0>         0.0732
@<TRIPOS>BOND
     1    1    2 1
     2    1   27 1
     3    1   28 1
     4    1   29 1
     5    2    3 1
     6    2   30 1
     7    2   31 1
     8    3    4 1
     9    3   32 1
    10    3   33 1
    11    4    5 2
    12    4    6 am
    13    6    7 1
    14    6   34 1
    15    7   12 ar
    16    7    8 ar
    17    8    9 ar
    18    9   10 ar
    19    9   20 1
    20   10   11 ar
    21   10   35 1
    22   11   12 ar
    23   11   13 1
    24   13   18 ar
    25   13   14 ar
    26   14   15 ar
    27   14   36 1
    28   15   16 ar
    29   15   37 1
    30   16   17 ar
    31   16   19 1
    32   17   18 ar
    33   17   38 1
    34   18   39 1
    35   19   40 1
    36   19   41 1
    37   19   42 1
    38   20   25 ar
    39   20   21 ar
    40   21   22 ar
    41   21   43 1
    42   22   23 ar
    43   22   44 1
    44   23   24 ar
    45   23   26 1
    46   24   25 ar
    47   24   45 1
    48   25   46 1
    49   26   47 1
    50   26   48 1
    51   26   49 1
@<TRIPOS>MOLECULE
ZINC03872013
   28    31     0     0     0
SMALL
USER_CHARGES

@<TRIPOS>ATOM
      1 C1         -0.0162    1.3433    0.0094 C.2       1 <0>        -0.2195
      2 C2          1.3252    1.7744   -0.0011 C.2       1 <0>        -0.1351
      3 C3          2.0962    0.6548   -0.0144 C.2       1 <0>         0.0399
      4 O1          1.2797   -0.4166   -0.0124 O.3       1 <0>        -0.1525
      5 C4          0.0021   -0.0041    0.0020 C.2       1 <0>        -0.0023
      6 C5          3.5737    0.6193   -0.0292 C.2       1 <0>         0.3445
      7 N1          4.3226   -0.4905   -0.0476 N.2       1 <0>        -0.5018
      8 C6          5.5962   -0.1641   -0.0567 C.2       1 <0>         0.3614
      9 C7          6.8502   -0.9263   -0.0770 C.ar      1 <0>        -0.1117
     10 C8          6.8690   -2.3192   -0.0918 C.ar      1 <0>        -0.0298
     11 C9          8.0788   -2.9807   -0.1111 C.ar      1 <0>        -0.0604
     12 C10         9.2722   -2.2687   -0.1153 C.ar      1 <0>        -0.0566
     13 C11         9.2751   -0.9026   -0.1006 C.ar      1 <0>        -0.1000
     14 C12         8.0651   -0.2038   -0.0819 C.ar      1 <0>         0.1923
     15 N2          8.0311    1.1508   -0.0678 N.2       1 <0>        -0.5514
     16 C13         6.9051    1.8155   -0.0498 C.2       1 <0>         0.6594
     17 N3          5.6826    1.2027   -0.0438 N.pl3     1 <0>        -0.3685
     18 N4          4.3637    1.6764   -0.0320 N.2       1 <0>        -0.2877
     19 N5          6.9524    3.1898   -0.0360 N.pl3     1 <0>        -0.8086
     20 Cl1         8.1113   -4.7163   -0.1296 Cl        1 <0>        -0.0542
     21 H1         -0.8931    1.9736    0.0252 H         1 <0>         0.1603
     22 H2          1.6736    2.7966    0.0008 H         1 <0>         0.1603
     23 H3         -0.8667   -0.6456    0.0074 H         1 <0>         0.2151
     24 H4          5.9438   -2.8764   -0.0879 H         1 <0>         0.1517
     25 H5         10.2107   -2.8029   -0.1301 H         1 <0>         0.1482
     26 H6         10.2110   -0.3636   -0.1038 H         1 <0>         0.1535
     27 H7          7.8086    3.6457   -0.0396 H         1 <0>         0.4305
     28 H8          6.1295    3.7032   -0.0225 H         1 <0>         0.4230
@<TRIPOS>BOND
     1    1    5 2
     2    1    2 1
     3    1   21 1
     4    2    3 2
     5    2   22 1
     6    3    4 1
     7    3    6 1
     8    4    5 1
     9    5   23 1
    10    6   18 2
    11    6    7 1
    12    7    8 2
    13    8   17 1
    14    8    9 1
    15    9   14 ar
    16    9   10 ar
    17   10   11 ar
    18   10   24 1
    19   11   12 ar
    20   11   20 1
    21   12   13 ar
    22   12   25 1
    23   13   14 ar
    24   13   26 1
    25   14   15 1
    26   15   16 2
    27   16   17 1
    28   16   19 1
    29   17   18 1
    30   19   27 1
    31   19   28 1
@<TRIPOS>MOLECULE
ZINC35308313
   41    42     0     0     0
SMALL
USER_CHARGES

@<TRIPOS>ATOM
      1 C1          1.2942   -2.5148    0.8226 C.3       1 <0>        -0.1555
      2 C2          0.8770   -2.9052   -0.5967 C.3       1 <0>        -0.0519
      3 C3          1.7292   -4.0833   -1.0730 C.3       1 <0>        -0.1551
      4 C4         -0.5989   -3.3083   -0.6018 C.3       1 <0>        -0.1432
      5 C5          1.0836   -1.7143   -1.5348 C.3       1 <0>        -0.1293
      6 C6          2.5374   -1.3172   -1.5298 C.2       1 <0>         0.5219
      7 O1          3.3302   -1.9267   -0.8435 O.2       1 <0>        -0.5060
      8 N1          2.9565   -0.2847   -2.2879 N.am      1 <0>        -0.6889
      9 C7          4.2815    0.1493   -2.2058 C.ar      1 <0>         0.0957
     10 C8          4.6406    1.1114   -1.2655 C.ar      1 <0>         0.1383
     11 C9          5.9480    1.5417   -1.1821 C.ar      1 <0>        -0.0943
     12 C10         6.9132    1.0109   -2.0423 C.ar      1 <0>        -0.0691
     13 C11         6.5500    0.0450   -2.9849 C.ar      1 <0>        -0.1290
     14 C12         5.2420   -0.3852   -3.0605 C.ar      1 <0>         0.1392
     15 F1          4.8913   -1.3226   -3.9679 F         1 <0>        -0.1149
     16 C13         8.3129    1.4697   -1.9559 C.2       1 <0>         0.5593
     17 O2          8.6276    2.3104   -1.1357 O.2       1 <0>        -0.4498
     18 N2          9.2426    0.9569   -2.7860 N.am      1 <0>        -0.6170
     19 C14        10.5602    1.3889   -2.7046 C.2       1 <0>         0.2661
     20 N3         11.0804    2.2768   -1.8849 N.2       1 <0>        -0.5194
     21 C15        12.3642    2.5808   -1.9339 C.2       1 <0>         0.0620
     22 C16        13.1145    1.9386   -2.8626 C.2       1 <0>        -0.2392
     23 S1         11.8805    0.8981   -3.6258 S.3       1 <0>         0.1178
     24 F2          3.7071    1.6241   -0.4342 F         1 <0>        -0.1137
     25 H1          2.3457   -2.2276    0.8262 H         1 <0>         0.0802
     26 H2          0.6871   -1.6755    1.1619 H         1 <0>         0.0479
     27 H3          1.1470   -3.3633    1.4909 H         1 <0>         0.0542
     28 H4          1.5820   -4.9318   -0.4047 H         1 <0>         0.0541
     29 H5          1.4319   -4.3614   -2.0841 H         1 <0>         0.0477
     30 H6          2.7806   -3.7961   -1.0693 H         1 <0>         0.0802
     31 H7         -1.2060   -2.4690   -0.2625 H         1 <0>         0.0559
     32 H8         -0.8961   -3.5864   -1.6130 H         1 <0>         0.0558
     33 H9         -0.7461   -4.1568    0.0665 H         1 <0>         0.0604
     34 H10         0.7864   -1.9923   -2.5459 H         1 <0>         0.0990
     35 H11         0.4766   -0.8749   -1.1955 H         1 <0>         0.0999
     36 H12         2.3380    0.1570   -2.8906 H         1 <0>         0.4168
     37 H13         6.2259    2.2885   -0.4531 H         1 <0>         0.1657
     38 H14         7.2938   -0.3669   -3.6508 H         1 <0>         0.1515
     39 H15         8.9916    0.2863   -3.4403 H         1 <0>         0.4264
     40 H16        12.7973    3.3090   -1.2641 H         1 <0>         0.1785
     41 H17        14.1689    2.0284   -3.0784 H         1 <0>         0.2016
@<TRIPOS>BOND
     1    1    2 1
     2    1   25 1
     3    1   26 1
     4    1   27 1
     5    2    3 1
     6    2    4 1
     7    2    5 1
     8    3   28 1
     9    3   29 1
    10    3   30 1
    11    4   31 1
    12    4   32 1
    13    4   33 1
    14    5    6 1
    15    5   34 1
    16    5   35 1
    17    6    7 2
    18    6    8 am
    19    8    9 1
    20    8   36 1
    21    9   14 ar
    22    9   10 ar
    23   10   11 ar
    24   10   24 1
    25   11   12 ar
    26   11   37 1
    27   12   13 ar
    28   12   16 1
    29   13   14 ar
    30   13   38 1
    31   14   15 1
    32   16   17 2
    33   16   18 am
    34   18   19 1
    35   18   39 1
    36   19   23 1
    37   19   20 2
    38   20   21 1
    39   21   22 2
    40   21   40 1
    41   22   23 1
    42   22   41 1
@<TRIPOS>MOLECULE
ZINC00006170
   41    45     0     0     0
SMALL
USER_CHARGES

@<TRIPOS>ATOM
      1 C1         -0.0167    1.3781    0.0096 C.ar      1 <0>        -0.1193
      2 C2          1.1709    2.0855    0.0021 C.ar      1 <0>        -0.1177
      3 C3          2.3773    1.4107   -0.0130 C.ar      1 <0>        -0.1123
      4 C4          2.3960    0.0285   -0.0201 C.ar      1 <0>        -0.0863
      5 C5          1.2084   -0.6789   -0.0117 C.ar      1 <0>        -0.1124
      6 C6          0.0021   -0.0041    0.0020 C.ar      1 <0>        -0.1183
      7 C7          3.7112   -0.7071   -0.0376 C.3       1 <0>        -0.0949
      8 C8          4.1714   -0.9633    1.3989 C.3       1 <0>         0.1442
      9 N1          5.4498   -1.6784    1.3820 N.pl3     1 <0>        -0.3547
     10 C9          5.6077   -3.0319    1.3681 C.2       1 <0>         0.3701
     11 C10         6.9900   -3.2725    1.3542 C.2       1 <0>        -0.2670
     12 C11         7.6325   -2.0214    1.3604 C.2       1 <0>         0.1312
     13 N2          6.7200   -1.0888    1.3711 N.2       1 <0>        -0.2630
     14 C12         7.4452   -4.6631    1.3378 C.2       1 <0>         0.4065
     15 N3          8.6257   -5.2466    1.3226 N.2       1 <0>        -0.5161
     16 C13         8.4699   -6.5766    1.3120 C.2       1 <0>         0.3506
     17 N4          7.1818   -6.8637    1.3203 N.2       1 <0>        -0.2997
     18 N5          6.4899   -5.6460    1.3371 N.pl3     1 <0>        -0.3763
     19 C14         5.1670   -5.3111    1.3510 C.2       1 <0>         0.6919
     20 N6          4.7561   -4.0669    1.3656 N.2       1 <0>        -0.5613
     21 N7          4.2296   -6.3175    1.3499 N.pl3     1 <0>        -0.8022
     22 C15         9.5672   -7.5665    1.2938 C.2       1 <0>         0.0423
     23 C16         9.4221   -8.9181    1.2774 C.2       1 <0>        -0.1371
     24 C17        10.7203   -9.4655    1.2629 C.2       1 <0>        -0.2200
     25 C18        11.5847   -8.4318    1.2711 C.2       1 <0>        -0.0041
     26 O1         10.8847   -7.2861    1.2846 O.3       1 <0>        -0.1521
     27 H1         -0.9591    1.9053    0.0259 H         1 <0>         0.1226
     28 H2          1.1563    3.1654    0.0076 H         1 <0>         0.1238
     29 H3          3.3051    1.9634   -0.0196 H         1 <0>         0.1240
     30 H4          1.2231   -1.7588   -0.0176 H         1 <0>         0.1230
     31 H5         -0.9258   -0.5567    0.0082 H         1 <0>         0.1232
     32 H6          3.5884   -1.6586   -0.5549 H         1 <0>         0.0796
     33 H7          4.4573   -0.1052   -0.5563 H         1 <0>         0.0839
     34 H8          4.2941   -0.0118    1.9163 H         1 <0>         0.1036
     35 H9          3.4252   -1.5652    1.9176 H         1 <0>         0.1014
     36 H10         8.7003   -1.8600    1.3531 H         1 <0>         0.2026
     37 H11         4.5137   -7.2449    1.3395 H         1 <0>         0.4264
     38 H12         3.2844   -6.0999    1.3596 H         1 <0>         0.4303
     39 H13         8.4916   -9.4663    1.2762 H         1 <0>         0.1599
     40 H14        10.9745  -10.5151    1.2484 H         1 <0>         0.1594
     41 H15        12.6618   -8.5115    1.2638 H         1 <0>         0.2142
@<TRIPOS>BOND
     1    1    6 ar
     2    1    2 ar
     3    1   27 1
     4    2    3 ar
     5    2   28 1
     6    3    4 ar
     7    3   29 1
     8    4    5 ar
     9    4    7 1
    10    5    6 ar
    11    5   30 1
    12    6   31 1
    13    7    8 1
    14    7   32 1
    15    7   33 1
    16    8    9 1
    17    8   34 1
    18    8   35 1
    19    9   13 1
    20    9   10 1
    21   10   20 1
    22   10   11 2
    23   11   12 1
    24   11   14 1
    25   12   13 2
    26   12   36 1
    27   14   18 1
    28   14   15 2
    29   15   16 1
    30   16   17 2
    31   16   22 1
    32   17   18 1
    33   18   19 1
    34   19   20 2
    35   19   21 1
    36   21   37 1
    37   21   38 1
    38   22   26 1
    39   22   23 2
    40   23   24 1
    41   23   39 1
    42   24   25 2
    43   24   40 1
    44   25   26 1
    45   25   41 1
@<TRIPOS>MOLECULE
ZINC20094599
   34    35     0     0     0
SMALL
USER_CHARGES
2-amino-6-(2-hydroxyethylsulfanyl)-4-(3-hydroxyphenyl)pyridine-3,5-dicarbonitrile
@<TRIPOS>ATOM
      1 C1         -1.2204    1.7483    0.0173 C.ar      1 <0>        -0.0745
      2 C2         -1.2467    3.1281    0.0298 C.ar      1 <0>        -0.1305
      3 C3         -0.0514    3.8481    0.0223 C.ar      1 <0>        -0.0434
      4 C4          1.1665    3.1684    0.0075 C.ar      1 <0>        -0.1322
      5 C5          1.1819    1.7840    0.0004 C.ar      1 <0>         0.1610
      6 C6         -0.0126    1.0758    0.0080 C.ar      1 <0>        -0.1969
      7 O1          2.3664    1.1179   -0.0145 O.3       1 <0>        -0.5070
      8 C7         -0.0759    5.3276    0.0295 C.ar      1 <0>         0.1584
      9 C8          0.4278    6.0558    1.1258 C.ar      1 <0>        -0.1575
     10 C9          0.3888    7.4619    1.0859 C.ar      1 <0>         0.5036
     11 N1         -0.1211    8.0991    0.0441 N.ar      1 <0>        -0.5487
     12 C10        -0.6106    7.4560   -1.0052 C.ar      1 <0>         0.2451
     13 C11        -0.6087    6.0489   -1.0566 C.ar      1 <0>        -0.1216
     14 C12        -1.1404    5.3620   -2.1951 C.1       1 <0>         0.2585
     15 N2         -1.5622    4.8171   -3.0982 N.1       1 <0>        -0.3927
     16 S1         -1.2727    8.3739   -2.3557 S.3       1 <0>        -0.0038
     17 C13        -1.0139   10.0588   -1.7473 C.3       1 <0>        -0.1150
     18 C14        -1.5278   11.0599   -2.7841 C.3       1 <0>         0.0974
     19 O2         -1.3235   12.3901   -2.3038 O.3       1 <0>        -0.5973
     20 N3          0.8843    8.1868    2.1512 N.pl3     1 <0>        -0.8433
     21 C15         0.9757    5.3755    2.2605 C.1       1 <0>         0.2582
     22 N4          1.4103    4.8358    3.1607 N.1       1 <0>        -0.4023
     23 H1         -2.1462    1.1921    0.0191 H         1 <0>         0.1328
     24 H2         -2.1920    3.6503    0.0413 H         1 <0>         0.1297
     25 H3          2.0948    3.7204    0.0012 H         1 <0>         0.1326
     26 H4          0.0021   -0.0041    0.0020 H         1 <0>         0.1321
     27 H5          2.3788    0.0180   -0.0201 H         1 <0>         0.4375
     28 H6         -1.5609   10.1956   -0.8028 H         1 <0>         0.1076
     29 H7          0.0598   10.2262   -1.5767 H         1 <0>         0.1075
     30 H8         -0.9808   10.9230   -3.7286 H         1 <0>         0.0531
     31 H9         -2.6015   10.8925   -2.9547 H         1 <0>         0.0531
     32 H10        -1.6324   13.2497   -2.9168 H         1 <0>         0.4187
     33 H11         0.8577    9.2862    2.1282 H         1 <0>         0.4410
     34 H12         1.3057    7.6650    3.0230 H         1 <0>         0.4387
@<TRIPOS>BOND
     1    1    6 ar
     2    1    2 ar
     3    1   23 1
     4    2    3 ar
     5    2   24 1
     6    3    4 ar
     7    3    8 1
     8    4    5 ar
     9    4   25 1
    10    5    6 ar
    11    5    7 1
    12    6   26 1
    13    7   27 1
    14    8   13 ar
    15    8    9 ar
    16    9   10 ar
    17    9   21 1
    18   10   11 ar
    19   10   20 1
    20   11   12 ar
    21   12   13 ar
    22   12   16 1
    23   13   14 1
    24   14   15 3
    25   16   17 1
    26   17   18 1
    27   17   28 1
    28   17   29 1
    29   18   19 1
    30   18   30 1
    31   18   31 1
    32   19   32 1
    33   20   33 1
    34   20   34 1
    35   21   22 3
@<TRIPOS>MOLECULE
ZINC13612605
   37    38     0     0     0
SMALL
USER_CHARGES
2-amino-6-(2-hydroxyethylsulfanyl)-4-(4-methoxyphenyl)pyridine-3,5-dicarbonitrile
@<TRIPOS>ATOM
      1 C1         -3.6069    3.0015    0.0537 C.3       1 <0>         0.0206
      2 O1         -2.4209    3.7987    0.0462 O.3       1 <0>        -0.3122
      3 C2         -1.2343    3.1385    0.0313 C.ar      1 <0>         0.1491
      4 C3         -1.2145    1.7493    0.0173 C.ar      1 <0>        -0.2073
      5 C4         -0.0126    1.0758    0.0080 C.ar      1 <0>        -0.0436
      6 C5          1.1866    1.7913    0.0003 C.ar      1 <0>        -0.1288
      7 C6          1.1625    3.1875    0.0081 C.ar      1 <0>        -0.0449
      8 C7         -0.0434    3.8538    0.0233 C.ar      1 <0>        -0.1491
      9 C8          2.4783    1.0725   -0.0154 C.ar      1 <0>         0.1672
     10 C9          2.8768    0.2724    1.0750 C.ar      1 <0>        -0.1623
     11 C10         4.1123   -0.3979    1.0126 C.ar      1 <0>         0.5033
     12 N1          4.9000   -0.2762   -0.0440 N.ar      1 <0>        -0.5505
     13 C11         4.5695    0.4690   -1.0880 C.ar      1 <0>         0.2454
     14 C12         3.3501    1.1717   -1.1182 C.ar      1 <0>        -0.1251
     15 C13         3.0008    1.9741   -2.2517 C.1       1 <0>         0.2588
     16 N2          2.7237    2.6107   -3.1508 N.1       1 <0>        -0.3941
     17 S1          5.6713    0.5817   -2.4585 S.3       1 <0>        -0.0055
     18 C14         7.0110   -0.4855   -1.8734 C.3       1 <0>        -0.1147
     19 C15         8.1161   -0.5425   -2.9299 C.3       1 <0>         0.0974
     20 O2          9.1738   -1.3851   -2.4680 O.3       1 <0>        -0.5974
     21 N3          4.5111   -1.1893    2.0711 N.pl3     1 <0>        -0.8442
     22 C16         2.0345    0.1391    2.2253 C.1       1 <0>         0.2603
     23 N4          1.3662    0.0334    3.1379 N.1       1 <0>        -0.4062
     24 H1         -4.4897    3.6577    0.0656 H         1 <0>         0.1056
     25 H2         -3.6132    2.3621    0.9487 H         1 <0>         0.0593
     26 H3         -3.6307    2.3712   -0.8475 H         1 <0>         0.0597
     27 H4         -2.1424    1.1967    0.0187 H         1 <0>         0.1359
     28 H5          0.0021   -0.0041    0.0020 H         1 <0>         0.1301
     29 H6          2.0879    3.7443    0.0019 H         1 <0>         0.1357
     30 H7         -0.0629    4.9337    0.0293 H         1 <0>         0.1395
     31 H8          7.4202   -0.0799   -0.9363 H         1 <0>         0.1074
     32 H9          6.6215   -1.4987   -1.6952 H         1 <0>         0.1072
     33 H10         7.7069   -0.9480   -3.8670 H         1 <0>         0.0530
     34 H11         8.5057    0.4707   -3.1081 H         1 <0>         0.0531
     35 H12        10.0614   -1.5484   -3.0969 H         1 <0>         0.4186
     36 H13         5.4755   -1.7169    2.0306 H         1 <0>         0.4405
     37 H14         3.8645   -1.2923    2.9550 H         1 <0>         0.4381
@<TRIPOS>BOND
     1    1    2 1
     2    1   24 1
     3    1   25 1
     4    1   26 1
     5    2    3 1
     6    3    8 ar
     7    3    4 ar
     8    4    5 ar
     9    4   27 1
    10    5    6 ar
    11    5   28 1
    12    6    7 ar
    13    6    9 1
    14    7    8 ar
    15    7   29 1
    16    8   30 1
    17    9   14 ar
    18    9   10 ar
    19   10   11 ar
    20   10   22 1
    21   11   12 ar
    22   11   21 1
    23   12   13 ar
    24   13   14 ar
    25   13   17 1
    26   14   15 1
    27   15   16 3
    28   17   18 1
    29   18   19 1
    30   18   31 1
    31   18   32 1
    32   19   20 1
    33   19   33 1
    34   19   34 1
    35   20   35 1
    36   21   36 1
    37   21   37 1
    38   22   23 3
@<TRIPOS>MOLECULE
ZINC13612582
   36    37     0     0     0
SMALL
USER_CHARGES
2-amino-6-(2-hydroxyethylsulfanyl)-4-[4-(trifluoromethyl)phenyl]pyridine-3,5-dicarbonitrile
@<TRIPOS>ATOM
      1 C1         -0.0126    1.0758    0.0080 C.ar      1 <0>        -0.0891
      2 C2         -1.2158    1.7508    0.0173 C.ar      1 <0>        -0.0657
      3 C3         -1.2362    3.1342    0.0308 C.ar      1 <0>        -0.1667
      4 C4         -0.0519    3.8496    0.0233 C.ar      1 <0>        -0.0653
      5 C5          1.1579    3.1866    0.0082 C.ar      1 <0>        -0.0885
      6 C6          1.1854    1.7914    0.0004 C.ar      1 <0>        -0.0507
      7 C7          2.4793    1.0739   -0.0154 C.ar      1 <0>         0.1494
      8 C8          2.8787    0.2749    1.0745 C.ar      1 <0>        -0.1557
      9 C9          4.1159   -0.3927    1.0131 C.ar      1 <0>         0.5048
     10 N1          4.9035   -0.2699   -0.0434 N.ar      1 <0>        -0.5470
     11 C10         4.5714    0.4740   -1.0876 C.ar      1 <0>         0.2463
     12 C11         3.3504    1.1744   -1.1177 C.ar      1 <0>        -0.1199
     13 C12         2.9994    1.9760   -2.2513 C.1       1 <0>         0.2537
     14 N2          2.7210    2.6119   -3.1505 N.1       1 <0>        -0.3876
     15 S1          5.6725    0.5882   -2.4585 S.3       1 <0>        -0.0006
     16 C13         7.0144   -0.4762   -1.8732 C.3       1 <0>        -0.1155
     17 C14         8.1193   -0.5317   -2.9301 C.3       1 <0>         0.0973
     18 O1          9.1787   -1.3720   -2.4681 O.3       1 <0>        -0.5973
     19 N3          4.5163   -1.1823    2.0723 N.pl3     1 <0>        -0.8420
     20 C15         2.0363    0.1405    2.2247 C.1       1 <0>         0.2543
     21 N4          1.3681    0.0339    3.1372 N.1       1 <0>        -0.3980
     22 C16        -2.5540    3.8650    0.0473 C.3       1 <0>         0.5076
     23 F1         -2.9744    4.0982   -1.2664 F         1 <0>        -0.1728
     24 F2         -3.5095    3.0886    0.7118 F         1 <0>        -0.1743
     25 F3         -2.4016    5.0865    0.7120 F         1 <0>        -0.1742
     26 H1          0.0021   -0.0041    0.0020 H         1 <0>         0.1415
     27 H2         -2.1436    1.1982    0.0187 H         1 <0>         0.1450
     28 H3         -0.0746    4.9293    0.0297 H         1 <0>         0.1455
     29 H4          2.0816    3.7462    0.0020 H         1 <0>         0.1425
     30 H5          7.4231   -0.0693   -0.9365 H         1 <0>         0.1080
     31 H6          6.6268   -1.4900   -1.6943 H         1 <0>         0.1080
     32 H7          7.7106   -0.9385   -3.8668 H         1 <0>         0.0533
     33 H8          8.5069    0.4821   -3.1090 H         1 <0>         0.0533
     34 H9         10.0664   -1.5340   -3.0972 H         1 <0>         0.4193
     35 H10         5.4819   -1.7077    2.0325 H         1 <0>         0.4421
     36 H11         3.8697   -1.2861    2.9561 H         1 <0>         0.4393
@<TRIPOS>BOND
     1    1    6 ar
     2    1    2 ar
     3    1   26 1
     4    2    3 ar
     5    2   27 1
     6    3    4 ar
     7    3   22 1
     8    4    5 ar
     9    4   28 1
    10    5    6 ar
    11    5   29 1
    12    6    7 1
    13    7   12 ar
    14    7    8 ar
    15    8    9 ar
    16    8   20 1
    17    9   10 ar
    18    9   19 1
    19   10   11 ar
    20   11   12 ar
    21   11   15 1
    22   12   13 1
    23   13   14 3
    24   15   16 1
    25   16   17 1
    26   16   30 1
    27   16   31 1
    28   17   18 1
    29   17   32 1
    30   17   33 1
    31   18   34 1
    32   19   35 1
    33   19   36 1
    34   20   21 3
    35   22   23 1
    36   22   24 1
    37   22   25 1
@<TRIPOS>MOLECULE
ZINC13612573
   33    34     0     0     0
SMALL
USER_CHARGES
2-amino-4-(3-fluorophenyl)-6-(2-hydroxyethylsulfanyl)pyridine-3,5-dicarbonitrile
@<TRIPOS>ATOM
      1 C1          2.4030    0.0179   -0.0217 C.ar      1 <0>        -0.0850
      2 C2          2.3968    1.3978   -0.0142 C.ar      1 <0>        -0.0979
      3 C3          1.1842    2.0880    0.0020 C.ar      1 <0>        -0.0557
      4 C4         -0.0167    1.3775    0.0096 C.ar      1 <0>        -0.1248
      5 C5          0.0021   -0.0041    0.0020 C.ar      1 <0>         0.1046
      6 C6          1.2105   -0.6825   -0.0136 C.ar      1 <0>        -0.1354
      7 F1         -1.1591   -0.6945    0.0094 F         1 <0>        -0.1327
      8 C7          1.1719    3.5676    0.0100 C.ar      1 <0>         0.1553
      9 C8          0.6656    4.2825    1.1139 C.ar      1 <0>        -0.1570
     10 C9          0.6746    5.6891    1.0773 C.ar      1 <0>         0.5044
     11 N1          1.1486    6.3393    0.0265 N.ar      1 <0>        -0.5477
     12 C10         1.6339    5.7091   -1.0325 C.ar      1 <0>         0.2458
     13 C11         1.6711    4.3025   -1.0829 C.ar      1 <0>        -0.1208
     14 C12         2.2029    3.6296   -2.2297 C.1       1 <0>         0.2562
     15 N2          2.6248    3.0958   -3.1394 N.1       1 <0>        -0.3901
     16 S1          2.2478    6.6438   -2.3941 S.3       1 <0>        -0.0018
     17 C13         1.9584    8.3215   -1.7796 C.3       1 <0>        -0.1154
     18 C14         2.4278    9.3355   -2.8247 C.3       1 <0>         0.0973
     19 O1          2.1994   10.6601   -2.3395 O.3       1 <0>        -0.5974
     20 N3          0.1814    6.4010    2.1524 N.pl3     1 <0>        -0.8425
     21 C15         0.1505    3.5882    2.2555 C.1       1 <0>         0.2558
     22 N4         -0.2581    3.0374    3.1611 N.1       1 <0>        -0.4001
     23 H1          3.3414   -0.5164   -0.0343 H         1 <0>         0.1428
     24 H2          3.3292    1.9428   -0.0206 H         1 <0>         0.1368
     25 H3         -0.9584    1.9061    0.0170 H         1 <0>         0.1406
     26 H4          1.2210   -1.7625   -0.0199 H         1 <0>         0.1425
     27 H5          0.8842    8.4620   -1.5890 H         1 <0>         0.1078
     28 H6          2.5192    8.4716   -0.8453 H         1 <0>         0.1079
     29 H7          3.5020    9.1950   -3.0153 H         1 <0>         0.0532
     30 H8          1.8669    9.1855   -3.7590 H         1 <0>         0.0532
     31 H9          2.4753   11.5274   -2.9573 H         1 <0>         0.4191
     32 H10         0.1847    7.5008    2.1319 H         1 <0>         0.4417
     33 H11        -0.2149    5.8684    3.0295 H         1 <0>         0.4391
@<TRIPOS>BOND
     1    1    6 ar
     2    1    2 ar
     3    1   23 1
     4    2    3 ar
     5    2   24 1
     6    3    4 ar
     7    3    8 1
     8    4    5 ar
     9    4   25 1
    10    5    6 ar
    11    5    7 1
    12    6   26 1
    13    8   13 ar
    14    8    9 ar
    15    9   10 ar
    16    9   21 1
    17   10   11 ar
    18   10   20 1
    19   11   12 ar
    20   12   13 ar
    21   12   16 1
    22   13   14 1
    23   14   15 3
    24   16   17 1
    25   17   18 1
    26   17   27 1
    27   17   28 1
    28   18   19 1
    29   18   29 1
    30   18   30 1
    31   19   31 1
    32   20   32 1
    33   20   33 1
    34   21   22 3
@<TRIPOS>MOLECULE
ZINC03777854
   58    60     0     0     0
SMALL
USER_CHARGES
8-[2-(3,4-dimethoxyphenyl)vinyl]-7-methyl-1,3-dipropyl-purine-2,6-dione
@<TRIPOS>ATOM
      1 C1          4.8978    4.2719   -1.4656 C.3       1 <0>        -0.1469
      2 C2          3.4469    3.7865   -1.4538 C.3       1 <0>        -0.1382
      3 C3          2.9776    3.6168   -0.0075 C.3       1 <0>         0.1198
      4 N1          1.5884    3.1520    0.0038 N.am      1 <0>        -0.5087
      5 C4          1.3129    1.7928   -0.0008 C.2       1 <0>         0.3262
      6 C5         -0.0167    1.3786    0.0096 C.2       1 <0>        -0.1515
      7 C6         -1.0384    2.3497    0.0297 C.2       1 <0>         0.5946
      8 O1         -2.2089    2.0120    0.0441 O.2       1 <0>        -0.5131
      9 N2         -0.7059    3.6571    0.0284 N.am      1 <0>        -0.5492
     10 C7          0.5810    4.0447    0.0182 C.2       1 <0>         0.7076
     11 O2          0.8420    5.2324    0.0225 O.2       1 <0>        -0.5306
     12 C8         -1.7640    4.6703    0.0445 C.3       1 <0>         0.1142
     13 C9         -2.1463    5.0312   -1.3923 C.3       1 <0>        -0.1372
     14 C10        -3.2513    6.0893   -1.3756 C.3       1 <0>        -0.1472
     15 N3          0.0021   -0.0041    0.0020 N.pl3     1 <0>        -0.4096
     16 C11         1.3152   -0.3793   -0.0125 C.2       1 <0>         0.3257
     17 N4          2.0762    0.7027   -0.0140 N.2       1 <0>        -0.4894
     18 C12         1.8030   -1.7597   -0.0242 C.2       1 <0>        -0.1249
     19 C13         3.1286   -2.0062   -0.0382 C.2       1 <0>        -0.0161
     20 C14         3.6188   -3.3932   -0.0499 C.ar      1 <0>        -0.0744
     21 C15         2.7114   -4.4579   -0.0464 C.ar      1 <0>        -0.0952
     22 C16         3.1732   -5.7562   -0.0574 C.ar      1 <0>        -0.1761
     23 C17         4.5376   -6.0112   -0.0722 C.ar      1 <0>         0.1147
     24 C18         5.4480   -4.9557   -0.0762 C.ar      1 <0>         0.0988
     25 C19         4.9936   -3.6511   -0.0702 C.ar      1 <0>        -0.1474
     26 O3          6.7838   -5.2103   -0.0907 O.3       1 <0>        -0.3052
     27 C20         7.6594   -4.0810   -0.0940 C.3       1 <0>         0.0239
     28 O4          4.9870   -7.2935   -0.0834 O.3       1 <0>        -0.3033
     29 C21         4.0000   -8.3270   -0.0790 C.3       1 <0>         0.0240
     30 C22        -1.1615   -0.8942    0.0083 C.3       1 <0>         0.0695
     31 H1          4.9651    5.2284   -0.9471 H         1 <0>         0.0589
     32 H2          5.5298    3.5404   -0.9619 H         1 <0>         0.0585
     33 H3          5.2322    4.3928   -2.4959 H         1 <0>         0.0605
     34 H4          3.3796    2.8300   -1.9722 H         1 <0>         0.0676
     35 H5          2.8149    4.5179   -1.9574 H         1 <0>         0.0677
     36 H6          3.0449    4.5732    0.5109 H         1 <0>         0.0999
     37 H7          3.6096    2.8853    0.4962 H         1 <0>         0.0980
     38 H8         -2.6369    4.2757    0.5645 H         1 <0>         0.1011
     39 H9         -1.4060    5.5614    0.5600 H         1 <0>         0.1028
     40 H10        -1.2733    5.4258   -1.9124 H         1 <0>         0.0689
     41 H11        -2.5043    4.1401   -1.9079 H         1 <0>         0.0668
     42 H12        -4.1242    5.6948   -0.8555 H         1 <0>         0.0588
     43 H13        -2.8933    6.9805   -0.8601 H         1 <0>         0.0598
     44 H14        -3.5237    6.3465   -2.3992 H         1 <0>         0.0613
     45 H15         1.1011   -2.5805   -0.0215 H         1 <0>         0.1415
     46 H16         3.8305   -1.1854   -0.0408 H         1 <0>         0.1396
     47 H17         1.6493   -4.2624   -0.0356 H         1 <0>         0.1317
     48 H18         2.4718   -6.5774   -0.0547 H         1 <0>         0.1399
     49 H19         5.6980   -2.8325   -0.0774 H         1 <0>         0.1422
     50 H20         7.4672   -3.4747   -0.9791 H         1 <0>         0.0568
     51 H21         7.4849   -3.4834    0.8007 H         1 <0>         0.0569
     52 H22         8.6941   -4.4236   -0.1060 H         1 <0>         0.1028
     53 H23         4.4922   -9.2995   -0.0890 H         1 <0>         0.1031
     54 H24         3.3863   -8.2395    0.8176 H         1 <0>         0.0571
     55 H25         3.3687   -8.2302   -0.9623 H         1 <0>         0.0571
     56 H26        -1.4599   -1.1094   -1.0177 H         1 <0>         0.0878
     57 H27        -0.9044   -1.8246    0.5148 H         1 <0>         0.0956
     58 H28        -1.9858   -0.4109    0.5327 H         1 <0>         0.1025
@<TRIPOS>BOND
     1    1    2 1
     2    1   31 1
     3    1   32 1
     4    1   33 1
     5    2    3 1
     6    2   34 1
     7    2   35 1
     8    3    4 1
     9    3   36 1
    10    3   37 1
    11    4   10 am
    12    4    5 1
    13    5   17 1
    14    5    6 2
    15    6    7 1
    16    6   15 1
    17    7    8 2
    18    7    9 am
    19    9   10 am
    20    9   12 1
    21   10   11 2
    22   12   13 1
    23   12   38 1
    24   12   39 1
    25   13   14 1
    26   13   40 1
    27   13   41 1
    28   14   42 1
    29   14   43 1
    30   14   44 1
    31   15   16 1
    32   15   30 1
    33   16   17 2
    34   16   18 1
    35   18   19 2
    36   18   45 1
    37   19   20 1
    38   19   46 1
    39   20   25 ar
    40   20   21 ar
    41   21   22 ar
    42   21   47 1
    43   22   23 ar
    44   22   48 1
    45   23   24 ar
    46   23   28 1
    47   24   25 ar
    48   24   26 1
    49   25   49 1
    50   26   27 1
    51   27   50 1
    52   27   51 1
    53   27   52 1
    54   28   29 1
    55   29   53 1
    56   29   54 1
    57   29   55 1
    58   30   56 1
    59   30   57 1
    60   30   58 1
@<TRIPOS>MOLECULE
ZINC03777854
   59    61     0     0     0
SMALL
USER_CHARGES
8-[2-(3,4-dimethoxyphenyl)vinyl]-7-methyl-1,3-dipropyl-purine-2,6-dione
@<TRIPOS>ATOM
      1 C1          4.8978    4.2719   -1.4656 C.3       1 <0>        -0.1533
      2 C2          3.4469    3.7865   -1.4538 C.3       1 <0>        -0.1443
      3 C3          2.9776    3.6168   -0.0075 C.3       1 <0>         0.0964
      4 N1          1.5884    3.1520    0.0038 N.am      1 <0>        -0.5120
      5 C4          1.3129    1.7928   -0.0008 C.2       1 <0>         0.3546
      6 C5         -0.0167    1.3786    0.0096 C.2       1 <0>        -0.0804
      7 C6         -1.0384    2.3497    0.0297 C.2       1 <0>         0.5901
      8 O1         -2.2089    2.0120    0.0441 O.2       1 <0>        -0.4679
      9 N2         -0.7059    3.6571    0.0284 N.am      1 <0>        -0.5401
     10 C7          0.5810    4.0447    0.0182 C.2       1 <0>         0.7084
     11 O2          0.8420    5.2324    0.0225 O.2       1 <0>        -0.4838
     12 C8         -1.7640    4.6703    0.0445 C.3       1 <0>         0.1075
     13 C9         -2.1463    5.0312   -1.3923 C.3       1 <0>        -0.1377
     14 C10        -3.2513    6.0893   -1.3756 C.3       1 <0>        -0.1509
     15 N3          0.0021   -0.0041    0.0020 N.pl3     1 <0>        -0.3572
     16 C11         1.3152   -0.3793   -0.0125 C.cat     1 <0>         0.4130
     17 C12         1.8030   -1.7597   -0.0242 C.2       1 <0>        -0.1952
     18 C13         3.1286   -2.0062   -0.0382 C.2       1 <0>         0.0501
     19 C14         3.6188   -3.3932   -0.0499 C.ar      1 <0>        -0.1173
     20 C15         2.7114   -4.4579   -0.0464 C.ar      1 <0>        -0.0677
     21 C16         3.1732   -5.7562   -0.0574 C.ar      1 <0>        -0.1844
     22 C17         4.5376   -6.0112   -0.0722 C.ar      1 <0>         0.1495
     23 C18         5.4480   -4.9557   -0.0762 C.ar      1 <0>         0.0982
     24 C19         4.9936   -3.6511   -0.0702 C.ar      1 <0>        -0.1343
     25 O3          6.7838   -5.2103   -0.0907 O.3       1 <0>        -0.2990
     26 C20         7.6594   -4.0810   -0.0940 C.3       1 <0>         0.0226
     27 O4          4.9870   -7.2935   -0.0834 O.3       1 <0>        -0.2946
     28 C21         4.0000   -8.3270   -0.0790 C.3       1 <0>         0.0196
     29 C22        -1.1615   -0.8942    0.0083 C.3       1 <0>         0.0544
     30 H1          4.9651    5.2284   -0.9471 H         1 <0>         0.0682
     31 H2          5.5298    3.5404   -0.9619 H         1 <0>         0.0598
     32 H3          5.2322    4.3928   -2.4959 H         1 <0>         0.0715
     33 H4          3.3796    2.8300   -1.9722 H         1 <0>         0.0637
     34 H5          2.8149    4.5179   -1.9574 H         1 <0>         0.0832
     35 H6          3.0449    4.5732    0.5109 H         1 <0>         0.1273
     36 H7          3.6096    2.8853    0.4962 H         1 <0>         0.0950
     37 H8         -2.6369    4.2757    0.5645 H         1 <0>         0.1119
     38 H9         -1.4060    5.5614    0.5600 H         1 <0>         0.1126
     39 H10        -1.2733    5.4258   -1.9124 H         1 <0>         0.0707
     40 H11        -2.5043    4.1401   -1.9079 H         1 <0>         0.0693
     41 H12        -4.1242    5.6948   -0.8555 H         1 <0>         0.0624
     42 H13        -2.8933    6.9805   -0.8601 H         1 <0>         0.0630
     43 H14        -3.5237    6.3465   -2.3992 H         1 <0>         0.0670
     44 H15         1.1011   -2.5805   -0.0215 H         1 <0>         0.1768
     45 H16         3.8305   -1.1854   -0.0408 H         1 <0>         0.1285
     46 H17         1.6493   -4.2624   -0.0356 H         1 <0>         0.1364
     47 H18         2.4718   -6.5774   -0.0547 H         1 <0>         0.1488
     48 H19         5.6980   -2.8325   -0.0774 H         1 <0>         0.1450
     49 H20         7.4672   -3.4747   -0.9791 H         1 <0>         0.0576
     50 H21         7.4849   -3.4834    0.8007 H         1 <0>         0.0576
     51 H22         8.6941   -4.4236   -0.1060 H         1 <0>         0.1091
     52 H23         4.4922   -9.2995   -0.0890 H         1 <0>         0.1109
     53 H24         3.3863   -8.2395    0.8176 H         1 <0>         0.0624
     54 H25         3.3687   -8.2302   -0.9623 H         1 <0>         0.0624
     55 H26        -1.4599   -1.1094   -1.0177 H         1 <0>         0.1182
     56 H27        -0.9044   -1.8246    0.5148 H         1 <0>         0.1204
     57 H28        -1.9858   -0.4109    0.5327 H         1 <0>         0.1282
     58 N4          2.0788    0.7027   -0.0140 N.pl3     1 <0>        -0.5084
     59 H29         3.1055    0.7016   -0.0239 H         1 <0>         0.4765
@<TRIPOS>BOND
     1    1    2 1
     2    1   30 1
     3    1   31 1
     4    1   32 1
     5    2    3 1
     6    2   33 1
     7    2   34 1
     8    3    4 1
     9    3   35 1
    10    3   36 1
    11    4   10 am
    12    4    5 1
    13    5    6 2
    14    5   58 1
    15    6    7 1
    16    6   15 1
    17    7    8 2
    18    7    9 am
    19    9   10 am
    20    9   12 1
    21   10   11 2
    22   12   13 1
    23   12   37 1
    24   12   38 1
    25   13   14 1
    26   13   39 1
    27   13   40 1
    28   14   41 1
    29   14   42 1
    30   14   43 1
    31   15   16 1
    32   15   29 1
    33   16   17 1
    34   16   58 2
    35   17   18 2
    36   17   44 1
    37   18   19 1
    38   18   45 1
    39   19   24 ar
    40   19   20 ar
    41   20   21 ar
    42   20   46 1
    43   21   22 ar
    44   21   47 1
    45   22   23 ar
    46   22   27 1
    47   23   24 ar
    48   23   25 1
    49   24   48 1
    50   25   26 1
    51   26   49 1
    52   26   50 1
    53   26   51 1
    54   27   28 1
    55   28   52 1
    56   28   53 1
    57   28   54 1
    58   29   55 1
    59   29   56 1
    60   29   57 1
    61   58   59 1
@<TRIPOS>MOLECULE
ZINC03977757
   46    48     0     0     0
SMALL
USER_CHARGES

@<TRIPOS>ATOM
      1 C1         -0.0187    1.5258    0.0104 C.3       1 <0>        -0.1472
      2 C2          0.0021   -0.0041    0.0020 C.3       1 <0>        -0.1381
      3 C3          0.7182   -0.4975   -1.2568 C.3       1 <0>         0.1189
      4 N1          0.7381   -1.9623   -1.2648 N.am      1 <0>        -0.5078
      5 C4         -0.2978   -2.6649   -1.8590 C.2       1 <0>         0.3255
      6 C5         -0.2556   -4.0535   -1.8540 C.2       1 <0>        -0.1555
      7 C6          0.8381   -4.7062   -1.2456 C.2       1 <0>         0.5940
      8 O1          0.8979   -5.9226   -1.2287 O.2       1 <0>        -0.5124
      9 N2          1.8167   -3.9668   -0.6832 N.am      1 <0>        -0.5486
     10 C7          1.7657   -2.6237   -0.6997 C.2       1 <0>         0.7072
     11 O2          2.6683   -1.9900   -0.1875 O.2       1 <0>        -0.5292
     12 C8          2.9547   -4.6379   -0.0500 C.3       1 <0>         0.1138
     13 C9          4.0598   -4.8545   -1.0857 C.3       1 <0>        -0.1378
     14 C10         5.2482   -5.5554   -0.4244 C.3       1 <0>        -0.1473
     15 N3         -1.3974   -4.4770   -2.5042 N.pl3     1 <0>        -0.5132
     16 C11        -2.0744   -3.3715   -2.8713 C.2       1 <0>         0.3078
     17 N4         -1.4199   -2.3052   -2.4875 N.2       1 <0>        -0.4912
     18 H1         -1.6621   -5.3960   -2.6660 H         1 <0>         0.4346
     19 C12        -3.3868   -3.3639   -3.6120 C.3       1 <0>        -0.0167
     20 C13        -4.2245   -4.5971   -3.2154 C.3       1 <0>        -0.1246
     21 C14        -4.9262   -5.0185   -4.5304 C.3       1 <0>        -0.1243
     22 C15        -3.8330   -4.7644   -5.5978 C.3       1 <0>        -0.1288
     23 C16        -3.1379   -3.4703   -5.1267 C.3       1 <0>        -0.1169
     24 H2          1.0039    1.9031    0.0027 H         1 <0>         0.0589
     25 H3         -0.5459    1.8868   -0.8726 H         1 <0>         0.0589
     26 H4         -0.5289    1.8773    0.9072 H         1 <0>         0.0608
     27 H5          0.5293   -0.3651    0.8851 H         1 <0>         0.0678
     28 H6         -1.0205   -0.3814    0.0098 H         1 <0>         0.0678
     29 H7          0.1910   -0.1364   -2.1398 H         1 <0>         0.0985
     30 H8          1.7408   -0.1202   -1.2645 H         1 <0>         0.1003
     31 H9          3.3348   -4.0193    0.7630 H         1 <0>         0.1032
     32 H10         2.6339   -5.6014    0.3460 H         1 <0>         0.1014
     33 H11         3.6796   -5.4731   -1.8987 H         1 <0>         0.0670
     34 H12         4.3806   -3.8910   -1.4817 H         1 <0>         0.0693
     35 H13         6.0355   -5.7097   -1.1623 H         1 <0>         0.0615
     36 H14         5.6284   -4.9368    0.3886 H         1 <0>         0.0599
     37 H15         4.9274   -6.5189   -0.0284 H         1 <0>         0.0589
     38 H16        -3.9368   -2.4501   -3.3872 H         1 <0>         0.1178
     39 H17        -3.5783   -5.3972   -2.8545 H         1 <0>         0.0623
     40 H18        -4.9618   -4.3300   -2.4582 H         1 <0>         0.0823
     41 H19        -5.2000   -6.0732   -4.5013 H         1 <0>         0.0738
     42 H20        -5.8012   -4.3962   -4.7179 H         1 <0>         0.0762
     43 H21        -3.1235   -5.5916   -5.6216 H         1 <0>         0.0665
     44 H22        -4.2844   -4.6194   -6.5792 H         1 <0>         0.0743
     45 H23        -3.5678   -2.6085   -5.6372 H         1 <0>         0.0823
     46 H24        -2.0678   -3.5274   -5.3261 H         1 <0>         0.0684
@<TRIPOS>BOND
     1    1    2 1
     2    1   24 1
     3    1   25 1
     4    1   26 1
     5    2    3 1
     6    2   27 1
     7    2   28 1
     8    3   29 1
     9    3   30 1
    10    3    4 1
    11    4    5 1
    12    4   10 am
    13    5   17 1
    14    5    6 2
    15    6    7 1
    16    6   15 1
    17    7    9 am
    18    7    8 2
    19    9   10 am
    20    9   12 1
    21   10   11 2
    22   12   13 1
    23   12   31 1
    24   12   32 1
    25   13   14 1
    26   13   33 1
    27   13   34 1
    28   14   35 1
    29   14   36 1
    30   14   37 1
    31   15   18 1
    32   15   16 1
    33   16   19 1
    34   16   17 2
    35   19   23 1
    36   19   20 1
    37   19   38 1
    38   20   21 1
    39   20   39 1
    40   20   40 1
    41   21   22 1
    42   21   41 1
    43   21   42 1
    44   22   23 1
    45   22   43 1
    46   22   44 1
    47   23   45 1
    48   23   46 1
@<TRIPOS>MOLECULE
ZINC03995845
   48    51     0     0     0
SMALL
USER_CHARGES
5-[2-chloro-6-[(3-iodophenyl)methylamino]purin-9-yl]-3,4-dihydroxy-N-methyl-tetrahydrofuran-2-carboxamide
@<TRIPOS>ATOM
      1 C1         -3.5156   -0.8102    1.9233 C.3       1 <0>         0.0861
      2 N1         -2.6417    0.1999    1.3215 N.am      1 <0>        -0.7300
      3 C2         -1.5096    0.5727    1.9507 C.2       1 <0>         0.5159
      4 O1         -1.2144    0.0718    3.0151 O.2       1 <0>        -0.5022
      5 C3         -0.6107    1.6118    1.3317 C.3       1 <0>         0.0319
      6 H1         -1.1613    2.5364    1.1584 H         1 <0>         0.1217
      7 C4         -0.0127    1.0858    0.0080 C.3       1 <0>         0.0511
      8 H2          0.0021   -0.0041    0.0020 H         1 <0>         0.0923
      9 C5          1.4269    1.6468   -0.0027 C.3       1 <0>         0.0805
     10 H3          2.1534    0.8343   -0.0140 H         1 <0>         0.0905
     11 C6          1.5284    2.4454    1.3158 C.3       1 <0>         0.3123
     12 H4          1.3078    3.4982    1.1397 H         1 <0>         0.1301
     13 O2          0.5316    1.8583    2.1804 O.3       1 <0>        -0.3264
     14 N2          2.8630    2.2959    1.9011 N.pl3     1 <0>        -0.4705
     15 C7          3.2280    1.3965    2.8585 C.2       1 <0>         0.2840
     16 N3          4.4896    1.5386    3.1441 N.2       1 <0>        -0.4479
     17 C8          5.0109    2.5415    2.3970 C.ar      1 <0>        -0.0590
     18 C9          3.9735    3.0393    1.5906 C.ar      1 <0>         0.3145
     19 N4          4.2284    4.0408    0.7548 N.ar      1 <0>        -0.5110
     20 C10         5.4360    4.5628    0.6810 C.ar      1 <0>         0.4116
     21 N5          6.4423    4.1279    1.4192 N.ar      1 <0>        -0.5534
     22 C11         6.2816    3.1303    2.2825 C.ar      1 <0>         0.4581
     23 N6          7.3414    2.6815    3.0508 N.pl3     1 <0>        -0.5899
     24 C12         8.6593    3.3075    2.9179 C.3       1 <0>         0.1056
     25 C13         9.6298    2.6396    3.8576 C.ar      1 <0>        -0.0890
     26 C14        10.3623    1.5466    3.4327 C.ar      1 <0>        -0.0720
     27 C15        11.2531    0.9343    4.2939 C.ar      1 <0>        -0.1148
     28 C16        11.4113    1.4139    5.5808 C.ar      1 <0>        -0.0782
     29 C17        10.6786    2.5066    6.0062 C.ar      1 <0>        -0.0999
     30 C18         9.7917    3.1230    5.1421 C.ar      1 <0>        -0.0750
     31 I1         10.9181    3.2339    7.9562 I         1 <0>        -0.0401
     32 Cl1         5.7156    5.8697   -0.4269 Cl        1 <0>         0.0391
     33 O3          1.6201    2.5086   -1.1262 O.3       1 <0>        -0.5236
     34 O4         -0.7516    1.5814   -1.1102 O.3       1 <0>        -0.5325
     35 H5         -2.9634   -1.7420    2.0457 H         1 <0>         0.0652
     36 H6         -3.8585   -0.4605    2.8971 H         1 <0>         0.0657
     37 H7         -4.3752   -0.9798    1.2749 H         1 <0>         0.0828
     38 H8         -2.8779    0.6005    0.4703 H         1 <0>         0.4001
     39 H9          2.5679    0.6715    3.3114 H         1 <0>         0.2324
     40 H10         7.1195    2.7889    4.0199 H         1 <0>         0.3725
     41 H11         9.0121    3.1974    1.8925 H         1 <0>         0.0987
     42 H12         8.5850    4.3666    3.1648 H         1 <0>         0.0697
     43 H13        10.2386    1.1715    2.4275 H         1 <0>         0.1318
     44 H14        11.8255    0.0808    3.9616 H         1 <0>         0.1339
     45 H15        12.1075    0.9354    6.2537 H         1 <0>         0.1305
     46 H16         9.2225    3.9793    5.4726 H         1 <0>         0.1288
     47 H17         1.5077    2.0712   -1.9813 H         1 <0>         0.3936
     48 H18        -1.6713    1.2840   -1.1370 H         1 <0>         0.3843
@<TRIPOS>BOND
     1    1    2 1
     2    1   35 1
     3    1   36 1
     4    1   37 1
     5    2    3 am
     6    2   38 1
     7    3    4 2
     8    3    5 1
     9    5    6 1
    10    5   13 1
    11    5    7 1
    12    7    8 1
    13    7    9 1
    14    7   34 1
    15    9   10 1
    16    9   11 1
    17    9   33 1
    18   11   12 1
    19   11   13 1
    20   11   14 1
    21   14   18 1
    22   14   15 1
    23   15   16 2
    24   15   39 1
    25   16   17 1
    26   17   22 ar
    27   17   18 ar
    28   18   19 ar
    29   19   20 ar
    30   20   21 ar
    31   20   32 1
    32   21   22 ar
    33   22   23 1
    34   23   24 1
    35   23   40 1
    36   24   25 1
    37   24   41 1
    38   24   42 1
    39   25   30 ar
    40   25   26 ar
    41   26   27 ar
    42   26   43 1
    43   27   28 ar
    44   27   44 1
    45   28   29 ar
    46   28   45 1
    47   29   30 ar
    48   29   31 1
    49   30   46 1
    50   33   47 1
    51   34   48 1
@<TRIPOS>MOLECULE
ZINC18043251
   21    22     0     0     0
SMALL
USER_CHARGES

@<TRIPOS>ATOM
      1 C1         -0.0178    1.4608    0.0101 C.3       1 <0>         0.0852
      2 N1          0.0021   -0.0041    0.0020 N.am      1 <0>        -0.5114
      3 C2         -1.1889   -0.7120    0.0039 C.2       1 <0>         0.3216
      4 C3         -1.1437   -2.1005   -0.0039 C.2       1 <0>        -0.1538
      5 C4          0.1107   -2.7476   -0.0134 C.2       1 <0>         0.5936
      6 O1          0.1765   -3.9638   -0.0207 O.2       1 <0>        -0.5134
      7 N2          1.2361   -2.0032   -0.0148 N.am      1 <0>        -0.5513
      8 C5          1.1776   -0.6603   -0.0127 C.2       1 <0>         0.7076
      9 O2          2.2126   -0.0219   -0.0196 O.2       1 <0>        -0.5305
     10 C6          2.5413   -2.6685   -0.0246 C.3       1 <0>         0.0826
     11 N3         -2.4557   -2.5297    0.0001 N.pl3     1 <0>        -0.5179
     12 H1         -2.7618   -3.4502   -0.0030 H         1 <0>         0.4389
     13 C7         -3.2306   -1.4275    0.0098 C.2       1 <0>         0.2785
     14 N4         -2.4766   -0.3579    0.0120 N.2       1 <0>        -0.4991
     15 H2          1.0048    1.8381    0.0023 H         1 <0>         0.1033
     16 H3         -0.5450    1.8219   -0.8730 H         1 <0>         0.0800
     17 H4         -0.5280    1.8123    0.9069 H         1 <0>         0.0801
     18 H5          2.3982   -3.7491   -0.0298 H         1 <0>         0.1039
     19 H6          3.0941   -2.3709   -0.9157 H         1 <0>         0.0832
     20 H7          3.1026   -2.3806    0.8643 H         1 <0>         0.0832
     21 H8         -4.3106   -1.4268    0.0144 H         1 <0>         0.2358
@<TRIPOS>BOND
     1    1    2 1
     2    1   15 1
     3    1   16 1
     4    1   17 1
     5    2    8 am
     6    2    3 1
     7    3   14 1
     8    3    4 2
     9    4    5 1
    10    4   11 1
    11    5    6 2
    12    5    7 am
    13    7    8 am
    14    7   10 1
    15    8    9 2
    16   10   18 1
    17   10   19 1
    18   10   20 1
    19   11   12 1
    20   11   13 1
    21   13   14 2
    22   13   21 1
@<TRIPOS>MOLECULE
ZINC01554291
   36    38     0     0     0
SMALL
USER_CHARGES
2-butyl-9-methyl-8-triazol-2-yl-purin-6-amine
@<TRIPOS>ATOM
      1 C1          5.0295   -5.2453   -2.9625 C.3       1 <0>        -0.1541
      2 C2          4.8180   -4.7963   -1.5153 C.3       1 <0>        -0.1221
      3 C3          4.1401   -3.4247   -1.5007 C.3       1 <0>        -0.1121
      4 C4          3.9286   -2.9757   -0.0534 C.3       1 <0>        -0.0472
      5 C5          3.2609   -1.6248   -0.0391 C.ar      1 <0>         0.3782
      6 N1          4.0170   -0.5420   -0.0401 N.ar      1 <0>        -0.5377
      7 C6          3.4790    0.6730   -0.0278 C.ar      1 <0>         0.4636
      8 C7          2.0779    0.7851   -0.0136 C.ar      1 <0>        -0.0917
      9 C8          1.3181   -0.3969   -0.0127 C.ar      1 <0>         0.3111
     10 N2          1.9457   -1.5682   -0.0256 N.ar      1 <0>        -0.5307
     11 N3          0.0021   -0.0041    0.0020 N.pl3     1 <0>        -0.4650
     12 C9         -0.0165    1.3630    0.0095 C.2       1 <0>         0.5441
     13 N4          1.2073    1.8226    0.0003 N.2       1 <0>        -0.4462
     14 N5         -1.1667    2.1483    0.0195 N.pl3     1 <0>        -0.2406
     15 N6         -2.4935    1.6914    0.0174 N.2       1 <0>        -0.2369
     16 C10        -3.2736    2.7445    0.0331 C.2       1 <0>         0.0367
     17 C11        -2.4893    3.8932    0.0355 C.2       1 <0>         0.0177
     18 N7         -1.2244    3.5504    0.0274 N.2       1 <0>        -0.1851
     19 C12        -1.1667   -0.8873    0.0092 C.3       1 <0>         0.0753
     20 N8          4.2798    1.8022   -0.0285 N.pl3     1 <0>        -0.7480
     21 H1          5.5125   -6.2224   -2.9729 H         1 <0>         0.0554
     22 H2          4.0656   -5.3111   -3.4671 H         1 <0>         0.0531
     23 H3          5.6612   -4.5223   -3.4786 H         1 <0>         0.0544
     24 H4          5.7820   -4.7305   -1.0107 H         1 <0>         0.0656
     25 H5          4.1864   -5.5193   -0.9992 H         1 <0>         0.0642
     26 H6          3.1762   -3.4905   -2.0053 H         1 <0>         0.0652
     27 H7          4.7718   -2.7017   -2.0168 H         1 <0>         0.0684
     28 H8          4.8925   -2.9100    0.4511 H         1 <0>         0.0973
     29 H9          3.2969   -3.6987    0.4627 H         1 <0>         0.0938
     30 H10        -4.3533    2.7237    0.0389 H         1 <0>         0.2186
     31 H11        -2.8632    4.9064    0.0434 H         1 <0>         0.2192
     32 H12        -1.4667   -1.1012   -1.0167 H         1 <0>         0.0815
     33 H13        -0.9149   -1.8190    0.5159 H         1 <0>         0.0967
     34 H14        -1.9880   -0.3990    0.5336 H         1 <0>         0.1035
     35 H15         4.8647    1.7965    0.7826 H         1 <0>         0.3690
     36 H16         3.8752    2.6837   -0.0195 H         1 <0>         0.3846
@<TRIPOS>BOND
     1    1    2 1
     2    1   21 1
     3    1   22 1
     4    1   23 1
     5    2    3 1
     6    2   24 1
     7    2   25 1
     8    3    4 1
     9    3   26 1
    10    3   27 1
    11    4    5 1
    12    4   28 1
    13    4   29 1
    14    5   10 ar
    15    5    6 ar
    16    6    7 ar
    17    7    8 ar
    18    7   20 1
    19    8   13 1
    20    8    9 ar
    21    9   10 ar
    22    9   11 1
    23   11   12 1
    24   11   19 1
    25   12   13 2
    26   12   14 1
    27   14   18 1
    28   14   15 1
    29   15   16 2
    30   16   17 1
    31   16   30 1
    32   17   18 2
    33   17   31 1
    34   19   32 1
    35   19   33 1
    36   19   34 1
    37   20   35 1
    38   20   36 1
@<TRIPOS>MOLECULE
ZINC00411286
   33    35     0     0     0
SMALL
USER_CHARGES

@<TRIPOS>ATOM
      1 C1         -1.2863    1.3644    1.3056 C.ar      1 <0>        -0.0522
      2 C2         -1.2926    2.0416    2.5068 C.ar      1 <0>        -0.1237
      3 C3         -1.2855    1.3396    3.7008 C.ar      1 <0>        -0.0058
      4 C4         -1.2718   -0.0455    3.6962 C.ar      1 <0>        -0.1247
      5 C5         -1.2654   -0.7337    2.5012 C.ar      1 <0>        -0.0483
      6 C6         -1.2729   -0.0316    1.2946 C.ar      1 <0>        -0.1622
      7 C7         -1.2667   -0.7637    0.0097 C.2       1 <0>         0.4726
      8 O1         -1.3726   -0.1539   -1.0390 O.2       1 <0>        -0.4423
      9 C8         -1.1332   -2.2203   -0.0014 C.2       1 <0>        -0.3184
     10 C9         -2.2981   -3.0888   -0.0555 C.2       1 <0>        -0.0355
     11 C10        -2.0059   -4.4059   -0.0591 C.2       1 <0>        -0.2115
     12 S1         -0.2397   -4.4768    0.0065 S.3       1 <0>         0.1610
     13 C11         0.1135   -2.8354    0.0333 C.2       1 <0>         0.1235
     14 N1          1.3553   -2.2349    0.0807 N.pl3     1 <0>        -0.8180
     15 C12        -2.9794   -5.5431   -0.1071 C.3       1 <0>        -0.0314
     16 C13        -4.3753   -4.9978    0.2284 C.3       1 <0>        -0.1133
     17 C14        -4.6281   -3.7375   -0.6038 C.3       1 <0>        -0.1193
     18 C15        -3.7373   -2.5973   -0.1058 C.3       1 <0>        -0.0636
     19 Cl1        -1.2934    2.1990    5.2091 Cl        1 <0>        -0.0594
     20 H1         -1.2963    1.9128    0.3752 H         1 <0>         0.1428
     21 H2         -1.3026    3.1215    2.5166 H         1 <0>         0.1411
     22 H3         -1.2656   -0.5875    4.6303 H         1 <0>         0.1403
     23 H4         -1.2547   -1.8136    2.4988 H         1 <0>         0.1399
     24 H5          1.4251   -1.2713    0.1666 H         1 <0>         0.4079
     25 H6          2.1582   -2.7766    0.0280 H         1 <0>         0.4123
     26 H7         -2.9858   -5.9793   -1.1061 H         1 <0>         0.0788
     27 H8         -2.6956   -6.3007    0.6233 H         1 <0>         0.0781
     28 H9         -5.1279   -5.7496   -0.0096 H         1 <0>         0.0735
     29 H10        -4.4257   -4.7513    1.2890 H         1 <0>         0.0681
     30 H11        -4.4017   -3.9429   -1.6501 H         1 <0>         0.0673
     31 H12        -5.6745   -3.4464   -0.5115 H         1 <0>         0.0699
     32 H13        -4.0554   -2.2946    0.8918 H         1 <0>         0.0781
     33 H14        -3.8109   -1.7505   -0.7882 H         1 <0>         0.0744
@<TRIPOS>BOND
     1    1    6 ar
     2    1    2 ar
     3    1   20 1
     4    2    3 ar
     5    2   21 1
     6    3    4 ar
     7    3   19 1
     8    4    5 ar
     9    4   22 1
    10    5    6 ar
    11    5   23 1
    12    6    7 1
    13    7    8 2
    14    7    9 1
    15    9   13 2
    16    9   10 1
    17   10   18 1
    18   10   11 2
    19   11   12 1
    20   11   15 1
    21   12   13 1
    22   13   14 1
    23   14   24 1
    24   14   25 1
    25   15   16 1
    26   15   26 1
    27   15   27 1
    28   16   17 1
    29   16   28 1
    30   16   29 1
    31   17   18 1
    32   17   30 1
    33   17   31 1
    34   18   32 1
    35   18   33 1
@<TRIPOS>MOLECULE
ZINC35923133
   64    68     0     0     0
SMALL
USER_CHARGES

@<TRIPOS>ATOM
      1 C1         -0.0187    1.5258    0.0104 C.3       1 <0>        -0.1479
      2 C2          0.0021   -0.0041    0.0020 C.3       1 <0>        -0.1386
      3 C3          0.7182   -0.4975   -1.2568 C.3       1 <0>         0.1123
      4 N1          0.7381   -1.9623   -1.2648 N.am      1 <0>        -0.5465
      5 C4          1.7667   -2.6158   -0.6861 C.2       1 <0>         0.5939
      6 O1          2.6733   -1.9949   -0.1603 O.2       1 <0>        -0.5037
      7 C5          1.7804   -4.0268   -0.6965 C.2       1 <0>        -0.1325
      8 C6          0.7318   -4.7103   -1.3037 C.2       1 <0>         0.3236
      9 N2         -0.2956   -3.9801   -1.8812 N.am      1 <0>        -0.6111
     10 H1         -1.0352   -4.4395   -2.3088 H         1 <0>         0.4408
     11 C7         -0.2715   -2.6346   -1.8438 C.2       1 <0>         0.7130
     12 O2         -1.1843   -2.0115   -2.3510 O.2       1 <0>        -0.5253
     13 N3          0.9764   -6.0143   -1.1804 N.2       1 <0>        -0.4737
     14 C8          2.1111   -6.1978   -0.5349 C.2       1 <0>         0.3253
     15 N4          2.6470   -4.9882   -0.2138 N.pl3     1 <0>        -0.5076
     16 H2          3.4777   -4.8315    0.2619 H         1 <0>         0.4390
     17 C9          2.7077   -7.5108   -0.2102 C.ar      1 <0>         0.0227
     18 C10         3.9156   -7.5790    0.4859 C.ar      1 <0>        -0.1203
     19 C11         4.4667   -8.8076    0.7861 C.ar      1 <0>        -0.0153
     20 C12         3.8247   -9.9705    0.3988 C.ar      1 <0>        -0.6631
     21 C13         2.6271   -9.9099   -0.2914 C.ar      1 <0>        -0.0173
     22 C14         2.0626   -8.6878   -0.5933 C.ar      1 <0>        -0.0855
     23 S1          4.5358  -11.5355    0.7859 S.o2      1 <0>         2.6879
     24 O3          4.0202  -12.4611   -0.1610 O.2       1 <0>        -0.9462
     25 O4          5.9295  -11.3172    0.9568 O.2       1 <0>        -0.9475
     26 N5          3.9432  -11.9905    2.2637 N.pl3     1 <0>        -0.9964
     27 C15         4.6374  -11.6130    3.5042 C.3       1 <0>         0.1252
     28 C16         3.6224  -10.9657    4.4524 C.3       1 <0>         0.0399
     29 N6          2.4785  -11.8698    4.6312 N.3       1 <0>        -0.5284
     30 C17         1.7697  -12.0895    3.3635 C.3       1 <0>         0.0346
     31 C18         2.7054  -12.7777    2.3709 C.3       1 <0>         0.1253
     32 C19         1.5647  -11.3645    5.6645 C.3       1 <0>         0.0947
     33 C20         0.5446  -12.4235    5.9945 C.ar      1 <0>        -0.0816
     34 C21        -0.6441  -12.4811    5.2913 C.ar      1 <0>        -0.1164
     35 C22        -1.5798  -13.4526    5.5939 C.ar      1 <0>        -0.1201
     36 C23        -1.3266  -14.3667    6.5995 C.ar      1 <0>        -0.1181
     37 C24        -0.1375  -14.3097    7.3021 C.ar      1 <0>        -0.1198
     38 C25         0.8000  -13.3409    6.9965 C.ar      1 <0>        -0.0969
     39 H3          1.0039    1.9031    0.0027 H         1 <0>         0.0594
     40 H4         -0.5459    1.8868   -0.8726 H         1 <0>         0.0605
     41 H5         -0.5289    1.8773    0.9072 H         1 <0>         0.0622
     42 H6          0.5293   -0.3651    0.8851 H         1 <0>         0.0676
     43 H7         -1.0205   -0.3814    0.0098 H         1 <0>         0.0701
     44 H8          0.1910   -0.1364   -2.1398 H         1 <0>         0.1058
     45 H9          1.7408   -0.1202   -1.2645 H         1 <0>         0.1034
     46 H10         4.4179   -6.6721    0.7884 H         1 <0>         0.1342
     47 H11         5.4014   -8.8618    1.3244 H         1 <0>         0.1497
     48 H12         2.1311  -10.8213   -0.5908 H         1 <0>         0.1508
     49 H13         1.1255   -8.6419   -1.1282 H         1 <0>         0.1530
     50 H14         5.0604  -12.5020    3.9721 H         1 <0>         0.0878
     51 H15         5.4318  -10.9020    3.2774 H         1 <0>         0.0947
     52 H16         4.0935  -10.7799    5.4176 H         1 <0>         0.0910
     53 H17         3.2780  -10.0228    4.0278 H         1 <0>         0.0401
     54 H18         0.8971  -12.7187    3.5389 H         1 <0>         0.0955
     55 H19         1.4510  -11.1309    2.9540 H         1 <0>         0.0393
     56 H20         2.2231  -12.8363    1.3952 H         1 <0>         0.0948
     57 H21         2.9391  -13.7807    2.7278 H         1 <0>         0.0867
     58 H22         2.1323  -11.1149    6.5610 H         1 <0>         0.0861
     59 H23         1.0569  -10.4731    5.2961 H         1 <0>         0.0437
     60 H24        -0.8420  -11.7669    4.5057 H         1 <0>         0.1175
     61 H25        -2.5089  -13.4972    5.0450 H         1 <0>         0.1216
     62 H26        -2.0580  -15.1253    6.8364 H         1 <0>         0.1213
     63 H27         0.0602  -15.0237    8.0879 H         1 <0>         0.1222
     64 H28         1.7307  -13.2986    7.5429 H         1 <0>         0.1224
@<TRIPOS>BOND
     1    1    2 1
     2    1   39 1
     3    1   40 1
     4    1   41 1
     5    2    3 1
     6    2   42 1
     7    2   43 1
     8    3    4 1
     9    3   44 1
    10    3   45 1
    11    4   11 am
    12    4    5 am
    13    5    6 2
    14    5    7 1
    15    7   15 1
    16    7    8 2
    17    8    9 1
    18    8   13 1
    19    9   10 1
    20    9   11 am
    21   11   12 2
    22   13   14 2
    23   14   15 1
    24   14   17 1
    25   15   16 1
    26   17   22 ar
    27   17   18 ar
    28   18   19 ar
    29   18   46 1
    30   19   20 ar
    31   19   47 1
    32   20   21 ar
    33   20   23 1
    34   21   22 ar
    35   21   48 1
    36   22   49 1
    37   23   24 2
    38   23   25 2
    39   23   26 1
    40   26   31 1
    41   26   27 1
    42   27   28 1
    43   27   50 1
    44   27   51 1
    45   28   29 1
    46   28   52 1
    47   28   53 1
    48   29   30 1
    49   29   32 1
    50   30   31 1
    51   30   54 1
    52   30   55 1
    53   31   56 1
    54   31   57 1
    55   32   33 1
    56   32   58 1
    57   32   59 1
    58   33   38 ar
    59   33   34 ar
    60   34   35 ar
    61   34   60 1
    62   35   36 ar
    63   35   61 1
    64   36   37 ar
    65   36   62 1
    66   37   38 ar
    67   37   63 1
    68   38   64 1
@<TRIPOS>MOLECULE
ZINC35923133
   63    67     0     0     0
SMALL
USER_CHARGES

@<TRIPOS>ATOM
      1 C1         -0.0187    1.5258    0.0104 C.3       1 <0>        -0.1437
      2 C2          0.0021   -0.0041    0.0020 C.3       1 <0>        -0.1380
      3 C3         -1.4333   -0.5336    0.0129 C.3       1 <0>         0.1179
      4 N1         -1.4134   -1.9985    0.0048 N.am      1 <0>        -0.5339
      5 C4         -1.4101   -2.6605   -1.1861 C.2       1 <0>         0.5565
      6 O1         -1.4245   -1.9767   -2.3446 O.3       1 <0>        -0.5915
      7 C5         -1.3912   -4.0581   -1.1906 C.2       1 <0>        -0.1451
      8 C6         -1.3759   -4.7445    0.0464 C.2       1 <0>         0.2264
      9 N2         -1.3806   -4.0098    1.2200 N.am      1 <0>        -0.6082
     10 H1         -1.3700   -4.4644    2.0768 H         1 <0>         0.4218
     11 C7         -1.3933   -2.6640    1.1719 C.2       1 <0>         0.7117
     12 O2         -1.3916   -2.0345    2.2124 O.2       1 <0>        -0.5707
     13 N3         -1.3602   -6.0339   -0.2354 N.2       1 <0>        -0.5278
     14 C8         -1.3647   -6.1838   -1.5654 C.2       1 <0>         0.1466
     15 N4         -1.3834   -5.0000   -2.1519 N.2       1 <0>        -0.4349
     16 C9         -1.3505   -7.4852   -2.2752 C.ar      1 <0>         0.1077
     17 C10        -1.3506   -7.5221   -3.6689 C.ar      1 <0>        -0.1270
     18 C11        -1.3373   -8.7365   -4.3242 C.ar      1 <0>        -0.0213
     19 C12        -1.3244   -9.9157   -3.6010 C.ar      1 <0>        -0.6980
     20 C13        -1.3242   -9.8853   -2.2180 C.ar      1 <0>        -0.0231
     21 C14        -1.3311   -8.6768   -1.5517 C.ar      1 <0>        -0.1271
     22 S1         -1.3087  -11.4625   -4.4447 S.o2      1 <0>         2.6934
     23 O3         -1.8488  -12.4211   -3.5455 O.2       1 <0>        -0.9606
     24 O4         -1.8629  -11.2285   -5.7321 O.2       1 <0>        -0.9600
     25 N5          0.2776  -11.8756   -4.6803 N.pl3     1 <0>        -1.0003
     26 C15         0.9953  -11.4544   -5.8930 C.3       1 <0>         0.1286
     27 C16         2.3087  -10.7855   -5.4738 C.3       1 <0>         0.0380
     28 N6          3.0567  -11.6920   -4.5926 N.3       1 <0>        -0.5282
     29 C17         2.3190  -11.9566   -3.3501 C.3       1 <0>         0.0331
     30 C18         1.0078  -12.6683   -3.6795 C.3       1 <0>         0.1290
     31 C19         4.3965  -11.1616   -4.3067 C.3       1 <0>         0.0916
     32 C20         5.2170  -12.2175   -3.6117 C.ar      1 <0>        -0.0761
     33 C21         5.2043  -12.3060   -2.2323 C.ar      1 <0>        -0.1147
     34 C22         5.9569  -13.2745   -1.5948 C.ar      1 <0>        -0.1204
     35 C23         6.7219  -14.1549   -2.3369 C.ar      1 <0>        -0.1215
     36 C24         6.7339  -14.0670   -3.7164 C.ar      1 <0>        -0.1223
     37 C25         5.9779  -13.1012   -4.3540 C.ar      1 <0>        -0.0980
     38 H2          1.0039    1.9031    0.0027 H         1 <0>         0.0561
     39 H3         -0.5459    1.8868   -0.8726 H         1 <0>         0.0572
     40 H4         -0.5289    1.8773    0.9072 H         1 <0>         0.0558
     41 H5          0.5123   -0.3556   -0.8948 H         1 <0>         0.0689
     42 H6          0.5293   -0.3651    0.8851 H         1 <0>         0.0655
     43 H7         -1.9435   -0.1821    0.9097 H         1 <0>         0.0935
     44 H8         -1.9605   -0.1726   -0.8702 H         1 <0>         0.0973
     45 H9         -1.3614   -6.6022   -4.2345 H         1 <0>         0.1398
     46 H10        -1.3374   -8.7664   -5.4038 H         1 <0>         0.1341
     47 H11        -1.3144  -10.8090   -1.6586 H         1 <0>         0.1332
     48 H12        -1.3260   -8.6541   -0.4720 H         1 <0>         0.1380
     49 H13         1.2094  -12.3251   -6.5128 H         1 <0>         0.0813
     50 H14         0.3850  -10.7449   -6.4518 H         1 <0>         0.0945
     51 H15         2.9042  -10.5661   -6.3600 H         1 <0>         0.0881
     52 H16         2.0915   -9.8589   -4.9424 H         1 <0>         0.0455
     53 H17         2.9221  -12.5865   -2.6962 H         1 <0>         0.0914
     54 H18         2.1017  -11.0137   -2.8484 H         1 <0>         0.0436
     55 H19         0.4059  -12.7610   -2.7755 H         1 <0>         0.0932
     56 H20         1.2232  -13.6580   -4.0824 H         1 <0>         0.0802
     57 H21         4.8827  -10.8799   -5.2407 H         1 <0>         0.0850
     58 H22         4.3108  -10.2860   -3.6631 H         1 <0>         0.0458
     59 H23         4.6066  -11.6181   -1.6525 H         1 <0>         0.1199
     60 H24         5.9476  -13.3431   -0.5171 H         1 <0>         0.1209
     61 H25         7.3105  -14.9111   -1.8388 H         1 <0>         0.1191
     62 H26         7.3318  -14.7546   -4.2961 H         1 <0>         0.1200
     63 H27         5.9844  -13.0349   -5.4320 H         1 <0>         0.1218
@<TRIPOS>BOND
     1    1    2 1
     2    1   38 1
     3    1   39 1
     4    1   40 1
     5    2    3 1
     6    2   41 1
     7    2   42 1
     8    3    4 1
     9    3   43 1
    10    3   44 1
    11    4   11 am
    12    4    5 1
    13    5    6 1
    14    5    7 2
    15    7   15 1
    16    7    8 1
    17    8    9 1
    18    8   13 2
    19    9   10 1
    20    9   11 am
    21   11   12 2
    22   13   14 1
    23   14   15 2
    24   14   16 1
    25   16   21 ar
    26   16   17 ar
    27   17   18 ar
    28   17   45 1
    29   18   19 ar
    30   18   46 1
    31   19   20 ar
    32   19   22 1
    33   20   21 ar
    34   20   47 1
    35   21   48 1
    36   22   23 2
    37   22   24 2
    38   22   25 1
    39   25   30 1
    40   25   26 1
    41   26   27 1
    42   26   49 1
    43   26   50 1
    44   27   28 1
    45   27   51 1
    46   27   52 1
    47   28   29 1
    48   28   31 1
    49   29   30 1
    50   29   53 1
    51   29   54 1
    52   30   55 1
    53   30   56 1
    54   31   32 1
    55   31   57 1
    56   31   58 1
    57   32   37 ar
    58   32   33 ar
    59   33   34 ar
    60   33   59 1
    61   34   35 ar
    62   34   60 1
    63   35   36 ar
    64   35   61 1
    65   36   37 ar
    66   36   62 1
    67   37   63 1
@<TRIPOS>MOLECULE
ZINC00021914
   45    49     0     0     0
SMALL
USER_CHARGES
cyclopentyl-ethyl-(2-thienyl)BLAH
@<TRIPOS>ATOM
      1 C1          4.1588    4.7213    1.4193 C.3       1 <0>        -0.1458
      2 C2          3.8442    4.3160   -0.0221 C.3       1 <0>        -0.0452
      3 C3          3.0419    3.0403   -0.0215 C.2       1 <0>         0.0931
      4 C4          3.5641    1.7608   -0.0604 C.2       1 <0>        -0.2257
      5 C5          2.4830    0.8752   -0.0248 C.2       1 <0>         0.1440
      6 N1          1.3568    1.6060   -0.0023 N.pl3     1 <0>        -0.3097
      7 N2          1.7311    2.9610    0.0158 N.2       1 <0>        -0.2664
      8 C6         -0.0127    1.0858    0.0080 C.3       1 <0>         0.1470
      9 C7         -0.7629    1.5973    1.2552 C.3       1 <0>        -0.1285
     10 C8         -1.5309    2.8450    0.7505 C.3       1 <0>        -0.1221
     11 C9         -1.9779    2.4205   -0.6705 C.3       1 <0>        -0.1209
     12 C10        -0.7845    1.6092   -1.2159 C.3       1 <0>        -0.1293
     13 C11         2.7660   -0.5642   -0.0313 C.2       1 <0>         0.2474
     14 N3          2.0446   -1.6208   -0.2381 N.2       1 <0>        -0.2534
     15 N4          2.7904   -2.6740   -0.1906 N.2       1 <0>        -0.2697
     16 C12         4.0436   -2.3332    0.0642 C.2       1 <0>         0.2939
     17 N5          4.0709   -0.9806    0.1974 N.pl3     1 <0>        -0.4703
     18 C13         5.1649   -0.0741    0.5245 C.3       1 <0>         0.1059
     19 C14         4.9914    1.2927   -0.1406 C.3       1 <0>        -0.0503
     20 C15         5.1906   -3.2460    0.1817 C.2       1 <0>        -0.1170
     21 C16         5.1988   -4.6194    0.3419 C.2       1 <0>        -0.0870
     22 C17         6.4129   -5.2613    0.4237 C.2       1 <0>        -0.1606
     23 C18         7.5566   -4.5314    0.3571 C.2       1 <0>        -0.1501
     24 S1          6.9356   -2.8692    0.1626 S.3       1 <0>         0.0753
     25 H1          4.7392    5.6440    1.4188 H         1 <0>         0.0649
     26 H2          3.2278    4.8779    1.9641 H         1 <0>         0.0579
     27 H3          4.7336    3.9308    1.9018 H         1 <0>         0.0561
     28 H4          4.7752    4.1594   -0.5669 H         1 <0>         0.0843
     29 H5          3.2695    5.1065   -0.5046 H         1 <0>         0.0823
     30 H6          0.0021   -0.0041    0.0020 H         1 <0>         0.1170
     31 H7         -1.4596    0.8416    1.6179 H         1 <0>         0.0856
     32 H8         -0.0569    1.8738    2.0383 H         1 <0>         0.0735
     33 H9         -0.8713    3.7116    0.7051 H         1 <0>         0.0771
     34 H10        -2.3951    3.0518    1.3816 H         1 <0>         0.0701
     35 H11        -2.1585    3.2978   -1.2916 H         1 <0>         0.0711
     36 H12        -2.8710    1.7977   -0.6193 H         1 <0>         0.0700
     37 H13        -0.1404    2.2509   -1.8171 H         1 <0>         0.0779
     38 H14        -1.1443    0.7734   -1.8159 H         1 <0>         0.0798
     39 H15         6.1036   -0.5152    0.1893 H         1 <0>         0.1002
     40 H16         5.2036    0.0597    1.6056 H         1 <0>         0.0964
     41 H17         5.2850    1.2201   -1.1878 H         1 <0>         0.0839
     42 H18         5.6333    2.0170    0.3608 H         1 <0>         0.1063
     43 H19         4.2745   -5.1752    0.3977 H         1 <0>         0.1492
     44 H20         6.4561   -6.3337    0.5441 H         1 <0>         0.1466
     45 H21         8.5807   -4.8703    0.4090 H         1 <0>         0.1951
@<TRIPOS>BOND
     1    1    2 1
     2    1   25 1
     3    1   26 1
     4    1   27 1
     5    2    3 1
     6    2   28 1
     7    2   29 1
     8    3    7 2
     9    3    4 1
    10    4   19 1
    11    4    5 2
    12    5    6 1
    13    5   13 1
    14    6    7 1
    15    6    8 1
    16    8   12 1
    17    8    9 1
    18    8   30 1
    19    9   10 1
    20    9   31 1
    21    9   32 1
    22   10   11 1
    23   10   33 1
    24   10   34 1
    25   11   12 1
    26   11   35 1
    27   11   36 1
    28   12   37 1
    29   12   38 1
    30   13   17 1
    31   13   14 2
    32   14   15 1
    33   15   16 2
    34   16   17 1
    35   16   20 1
    36   17   18 1
    37   18   19 1
    38   18   39 1
    39   18   40 1
    40   19   41 1
    41   19   42 1
    42   20   24 1
    43   20   21 2
    44   21   22 1
    45   21   43 1
    46   22   23 2
    47   22   44 1
    48   23   24 1
    49   23   45 1
@<TRIPOS>MOLECULE
ZINC19708474
   31    33     0     0     0
SMALL
USER_CHARGES
2-amino-6-cyclopropyl-4-(4-fluorophenyl)pyridine-3-carbonitrile
@<TRIPOS>ATOM
      1 C1          3.4664    1.8429   -0.9499 C.ar      1 <0>        -0.0624
      2 C2          4.6893    1.2052   -0.9578 C.ar      1 <0>        -0.1524
      3 C3          4.9526    0.1953   -0.0459 C.ar      1 <0>         0.1130
      4 C4          3.9919   -0.1743    0.8821 C.ar      1 <0>        -0.1505
      5 C5          2.7681    0.4614    0.9016 C.ar      1 <0>        -0.0652
      6 C6          2.4982    1.4781   -0.0144 C.ar      1 <0>        -0.0806
      7 C7          1.1856    2.1641    0.0024 C.ar      1 <0>         0.0990
      8 C8          1.1039    3.5585    0.0107 C.ar      1 <0>        -0.2373
      9 C9         -0.1357    4.1634    0.0258 C.ar      1 <0>         0.2301
     10 N1         -1.2476    3.4517    0.0330 N.ar      1 <0>        -0.5498
     11 C10        -1.2352    2.1284    0.0194 C.ar      1 <0>         0.4719
     12 C11        -0.0173    1.4278    0.0099 C.ar      1 <0>        -0.1681
     13 C12         0.0021   -0.0041    0.0020 C.1       1 <0>         0.2592
     14 N2          0.0175   -1.1399   -0.0042 N.1       1 <0>        -0.4174
     15 N3         -2.4300    1.4298    0.0207 N.pl3     1 <0>        -0.8588
     16 C13        -0.2226    5.6679    0.0348 C.3       1 <0>        -0.2085
     17 C14         1.0410    6.4463    0.4067 C.3       1 <0>        -0.1193
     18 C15        -0.1302    6.3728    1.3896 C.3       1 <0>        -0.1073
     19 F1          6.1497   -0.4306   -0.0615 F         1 <0>        -0.1343
     20 H1          3.2604    2.6266   -1.6640 H         1 <0>         0.1407
     21 H2          5.4412    1.4900   -1.6788 H         1 <0>         0.1432
     22 H3          4.2017   -0.9617    1.5909 H         1 <0>         0.1411
     23 H4          2.0198    0.1722    1.6247 H         1 <0>         0.1315
     24 H5          2.0027    4.1573    0.0050 H         1 <0>         0.1453
     25 H6         -2.4240    0.3299    0.0094 H         1 <0>         0.4314
     26 H7         -3.3856    1.9745    0.0330 H         1 <0>         0.4348
     27 H8         -0.9301    5.6783   -0.8074 H         1 <0>         0.1407
     28 H9          1.9055    5.7662    0.4011 H         1 <0>         0.1082
     29 H10         1.2037    7.2521   -0.3242 H         1 <0>         0.1105
     30 H11        -0.9353    7.1179    1.4709 H         1 <0>         0.1095
     31 H12        -0.2334    5.6320    2.1962 H         1 <0>         0.1019
@<TRIPOS>BOND
     1    1    6 ar
     2    1    2 ar
     3    1   20 1
     4    2    3 ar
     5    2   21 1
     6    3    4 ar
     7    3   19 1
     8    4    5 ar
     9    4   22 1
    10    5    6 ar
    11    5   23 1
    12    6    7 1
    13    7   12 ar
    14    7    8 ar
    15    8    9 ar
    16    8   24 1
    17    9   10 ar
    18    9   16 1
    19   10   11 ar
    20   11   12 ar
    21   11   15 1
    22   12   13 1
    23   13   14 3
    24   15   25 1
    25   15   26 1
    26   16   18 1
    27   16   17 1
    28   16   27 1
    29   17   18 1
    30   17   28 1
    31   17   29 1
    32   18   30 1
    33   18   31 1
@<TRIPOS>MOLECULE
ZINC19707370
   34    36     0     0     0
SMALL
USER_CHARGES
2-amino-4-(2-chlorophenyl)-6-phenyl-pyridine-3-carbonitrile
@<TRIPOS>ATOM
      1 C1          0.1593    8.4181    0.0440 C.ar      1 <0>        -0.1010
      2 C2          1.3372    7.6927    0.0292 C.ar      1 <0>        -0.1288
      3 C3          1.3010    6.3133    0.0226 C.ar      1 <0>        -0.0707
      4 C4          0.0743    5.6508    0.0307 C.ar      1 <0>        -0.0631
      5 C5         -1.1094    6.3872    0.0398 C.ar      1 <0>        -0.0908
      6 C6         -1.0608    7.7663    0.0521 C.ar      1 <0>        -0.1256
      7 C7          0.0288    4.1690    0.0237 C.ar      1 <0>         0.2604
      8 C8         -1.2036    3.5225    0.0315 C.ar      1 <0>        -0.2145
      9 C9         -1.2424    2.1296    0.0194 C.ar      1 <0>         0.0921
     10 C10        -0.0173    1.4278    0.0099 C.ar      1 <0>        -0.1501
     11 C11         1.1828    2.1593    0.0024 C.ar      1 <0>         0.4713
     12 N1          1.1649    3.4811    0.0096 N.ar      1 <0>        -0.5398
     13 N2          2.3941    1.4898   -0.0123 N.pl3     1 <0>        -0.8588
     14 C12         0.0021   -0.0041    0.0020 C.1       1 <0>         0.2588
     15 N3          0.0175   -1.1399   -0.0042 N.1       1 <0>        -0.4125
     16 C13        -2.5344    1.4045    0.0221 C.ar      1 <0>        -0.0614
     17 C14        -3.3998    1.5119   -1.0663 C.ar      1 <0>        -0.0828
     18 C15        -4.6016    0.8345   -1.0582 C.ar      1 <0>        -0.1137
     19 C16        -4.9496    0.0489    0.0266 C.ar      1 <0>        -0.0952
     20 C17        -4.0966   -0.0623    1.1092 C.ar      1 <0>        -0.1093
     21 C18        -2.8879    0.6068    1.1110 C.ar      1 <0>        -0.0165
     22 Cl1        -1.8143    0.4604    2.4674 Cl        1 <0>        -0.0560
     23 H1          0.1925    9.4976    0.0495 H         1 <0>         0.1251
     24 H2          2.2868    8.2070    0.0226 H         1 <0>         0.1268
     25 H3          2.2212    5.7479    0.0115 H         1 <0>         0.1361
     26 H4         -2.0626    5.8794    0.0416 H         1 <0>         0.1296
     27 H5         -1.9771    8.3378    0.0632 H         1 <0>         0.1280
     28 H6         -2.1199    4.0941    0.0430 H         1 <0>         0.1463
     29 H7          3.3363    2.0575   -0.0182 H         1 <0>         0.4346
     30 H8          2.4146    0.3900   -0.0181 H         1 <0>         0.4318
     31 H9         -3.1295    2.1240   -1.9141 H         1 <0>         0.1385
     32 H10        -5.2722    0.9172   -1.9007 H         1 <0>         0.1362
     33 H11        -5.8913   -0.4798    0.0274 H         1 <0>         0.1367
     34 H12        -4.3738   -0.6769    1.9529 H         1 <0>         0.1383
@<TRIPOS>BOND
     1    1    6 ar
     2    1    2 ar
     3    1   23 1
     4    2    3 ar
     5    2   24 1
     6    3    4 ar
     7    3   25 1
     8    4    5 ar
     9    4    7 1
    10    5    6 ar
    11    5   26 1
    12    6   27 1
    13    7   12 ar
    14    7    8 ar
    15    8    9 ar
    16    8   28 1
    17    9   10 ar
    18    9   16 1
    19   10   11 ar
    20   10   14 1
    21   11   12 ar
    22   11   13 1
    23   13   29 1
    24   13   30 1
    25   14   15 3
    26   16   21 ar
    27   16   17 ar
    28   17   18 ar
    29   17   31 1
    30   18   19 ar
    31   18   32 1
    32   19   20 ar
    33   19   33 1
    34   20   21 ar
    35   20   34 1
    36   21   22 1
@<TRIPOS>MOLECULE
ZINC13586470
   46    48     0     0     0
SMALL
USER_CHARGES
N-(4,6-diphenylpyrimidin-2-yl)pentanamide
@<TRIPOS>ATOM
      1 C1          2.1341   -4.5024   -0.0425 C.3       1 <0>        -0.1540
      2 C2          2.3933   -2.9945   -0.0369 C.3       1 <0>        -0.1248
      3 C3          1.0581   -2.2476   -0.0201 C.3       1 <0>        -0.1064
      4 C4          1.3172   -0.7397   -0.0145 C.3       1 <0>        -0.1359
      5 C5          0.0021   -0.0041    0.0020 C.2       1 <0>         0.5079
      6 O1         -1.0397   -0.6246    0.0086 O.2       1 <0>        -0.4641
      7 N1         -0.0162    1.3436    0.0094 N.am      1 <0>        -0.6436
      8 C6         -1.2289    2.0219    0.0189 C.ar      1 <0>         0.5505
      9 N2         -2.3545    1.3266    0.0150 N.ar      1 <0>        -0.5035
     10 C7         -3.5365    1.9402    0.0294 C.ar      1 <0>         0.2531
     11 C8         -3.5759    3.3348    0.0371 C.ar      1 <0>        -0.2473
     12 C9         -2.3669    4.0310    0.0352 C.ar      1 <0>         0.2557
     13 N3         -1.2254    3.3449    0.0260 N.ar      1 <0>        -0.5513
     14 C10        -2.3531    5.5141    0.0427 C.ar      1 <0>        -0.0625
     15 C11        -3.5520    6.2248    0.0465 C.ar      1 <0>        -0.0892
     16 C12        -3.5330    7.6047    0.0598 C.ar      1 <0>        -0.1241
     17 C13        -2.3271    8.2825    0.0568 C.ar      1 <0>        -0.0990
     18 C14        -1.1342    7.5823    0.0473 C.ar      1 <0>        -0.1271
     19 C15        -1.1410    6.2023    0.0402 C.ar      1 <0>        -0.0704
     20 C16        -4.7930    1.1523    0.0306 C.ar      1 <0>        -0.0656
     21 C17        -6.0261    1.8019    0.0453 C.ar      1 <0>        -0.0897
     22 C18        -7.1921    1.0636    0.0401 C.ar      1 <0>        -0.1279
     23 C19        -7.1386   -0.3186    0.0328 C.ar      1 <0>        -0.0983
     24 C20        -5.9176   -0.9688    0.0240 C.ar      1 <0>        -0.1290
     25 C21        -4.7452   -0.2407    0.0228 C.ar      1 <0>        -0.0638
     26 H1          3.0854   -5.0345   -0.0544 H         1 <0>         0.0551
     27 H2          1.5747   -4.7782    0.8514 H         1 <0>         0.0551
     28 H3          1.5577   -4.7687   -0.9285 H         1 <0>         0.0551
     29 H4          2.9527   -2.7186   -0.9308 H         1 <0>         0.0627
     30 H5          2.9697   -2.7282    0.8491 H         1 <0>         0.0627
     31 H6          0.4987   -2.5235    0.8738 H         1 <0>         0.0718
     32 H7          0.4817   -2.5139   -0.9061 H         1 <0>         0.0718
     33 H8          1.8766   -0.4639   -0.9084 H         1 <0>         0.0990
     34 H9          1.8936   -0.4734    0.8715 H         1 <0>         0.0990
     35 H10         0.8172    1.8399    0.0041 H         1 <0>         0.4237
     36 H11        -4.5184    3.8620    0.0448 H         1 <0>         0.1512
     37 H12        -4.4940    5.6967    0.0436 H         1 <0>         0.1285
     38 H13        -4.4614    8.1565    0.0679 H         1 <0>         0.1298
     39 H14        -2.3170    9.3624    0.0623 H         1 <0>         0.1270
     40 H15        -0.1956    8.1166    0.0450 H         1 <0>         0.1286
     41 H16        -0.2090    5.6566    0.0332 H         1 <0>         0.1357
     42 H17        -6.0690    2.8810    0.0563 H         1 <0>         0.1270
     43 H18        -8.1481    1.5660    0.0463 H         1 <0>         0.1287
     44 H19        -8.0535   -0.8924    0.0337 H         1 <0>         0.1260
     45 H20        -5.8817   -2.0481    0.0183 H         1 <0>         0.1278
     46 H21        -3.7925   -0.7493    0.0155 H         1 <0>         0.1444
@<TRIPOS>BOND
     1    1    2 1
     2    1   26 1
     3    1   27 1
     4    1   28 1
     5    2    3 1
     6    2   29 1
     7    2   30 1
     8    3    4 1
     9    3   31 1
    10    3   32 1
    11    4    5 1
    12    4   33 1
    13    4   34 1
    14    5    6 2
    15    5    7 am
    16    7    8 1
    17    7   35 1
    18    8   13 ar
    19    8    9 ar
    20    9   10 ar
    21   10   11 ar
    22   10   20 1
    23   11   12 ar
    24   11   36 1
    25   12   13 ar
    26   12   14 1
    27   14   19 ar
    28   14   15 ar
    29   15   16 ar
    30   15   37 1
    31   16   17 ar
    32   16   38 1
    33   17   18 ar
    34   17   39 1
    35   18   19 ar
    36   18   40 1
    37   19   41 1
    38   20   25 ar
    39   20   21 ar
    40   21   22 ar
    41   21   42 1
    42   22   23 ar
    43   22   43 1
    44   23   24 ar
    45   23   44 1
    46   24   25 ar
    47   24   45 1
    48   25   46 1
@<TRIPOS>MOLECULE
ZINC13586462
   44    47     0     0     0
SMALL
USER_CHARGES
N-(4,6-diphenylpyrimidin-2-yl)benzamide
@<TRIPOS>ATOM
      1 C1          7.1796   -6.9241   -0.0985 C.ar      1 <0>        -0.0981
      2 C2          5.9848   -6.2271   -0.0843 C.ar      1 <0>        -0.1290
      3 C3          5.9880   -4.8470   -0.0778 C.ar      1 <0>        -0.0638
      4 C4          7.1982   -4.1556   -0.0856 C.ar      1 <0>        -0.0657
      5 C5          8.3989   -4.8631   -0.1058 C.ar      1 <0>        -0.0894
      6 C6          8.3836   -6.2431   -0.1064 C.ar      1 <0>        -0.1279
      7 C7          7.2082   -2.6725   -0.0787 C.ar      1 <0>         0.2539
      8 C8          8.4153   -1.9731   -0.0865 C.ar      1 <0>        -0.2462
      9 C9          8.3723   -0.5786   -0.0795 C.ar      1 <0>         0.2565
     10 N1          7.1888    0.0320   -0.0658 N.ar      1 <0>        -0.5505
     11 C10         6.0649   -0.6663   -0.0587 C.ar      1 <0>         0.5531
     12 N2          6.0649   -1.9895   -0.0599 N.ar      1 <0>        -0.5031
     13 N3          4.8513    0.0084   -0.0439 N.am      1 <0>        -0.6378
     14 C11         3.6952   -0.6843   -0.0366 C.2       1 <0>         0.5581
     15 O1          3.7148   -1.8995   -0.0429 O.2       1 <0>        -0.4601
     16 C12         2.4035    0.0338   -0.0208 C.ar      1 <0>        -0.1366
     17 C13         1.2042   -0.6806   -0.0131 C.ar      1 <0>        -0.0548
     18 C14         0.0021   -0.0041    0.0020 C.ar      1 <0>        -0.1258
     19 C15        -0.0167    1.3794    0.0096 C.ar      1 <0>        -0.0887
     20 C16         1.1683    2.0936    0.0021 C.ar      1 <0>        -0.1254
     21 C17         2.3774    1.4296   -0.0131 C.ar      1 <0>        -0.0863
     22 C18         9.6268    0.2126   -0.0868 C.ar      1 <0>        -0.0626
     23 C19        10.8615   -0.4340   -0.0954 C.ar      1 <0>        -0.0888
     24 C20        12.0255    0.3074   -0.1080 C.ar      1 <0>        -0.1241
     25 C21        11.9685    1.6895   -0.1005 C.ar      1 <0>        -0.0988
     26 C22        10.7459    2.3365   -0.0862 C.ar      1 <0>        -0.1270
     27 C23         9.5754    1.6054   -0.0793 C.ar      1 <0>        -0.0703
     28 H1          7.1724   -8.0041   -0.1032 H         1 <0>         0.1261
     29 H2          5.0477   -6.7639   -0.0785 H         1 <0>         0.1279
     30 H3          5.0546   -4.3039   -0.0663 H         1 <0>         0.1445
     31 H4          9.3395   -4.3324   -0.1165 H         1 <0>         0.1272
     32 H5          9.3135   -6.7924   -0.1172 H         1 <0>         0.1287
     33 H6          9.3591   -2.4978   -0.0980 H         1 <0>         0.1519
     34 H7          4.8356    0.9783   -0.0389 H         1 <0>         0.4226
     35 H8          1.2175   -1.7605   -0.0194 H         1 <0>         0.1388
     36 H9         -0.9265   -0.5555    0.0076 H         1 <0>         0.1332
     37 H10        -0.9606    1.9042    0.0169 H         1 <0>         0.1303
     38 H11         1.1467    3.1734    0.0082 H         1 <0>         0.1321
     39 H12         3.3017    1.9882   -0.0189 H         1 <0>         0.1262
     40 H13        10.9072   -1.5130   -0.0968 H         1 <0>         0.1287
     41 H14        12.9828   -0.1925   -0.1196 H         1 <0>         0.1298
     42 H15        12.8820    2.2656   -0.1063 H         1 <0>         0.1270
     43 H16        10.7073    3.4157   -0.0801 H         1 <0>         0.1286
     44 H17         8.6214    2.1116   -0.0685 H         1 <0>         0.1357
@<TRIPOS>BOND
     1    1    6 ar
     2    1    2 ar
     3    1   28 1
     4    2    3 ar
     5    2   29 1
     6    3    4 ar
     7    3   30 1
     8    4    5 ar
     9    4    7 1
    10    5    6 ar
    11    5   31 1
    12    6   32 1
    13    7   12 ar
    14    7    8 ar
    15    8    9 ar
    16    8   33 1
    17    9   10 ar
    18    9   22 1
    19   10   11 ar
    20   11   12 ar
    21   11   13 1
    22   13   14 am
    23   13   34 1
    24   14   15 2
    25   14   16 1
    26   16   21 ar
    27   16   17 ar
    28   17   18 ar
    29   17   35 1
    30   18   19 ar
    31   18   36 1
    32   19   20 ar
    33   19   37 1
    34   20   21 ar
    35   20   38 1
    36   21   39 1
    37   22   27 ar
    38   22   23 ar
    39   23   24 ar
    40   23   40 1
    41   24   25 ar
    42   24   41 1
    43   25   26 ar
    44   25   42 1
    45   26   27 ar
    46   26   43 1
    47   27   44 1
@<TRIPOS>MOLECULE
ZINC22058897
   26    27     0     0     0
SMALL
USER_CHARGES
2-ethyl-5,7-dimethyl-3H-imidazo[5,4-b]pyridine
@<TRIPOS>ATOM
      1 C1         -5.5841    2.4354    5.7661 C.3       1 <0>        -0.1549
      2 C2         -5.3902    3.2786    4.5042 C.3       1 <0>        -0.0543
      3 C3         -4.1099    2.8727    3.8207 C.2       1 <0>         0.2979
      4 N1         -4.0111    2.4743    2.5228 N.2       1 <0>        -0.4896
      5 H1         -2.6346    3.1064    5.4113 H         1 <0>         0.4486
      6 C4         -2.6840    2.1960    2.2758 C.ar      1 <0>         0.2626
      7 C5         -2.0095    2.4386    3.4861 C.ar      1 <0>        -0.0469
      8 N2         -2.9379    2.8520    4.3850 N.pl3     1 <0>        -0.5513
      9 C6         -0.6277    2.2350    3.5441 C.ar      1 <0>        -0.0165
     10 C7          0.0135    1.7848    2.4055 C.ar      1 <0>        -0.1691
     11 C8         -0.7198    1.5614    1.2510 C.ar      1 <0>         0.1607
     12 N3         -2.0197    1.7700    1.2136 N.ar      1 <0>        -0.4585
     13 C9         -0.0153    1.0697    0.0129 C.3       1 <0>        -0.1076
     14 C10         0.1396    2.4876    4.8163 C.3       1 <0>        -0.1180
     15 H2         -6.5186    2.7316    6.2650 H         1 <0>         0.0766
     16 H3         -4.7368    2.5969    6.4487 H         1 <0>         0.0537
     17 H4         -5.6363    1.3714    5.4917 H         1 <0>         0.0640
     18 H5         -6.2375    3.1171    3.8215 H         1 <0>         0.1086
     19 H6         -5.3381    4.3426    4.7785 H         1 <0>         0.0953
     20 H7          1.0008    1.6265    2.4172 H         1 <0>         0.1306
     21 H8         -0.7456    0.9484   -0.8007 H         1 <0>         0.0810
     22 H9          0.4634    0.1019    0.2233 H         1 <0>         0.0812
     23 H10         0.7505    1.7999   -0.2877 H         1 <0>         0.0811
     24 H11        -0.5509    2.8387    5.5973 H         1 <0>         0.0588
     25 H12         0.9081    3.2534    4.6351 H         1 <0>         0.0831
     26 H13         0.6215    1.5551    5.1452 H         1 <0>         0.0830
@<TRIPOS>BOND
     1    1    2 1
     2    1   15 1
     3    1   16 1
     4    1   17 1
     5    2   18 1
     6    2   19 1
     7    2    3 1
     8    3    8 1
     9    3    4 2
    10    4    6 1
    11    5    8 1
    12    6    7 ar
    13    6   12 ar
    14    7    9 ar
    15    7    8 1
    16    9   10 ar
    17    9   14 1
    18   10   11 ar
    19   10   20 1
    20   11   13 1
    21   11   12 ar
    22   13   21 1
    23   13   22 1
    24   13   23 1
    25   14   24 1
    26   14   25 1
    27   14   26 1
@<TRIPOS>MOLECULE
ZINC13586477
   50    53     0     0     0
SMALL
USER_CHARGES
N-(4,6-diphenylpyrimidin-2-yl)cyclohexanecarboxamide
@<TRIPOS>ATOM
      1 C1          2.3963    0.0328   -0.0206 C.ar      1 <0>        -0.0995
      2 C2          1.2079   -0.6751   -0.0131 C.ar      1 <0>        -0.1272
      3 C3          0.0021   -0.0041    0.0020 C.ar      1 <0>        -0.0706
      4 C4         -0.0168    1.3896    0.0097 C.ar      1 <0>        -0.0618
      5 C5          1.1837    2.0976    0.0020 C.ar      1 <0>        -0.0896
      6 C6          2.3836    1.4160   -0.0126 C.ar      1 <0>        -0.1242
      7 C7         -1.3096    2.1164    0.0198 C.ar      1 <0>         0.2553
      8 C8         -1.3370    3.5112    0.0333 C.ar      1 <0>        -0.2499
      9 C9         -2.5779    4.1487    0.0367 C.ar      1 <0>         0.2527
     10 N1         -3.6853    3.4087    0.0380 N.ar      1 <0>        -0.5055
     11 C10        -3.6185    2.0874    0.0305 C.ar      1 <0>         0.5541
     12 N2         -2.4609    1.4468    0.0216 N.ar      1 <0>        -0.5522
     13 N3         -4.7973    1.3517    0.0317 N.am      1 <0>        -0.6552
     14 C11        -5.9869    1.9851    0.0407 C.2       1 <0>         0.5145
     15 O1         -6.0286    3.1970    0.0479 O.2       1 <0>        -0.4673
     16 C12        -7.2654    1.1873    0.0419 C.3       1 <0>        -0.0988
     17 C13        -7.3219    0.3126   -1.2121 C.3       1 <0>        -0.1125
     18 C14        -8.6199   -0.4975   -1.2109 C.3       1 <0>        -0.1185
     19 C15        -9.8162    0.4562   -1.2000 C.3       1 <0>        -0.1245
     20 C16        -9.7597    1.3309    0.0541 C.3       1 <0>        -0.1205
     21 C17        -8.4618    2.1410    0.0528 C.3       1 <0>        -0.1008
     22 C18        -2.6628    5.6294    0.0452 C.ar      1 <0>        -0.0651
     23 C19        -1.4993    6.3968    0.0496 C.ar      1 <0>        -0.0901
     24 C20        -1.5843    7.7742    0.0511 C.ar      1 <0>        -0.1280
     25 C21        -2.8212    8.3934    0.0608 C.ar      1 <0>        -0.0988
     26 C22        -3.9793    7.6369    0.0622 C.ar      1 <0>        -0.1292
     27 C23        -3.9064    6.2588    0.0545 C.ar      1 <0>        -0.0640
     28 H1          3.3377   -0.4964   -0.0325 H         1 <0>         0.1268
     29 H2          1.2238   -1.7550   -0.0194 H         1 <0>         0.1284
     30 H3         -0.9252   -0.5578    0.0083 H         1 <0>         0.1357
     31 H4          1.1749    3.1776    0.0075 H         1 <0>         0.1282
     32 H5          3.3145    1.9636   -0.0179 H         1 <0>         0.1295
     33 H6         -0.4208    4.0829    0.0370 H         1 <0>         0.1500
     34 H7         -4.7595    0.2524    0.0253 H         1 <0>         0.4484
     35 H8         -7.2839    0.5538    0.9410 H         1 <0>         0.1020
     36 H9         -7.2895    0.9518   -2.1067 H         1 <0>         0.0703
     37 H10        -6.4618   -0.3731   -1.2200 H         1 <0>         0.0676
     38 H11        -8.6605   -1.1263   -2.1125 H         1 <0>         0.0678
     39 H12        -8.6524   -1.1367   -0.3163 H         1 <0>         0.0662
     40 H13        -9.7837    1.0954   -2.0946 H         1 <0>         0.0636
     41 H14       -10.7494   -0.1261   -1.1992 H         1 <0>         0.0646
     42 H15       -10.6199    2.0165    0.0620 H         1 <0>         0.0678
     43 H16        -9.7921    0.6917    0.9487 H         1 <0>         0.0637
     44 H17        -8.4212    2.7699    0.9544 H         1 <0>         0.0714
     45 H18        -8.4294    2.7802   -0.8419 H         1 <0>         0.0720
     46 H19        -0.5330    5.9143    0.0472 H         1 <0>         0.1269
     47 H20        -0.6834    8.3698    0.0493 H         1 <0>         0.1285
     48 H21        -2.8830    9.4716    0.0669 H         1 <0>         0.1259
     49 H22        -4.9424    8.1256    0.0698 H         1 <0>         0.1276
     50 H23        -4.8112    5.6691    0.0552 H         1 <0>         0.1441
@<TRIPOS>BOND
     1    1    6 ar
     2    1    2 ar
     3    1   28 1
     4    2    3 ar
     5    2   29 1
     6    3    4 ar
     7    3   30 1
     8    4    5 ar
     9    4    7 1
    10    5    6 ar
    11    5   31 1
    12    6   32 1
    13    7   12 ar
    14    7    8 ar
    15    8    9 ar
    16    8   33 1
    17    9   10 ar
    18    9   22 1
    19   10   11 ar
    20   11   12 ar
    21   11   13 1
    22   13   14 am
    23   13   34 1
    24   14   15 2
    25   14   16 1
    26   16   21 1
    27   16   17 1
    28   16   35 1
    29   17   18 1
    30   17   36 1
    31   17   37 1
    32   18   19 1
    33   18   38 1
    34   18   39 1
    35   19   20 1
    36   19   40 1
    37   19   41 1
    38   20   21 1
    39   20   42 1
    40   20   43 1
    41   21   44 1
    42   21   45 1
    43   22   27 ar
    44   22   23 ar
    45   23   24 ar
    46   23   46 1
    47   24   25 ar
    48   24   47 1
    49   25   26 ar
    50   25   48 1
    51   26   27 ar
    52   26   49 1
    53   27   50 1
@<TRIPOS>MOLECULE
ZINC19095802
   43    45     0     0     0
SMALL
USER_CHARGES
2-amino-4-(3-ethoxy-4-hydroxy-phenyl)-6-(4-hydroxyphenyl)pyridine-3-carbonitrile
@<TRIPOS>ATOM
      1 C1         -0.0187    1.5258    0.0104 C.3       1 <0>        -0.1512
      2 C2          0.0021   -0.0041    0.0020 C.3       1 <0>         0.0508
      3 O1          0.6709   -0.4649   -1.1737 O.3       1 <0>        -0.3025
      4 C3          0.7768   -1.8110   -1.3363 C.ar      1 <0>         0.1104
      5 C4          0.2543   -2.6658   -0.3834 C.ar      1 <0>        -0.1713
      6 C5          0.3603   -4.0461   -0.5555 C.ar      1 <0>        -0.0399
      7 C6          1.0025   -4.5587   -1.6829 C.ar      1 <0>        -0.1118
      8 C7          1.5266   -3.7015   -2.6278 C.ar      1 <0>        -0.1053
      9 C8          1.4169   -2.3288   -2.4600 C.ar      1 <0>         0.0893
     10 O2          1.9353   -1.4877   -3.3933 O.3       1 <0>        -0.4844
     11 C9         -0.2024   -4.9656    0.4599 C.ar      1 <0>         0.0980
     12 C10        -1.0371   -6.0181    0.0879 C.ar      1 <0>        -0.2126
     13 C11        -1.5433   -6.8646    1.0696 C.ar      1 <0>         0.2623
     14 N1         -1.2523   -6.6795    2.3531 N.ar      1 <0>        -0.5379
     15 C12        -0.4703   -5.6940    2.7583 C.ar      1 <0>         0.4668
     16 C13         0.0876   -4.7961    1.8316 C.ar      1 <0>        -0.1558
     17 C14         0.9345   -3.7282    2.2708 C.1       1 <0>         0.2581
     18 N2          1.6063   -2.8810    2.6192 N.1       1 <0>        -0.4131
     19 N3         -0.1978   -5.5450    4.1072 N.pl3     1 <0>        -0.8354
     20 C15        -2.4263   -7.9879    0.6779 C.ar      1 <0>        -0.0746
     21 C16        -2.7450   -8.1910   -0.6649 C.ar      1 <0>        -0.0717
     22 C17        -3.5618   -9.2407   -1.0266 C.ar      1 <0>        -0.1511
     23 C18        -4.0771  -10.0886   -0.0546 C.ar      1 <0>         0.1270
     24 C19        -3.7667   -9.8855    1.2838 C.ar      1 <0>        -0.1545
     25 C20        -2.9455   -8.8413    1.6516 C.ar      1 <0>        -0.0521
     26 O3         -4.8865  -11.1184   -0.4138 O.3       1 <0>        -0.4992
     27 H1          1.0039    1.9031    0.0027 H         1 <0>         0.0675
     28 H2         -0.5459    1.8868   -0.8726 H         1 <0>         0.0687
     29 H3         -0.5289    1.8773    0.9072 H         1 <0>         0.0799
     30 H4          0.5293   -0.3651    0.8851 H         1 <0>         0.0618
     31 H5         -1.0205   -0.3814    0.0098 H         1 <0>         0.0623
     32 H6         -0.2383   -2.2657    0.4905 H         1 <0>         0.1318
     33 H7          1.0895   -5.6270   -1.8157 H         1 <0>         0.1382
     34 H8          2.0232   -4.0998   -3.5003 H         1 <0>         0.1441
     35 H9          2.8544   -1.2363   -3.2290 H         1 <0>         0.3904
     36 H10        -1.2850   -6.1774   -0.9511 H         1 <0>         0.1499
     37 H11         0.3758   -4.8235    4.4093 H         1 <0>         0.4112
     38 H12        -0.5804   -6.1621    4.7504 H         1 <0>         0.4133
     39 H13        -2.3486   -7.5291   -1.4207 H         1 <0>         0.1360
     40 H14        -3.8051   -9.4014   -2.0665 H         1 <0>         0.1356
     41 H15        -4.1689  -10.5465    2.0372 H         1 <0>         0.1341
     42 H16        -2.7045   -8.6839    2.6926 H         1 <0>         0.1416
     43 H17        -5.8263  -10.8914   -0.4339 H         1 <0>         0.3954
@<TRIPOS>BOND
     1    1    2 1
     2    1   27 1
     3    1   28 1
     4    1   29 1
     5    2    3 1
     6    2   30 1
     7    2   31 1
     8    3    4 1
     9    4    9 ar
    10    4    5 ar
    11    5    6 ar
    12    5   32 1
    13    6    7 ar
    14    6   11 1
    15    7    8 ar
    16    7   33 1
    17    8    9 ar
    18    8   34 1
    19    9   10 1
    20   10   35 1
    21   11   16 ar
    22   11   12 ar
    23   12   13 ar
    24   12   36 1
    25   13   14 ar
    26   13   20 1
    27   14   15 ar
    28   15   16 ar
    29   15   19 1
    30   16   17 1
    31   17   18 3
    32   19   37 1
    33   19   38 1
    34   20   25 ar
    35   20   21 ar
    36   21   22 ar
    37   21   39 1
    38   22   23 ar
    39   22   40 1
    40   23   24 ar
    41   23   26 1
    42   24   25 ar
    43   24   41 1
    44   25   42 1
    45   26   43 1
@<TRIPOS>MOLECULE
ZINC06716086
   43    45     0     0     0
SMALL
USER_CHARGES
N-(4,6-diphenylpyrimidin-2-yl)butanamide
@<TRIPOS>ATOM
      1 C1          2.3933   -2.9945   -0.0369 C.3       1 <0>        -0.1539
      2 C2          1.0581   -2.2476   -0.0201 C.3       1 <0>        -0.1104
      3 C3          1.3172   -0.7397   -0.0145 C.3       1 <0>        -0.1357
      4 C4          0.0021   -0.0041    0.0020 C.2       1 <0>         0.5076
      5 O1         -1.0397   -0.6246    0.0086 O.2       1 <0>        -0.4644
      6 N1         -0.0162    1.3436    0.0094 N.am      1 <0>        -0.6436
      7 C5         -1.2289    2.0219    0.0189 C.ar      1 <0>         0.5504
      8 N2         -2.3545    1.3266    0.0150 N.ar      1 <0>        -0.5036
      9 C6         -3.5365    1.9402    0.0294 C.ar      1 <0>         0.2531
     10 C7         -3.5759    3.3348    0.0371 C.ar      1 <0>        -0.2473
     11 C8         -2.3669    4.0310    0.0352 C.ar      1 <0>         0.2557
     12 N3         -1.2254    3.3449    0.0260 N.ar      1 <0>        -0.5514
     13 C9         -2.3531    5.5141    0.0427 C.ar      1 <0>        -0.0626
     14 C10        -3.5520    6.2248    0.0465 C.ar      1 <0>        -0.0892
     15 C11        -3.5330    7.6047    0.0598 C.ar      1 <0>        -0.1242
     16 C12        -2.3271    8.2825    0.0568 C.ar      1 <0>        -0.0990
     17 C13        -1.1342    7.5823    0.0473 C.ar      1 <0>        -0.1271
     18 C14        -1.1410    6.2023    0.0402 C.ar      1 <0>        -0.0705
     19 C15        -4.7930    1.1523    0.0306 C.ar      1 <0>        -0.0656
     20 C16        -6.0261    1.8019    0.0453 C.ar      1 <0>        -0.0897
     21 C17        -7.1921    1.0636    0.0401 C.ar      1 <0>        -0.1279
     22 C18        -7.1386   -0.3186    0.0328 C.ar      1 <0>        -0.0983
     23 C19        -5.9176   -0.9688    0.0240 C.ar      1 <0>        -0.1291
     24 C20        -4.7452   -0.2407    0.0228 C.ar      1 <0>        -0.0639
     25 H1          2.9527   -2.7186   -0.9308 H         1 <0>         0.0556
     26 H2          2.9697   -2.7282    0.8491 H         1 <0>         0.0556
     27 H3          2.2087   -4.0687   -0.0409 H         1 <0>         0.0600
     28 H4          0.4987   -2.5235    0.8738 H         1 <0>         0.0713
     29 H5          0.4817   -2.5139   -0.9061 H         1 <0>         0.0713
     30 H6          1.8766   -0.4639   -0.9084 H         1 <0>         0.0990
     31 H7          1.8936   -0.4734    0.8715 H         1 <0>         0.0990
     32 H8          0.8172    1.8399    0.0041 H         1 <0>         0.4237
     33 H9         -4.5184    3.8620    0.0448 H         1 <0>         0.1512
     34 H10        -4.4940    5.6967    0.0436 H         1 <0>         0.1285
     35 H11        -4.4614    8.1565    0.0679 H         1 <0>         0.1298
     36 H12        -2.3170    9.3624    0.0623 H         1 <0>         0.1270
     37 H13        -0.1956    8.1166    0.0450 H         1 <0>         0.1286
     38 H14        -0.2090    5.6566    0.0332 H         1 <0>         0.1357
     39 H15        -6.0690    2.8810    0.0563 H         1 <0>         0.1271
     40 H16        -8.1481    1.5660    0.0463 H         1 <0>         0.1287
     41 H17        -8.0535   -0.8924    0.0337 H         1 <0>         0.1261
     42 H18        -5.8817   -2.0481    0.0183 H         1 <0>         0.1279
     43 H19        -3.7925   -0.7493    0.0155 H         1 <0>         0.1444
@<TRIPOS>BOND
     1    1    2 1
     2    1   25 1
     3    1   26 1
     4    1   27 1
     5    2    3 1
     6    2   28 1
     7    2   29 1
     8    3    4 1
     9    3   30 1
    10    3   31 1
    11    4    5 2
    12    4    6 am
    13    6    7 1
    14    6   32 1
    15    7   12 ar
    16    7    8 ar
    17    8    9 ar
    18    9   10 ar
    19    9   19 1
    20   10   11 ar
    21   10   33 1
    22   11   12 ar
    23   11   13 1
    24   13   18 ar
    25   13   14 ar
    26   14   15 ar
    27   14   34 1
    28   15   16 ar
    29   15   35 1
    30   16   17 ar
    31   16   36 1
    32   17   18 ar
    33   17   37 1
    34   18   38 1
    35   19   24 ar
    36   19   20 ar
    37   20   21 ar
    38   20   39 1
    39   21   22 ar
    40   21   40 1
    41   22   23 ar
    42   22   41 1
    43   23   24 ar
    44   23   42 1
    45   24   43 1
@<TRIPOS>MOLECULE
ZINC20389414
   34    36     0     0     0
SMALL
USER_CHARGES
2-amino-4-(4-chlorophenyl)-6-phenyl-pyridine-3-carbonitrile
@<TRIPOS>ATOM
      1 C1          0.1593    8.4181    0.0465 C.ar      1 <0>        -0.1002
      2 C2          1.3371    7.6927    0.0322 C.ar      1 <0>        -0.1289
      3 C3          1.3010    6.3132    0.0251 C.ar      1 <0>        -0.0702
      4 C4          0.0743    5.6507    0.0328 C.ar      1 <0>        -0.0650
      5 C5         -1.1095    6.3871    0.0423 C.ar      1 <0>        -0.0903
      6 C6         -1.0608    7.7662    0.0546 C.ar      1 <0>        -0.1258
      7 C7          0.0288    4.1690    0.0247 C.ar      1 <0>         0.2632
      8 C8         -1.2036    3.5225    0.0321 C.ar      1 <0>        -0.2198
      9 C9         -1.2424    2.1296    0.0194 C.ar      1 <0>         0.0957
     10 C10        -0.0173    1.4278    0.0099 C.ar      1 <0>        -0.1617
     11 C11         1.1828    2.1593    0.0024 C.ar      1 <0>         0.4734
     12 N1          1.1649    3.4811    0.0101 N.ar      1 <0>        -0.5421
     13 N2          2.3941    1.4898   -0.0128 N.pl3     1 <0>        -0.8584
     14 C12         0.0021   -0.0041    0.0020 C.1       1 <0>         0.2582
     15 N3          0.0175   -1.1399   -0.0042 N.1       1 <0>        -0.4147
     16 C13        -2.5344    1.4045    0.0211 C.ar      1 <0>        -0.0643
     17 C14        -3.5178    1.7290    0.9552 C.ar      1 <0>        -0.0794
     18 C15        -4.7209    1.0539    0.9493 C.ar      1 <0>        -0.1091
     19 C16        -4.9490    0.0486    0.0247 C.ar      1 <0>        -0.0233
     20 C17        -3.9740   -0.2811   -0.9016 C.ar      1 <0>        -0.1070
     21 C18        -2.7694    0.3911   -0.9078 C.ar      1 <0>        -0.0816
     22 Cl1        -6.4629   -0.8010    0.0267 Cl        1 <0>        -0.0619
     23 H1          0.1924    9.4976    0.0516 H         1 <0>         0.1254
     24 H2          2.2868    8.2070    0.0262 H         1 <0>         0.1270
     25 H3          2.2212    5.7479    0.0139 H         1 <0>         0.1361
     26 H4         -2.0626    5.8793    0.0442 H         1 <0>         0.1300
     27 H5         -1.9772    8.3377    0.0661 H         1 <0>         0.1283
     28 H6         -2.1199    4.0941    0.0433 H         1 <0>         0.1471
     29 H7          3.3363    2.0575   -0.0187 H         1 <0>         0.4352
     30 H8          2.4146    0.3900   -0.0190 H         1 <0>         0.4322
     31 H9         -3.3392    2.5099    1.6796 H         1 <0>         0.1407
     32 H10        -5.4847    1.3072    1.6696 H         1 <0>         0.1410
     33 H11        -4.1568   -1.0663   -1.6203 H         1 <0>         0.1388
     34 H12        -2.0095    0.1329   -1.6305 H         1 <0>         0.1313
@<TRIPOS>BOND
     1    1    6 ar
     2    1    2 ar
     3    1   23 1
     4    2    3 ar
     5    2   24 1
     6    3    4 ar
     7    3   25 1
     8    4    5 ar
     9    4    7 1
    10    5    6 ar
    11    5   26 1
    12    6   27 1
    13    7   12 ar
    14    7    8 ar
    15    8    9 ar
    16    8   28 1
    17    9   10 ar
    18    9   16 1
    19   10   11 ar
    20   10   14 1
    21   11   12 ar
    22   11   13 1
    23   13   29 1
    24   13   30 1
    25   14   15 3
    26   16   21 ar
    27   16   17 ar
    28   17   18 ar
    29   17   31 1
    30   18   19 ar
    31   18   32 1
    32   19   20 ar
    33   19   22 1
    34   20   21 ar
    35   20   33 1
    36   21   34 1
@<TRIPOS>MOLECULE
ZINC13586472
   46    48     0     0     0
SMALL
USER_CHARGES
N-(4,6-diphenylpyrimidin-2-yl)-2,2-dimethyl-propanamide
@<TRIPOS>ATOM
      1 C1          1.0581   -2.2476   -0.0201 C.3       1 <0>        -0.1297
      2 C2          1.3172   -0.7397   -0.0145 C.3       1 <0>        -0.0797
      3 C3          2.1025   -0.3525   -1.2692 C.3       1 <0>        -0.1445
      4 C4          2.1263   -0.3659    1.2291 C.3       1 <0>        -0.1445
      5 C5          0.0021   -0.0041    0.0020 C.2       1 <0>         0.5189
      6 O1         -1.0397   -0.6246    0.0086 O.2       1 <0>        -0.4619
      7 N1         -0.0162    1.3436    0.0094 N.am      1 <0>        -0.6400
      8 C6         -1.2289    2.0219    0.0189 C.ar      1 <0>         0.5510
      9 N2         -2.3545    1.3266    0.0150 N.ar      1 <0>        -0.5036
     10 C7         -3.5365    1.9402    0.0294 C.ar      1 <0>         0.2531
     11 C8         -3.5759    3.3348    0.0371 C.ar      1 <0>        -0.2475
     12 C9         -2.3669    4.0310    0.0352 C.ar      1 <0>         0.2558
     13 N3         -1.2254    3.3449    0.0260 N.ar      1 <0>        -0.5513
     14 C10        -2.3531    5.5141    0.0427 C.ar      1 <0>        -0.0624
     15 C11        -3.5520    6.2248    0.0465 C.ar      1 <0>        -0.0892
     16 C12        -3.5330    7.6047    0.0598 C.ar      1 <0>        -0.1241
     17 C13        -2.3271    8.2825    0.0568 C.ar      1 <0>        -0.0990
     18 C14        -1.1342    7.5823    0.0473 C.ar      1 <0>        -0.1270
     19 C15        -1.1410    6.2023    0.0402 C.ar      1 <0>        -0.0704
     20 C16        -4.7930    1.1523    0.0306 C.ar      1 <0>        -0.0655
     21 C17        -6.0261    1.8019    0.0453 C.ar      1 <0>        -0.0897
     22 C18        -7.1921    1.0636    0.0401 C.ar      1 <0>        -0.1279
     23 C19        -7.1386   -0.3186    0.0328 C.ar      1 <0>        -0.0983
     24 C20        -5.9176   -0.9688    0.0240 C.ar      1 <0>        -0.1290
     25 C21        -4.7452   -0.2407    0.0228 C.ar      1 <0>        -0.0639
     26 H1          0.4817   -2.5139   -0.9061 H         1 <0>         0.0646
     27 H2          2.0093   -2.7797   -0.0321 H         1 <0>         0.0669
     28 H3          0.4987   -2.5235    0.8738 H         1 <0>         0.0646
     29 H4          2.2871    0.7217   -1.2652 H         1 <0>         0.0603
     30 H5          3.0537   -0.8846   -1.2812 H         1 <0>         0.0748
     31 H6          1.5260   -0.6188   -2.1552 H         1 <0>         0.0635
     32 H7          1.5669   -0.6418    2.1230 H         1 <0>         0.0636
     33 H8          3.0775   -0.8980    1.2172 H         1 <0>         0.0747
     34 H9          2.3109    0.7083    1.2331 H         1 <0>         0.0603
     35 H10         0.8172    1.8399    0.0041 H         1 <0>         0.4224
     36 H11        -4.5184    3.8620    0.0448 H         1 <0>         0.1512
     37 H12        -4.4940    5.6967    0.0436 H         1 <0>         0.1285
     38 H13        -4.4614    8.1565    0.0679 H         1 <0>         0.1297
     39 H14        -2.3170    9.3624    0.0623 H         1 <0>         0.1270
     40 H15        -0.1956    8.1166    0.0450 H         1 <0>         0.1285
     41 H16        -0.2090    5.6566    0.0332 H         1 <0>         0.1356
     42 H17        -6.0690    2.8810    0.0563 H         1 <0>         0.1271
     43 H18        -8.1481    1.5660    0.0463 H         1 <0>         0.1287
     44 H19        -8.0535   -0.8924    0.0337 H         1 <0>         0.1261
     45 H20        -5.8817   -2.0481    0.0183 H         1 <0>         0.1278
     46 H21        -3.7925   -0.7493    0.0155 H         1 <0>         0.1442
@<TRIPOS>BOND
     1    1    2 1
     2    1   26 1
     3    1   27 1
     4    1   28 1
     5    2    3 1
     6    2    4 1
     7    2    5 1
     8    3   29 1
     9    3   30 1
    10    3   31 1
    11    4   32 1
    12    4   33 1
    13    4   34 1
    14    5    6 2
    15    5    7 am
    16    7    8 1
    17    7   35 1
    18    8   13 ar
    19    8    9 ar
    20    9   10 ar
    21   10   11 ar
    22   10   20 1
    23   11   12 ar
    24   11   36 1
    25   12   13 ar
    26   12   14 1
    27   14   19 ar
    28   14   15 ar
    29   15   16 ar
    30   15   37 1
    31   16   17 ar
    32   16   38 1
    33   17   18 ar
    34   17   39 1
    35   18   19 ar
    36   18   40 1
    37   19   41 1
    38   20   25 ar
    39   20   21 ar
    40   21   22 ar
    41   21   42 1
    42   22   23 ar
    43   22   43 1
    44   23   24 ar
    45   23   44 1
    46   24   25 ar
    47   24   45 1
    48   25   46 1
@<TRIPOS>MOLECULE
ZINC03888482
   31    34     0     0     0
SMALL
USER_CHARGES

@<TRIPOS>ATOM
      1 C1         -0.0167    1.3786    0.0096 C.ar      1 <0>        -0.1145
      2 C2          1.1696    2.0892    0.0021 C.ar      1 <0>        -0.0969
      3 C3          2.3774    1.4193   -0.0134 C.ar      1 <0>        -0.1056
      4 C4          2.3995    0.0309   -0.0211 C.ar      1 <0>         0.1273
      5 C5          1.2066   -0.6797   -0.0130 C.ar      1 <0>        -0.1245
      6 C6          0.0021   -0.0041    0.0020 C.ar      1 <0>        -0.0957
      7 N1          3.6230   -0.6515   -0.0373 N.pl3     1 <0>        -0.2281
      8 C7          3.7420   -1.9988   -0.0511 C.2       1 <0>         0.0165
      9 C8          5.0688   -2.2798   -0.0651 C.2       1 <0>        -0.1355
     10 C9          5.9141   -3.4864   -0.0843 C.ar      1 <0>        -0.0461
     11 C10         5.3454   -4.7574   -0.0920 C.ar      1 <0>        -0.0729
     12 C11         6.1553   -5.8735   -0.1104 C.ar      1 <0>        -0.1389
     13 C12         7.5333   -5.7324   -0.1206 C.ar      1 <0>        -0.0801
     14 C13         8.1088   -4.4793   -0.1131 C.ar      1 <0>        -0.1518
     15 C14         7.3091   -3.3407   -0.0951 C.ar      1 <0>         0.1689
     16 N2          7.9026   -2.0866   -0.0887 N.am      1 <0>        -0.6362
     17 C15         7.2025   -0.9390   -0.0716 C.2       1 <0>         0.6082
     18 C16         5.7344   -0.9669   -0.0584 C.2       1 <0>        -0.0115
     19 N3          4.7727   -0.0747   -0.0465 N.2       1 <0>        -0.2076
     20 O1          7.7880    0.1276   -0.0670 O.2       1 <0>        -0.5060
     21 H1         -0.9598    1.9047    0.0260 H         1 <0>         0.1336
     22 H2          1.1517    3.1690    0.0080 H         1 <0>         0.1374
     23 H3          3.3035    1.9748   -0.0200 H         1 <0>         0.1431
     24 H4          1.2206   -1.7596   -0.0193 H         1 <0>         0.1350
     25 H5         -0.9261   -0.5562    0.0079 H         1 <0>         0.1380
     26 H6          2.9338   -2.7151   -0.0509 H         1 <0>         0.1940
     27 H7          4.2712   -4.8690   -0.0833 H         1 <0>         0.1308
     28 H8          5.7143   -6.8594   -0.1164 H         1 <0>         0.1308
     29 H9          8.1617   -6.6106   -0.1343 H         1 <0>         0.1323
     30 H10         9.1843   -4.3813   -0.1209 H         1 <0>         0.1342
     31 H11         8.8712   -2.0353   -0.0967 H         1 <0>         0.4220
@<TRIPOS>BOND
     1    1    6 ar
     2    1    2 ar
     3    1   21 1
     4    2    3 ar
     5    2   22 1
     6    3    4 ar
     7    3   23 1
     8    4    5 ar
     9    4    7 1
    10    5    6 ar
    11    5   24 1
    12    6   25 1
    13    7   19 1
    14    7    8 1
    15    8    9 2
    16    8   26 1
    17    9   18 1
    18    9   10 1
    19   10   15 ar
    20   10   11 ar
    21   11   12 ar
    22   11   27 1
    23   12   13 ar
    24   12   28 1
    25   13   14 ar
    26   13   29 1
    27   14   15 ar
    28   14   30 1
    29   15   16 1
    30   16   17 am
    31   16   31 1
    32   17   18 1
    33   17   20 2
    34   18   19 2
@<TRIPOS>MOLECULE
ZINC23360505
   49    52     0     0     0
SMALL
USER_CHARGES

@<TRIPOS>ATOM
      1 C1         -0.0124    1.4656    0.0037 C.3       1 <0>        -0.0458
      2 N1          0.0067   -0.0032   -0.0036 N.4       1 <0>        -0.3893
      3 C2          0.6936   -0.4777   -1.2121 C.3       1 <0>        -0.0014
      4 C3          0.6972   -2.0078   -1.2295 C.3       1 <0>         0.0267
      5 N2          1.3814   -2.5070   -0.0283 N.3       1 <0>        -0.5235
      6 C4          0.7195   -2.0195    1.1900 C.3       1 <0>         0.0173
      7 C5          0.7157   -0.4893    1.1875 C.3       1 <0>         0.0006
      8 C6          1.4557   -3.9741   -0.0361 C.3       1 <0>         0.0379
      9 C7          2.3678   -4.4368    1.0706 C.2       1 <0>         0.5069
     10 O1          2.9033   -3.6245    1.7945 O.2       1 <0>        -0.4476
     11 N3          2.5885   -5.7534    1.2559 N.am      1 <0>        -0.6509
     12 C8          3.5107   -6.1769    2.2072 C.ar      1 <0>         0.4340
     13 C9          3.8235   -7.5290    2.3340 C.ar      1 <0>        -0.2633
     14 C10         4.7511   -7.9079    3.2986 C.ar      1 <0>         0.4597
     15 N4          5.3068   -6.9755    4.0643 N.ar      1 <0>        -0.5486
     16 C11         4.9862   -5.6952    3.9172 C.ar      1 <0>         0.4662
     17 N5          4.1087   -5.2973    3.0027 N.ar      1 <0>        -0.5093
     18 C12         5.6249   -4.6891    4.7873 C.2       1 <0>         0.0102
     19 C13         5.3957   -3.3481    4.7594 C.2       1 <0>        -0.1161
     20 C14         6.2122   -2.7766    5.7532 C.2       1 <0>        -0.2284
     21 C15         6.8933   -3.7855    6.3337 C.2       1 <0>         0.0021
     22 O2          6.5322   -4.9390    5.7517 O.3       1 <0>        -0.1521
     23 N6          5.0937   -9.2518    3.4604 N.pl3     1 <0>        -0.3369
     24 C16         5.9771   -9.7496    4.3651 C.2       1 <0>         0.0828
     25 C17         6.0227  -11.0909    4.1970 C.2       1 <0>        -0.2519
     26 C18         5.1433  -11.4264    3.1607 C.2       1 <0>         0.0814
     27 N7          4.5835  -10.3283    2.7232 N.2       1 <0>        -0.2854
     28 H1          1.0105    1.8423   -0.0032 H         1 <0>         0.1237
     29 H2         -0.5385    1.8266   -0.8801 H         1 <0>         0.1243
     30 H3         -0.5232    1.8179    0.8998 H         1 <0>         0.1245
     31 H4          0.1741   -0.1055   -2.0951 H         1 <0>         0.1380
     32 H5          1.7204   -0.1119   -1.2136 H         1 <0>         0.1392
     33 H6         -0.3294   -2.3738   -1.2418 H         1 <0>         0.0640
     34 H7          1.2199   -2.3602   -2.1187 H         1 <0>         0.1263
     35 H8         -0.3068   -2.3857    1.2176 H         1 <0>         0.0588
     36 H9          1.2584   -2.3805    2.0660 H         1 <0>         0.1394
     37 H10         1.7424   -0.1235    1.1736 H         1 <0>         0.1404
     38 H11         0.2125   -0.1257    2.0834 H         1 <0>         0.1367
     39 H12         0.4594   -4.3891    0.1167 H         1 <0>         0.0830
     40 H13         1.8472   -4.3130   -0.9953 H         1 <0>         0.1246
     41 H14         2.1042   -6.4056    0.7259 H         1 <0>         0.4267
     42 H15         3.3558   -8.2660    1.6980 H         1 <0>         0.1652
     43 H16         4.7184   -2.8236    4.1016 H         1 <0>         0.1631
     44 H17         6.2805   -1.7283    6.0035 H         1 <0>         0.1581
     45 H18         7.6079   -3.6824    7.1370 H         1 <0>         0.2141
     46 H19         6.5409   -9.1779    5.0873 H         1 <0>         0.1877
     47 H20         6.6305  -11.7815    4.7627 H         1 <0>         0.1644
     48 H21         4.9558  -12.4228    2.7888 H         1 <0>         0.2008
     49 H22        -0.9402   -0.3517    0.0033 H         1 <0>         0.4218
@<TRIPOS>BOND
     1    1    2 1
     2    1   28 1
     3    1   29 1
     4    1   30 1
     5    2    7 1
     6    2    3 1
     7    2   49 1
     8    3    4 1
     9    3   31 1
    10    3   32 1
    11    4    5 1
    12    4   33 1
    13    4   34 1
    14    5    6 1
    15    5    8 1
    16    6    7 1
    17    6   35 1
    18    6   36 1
    19    7   37 1
    20    7   38 1
    21    8    9 1
    22    8   39 1
    23    8   40 1
    24    9   10 2
    25    9   11 am
    26   11   12 1
    27   11   41 1
    28   12   17 ar
    29   12   13 ar
    30   13   14 ar
    31   13   42 1
    32   14   15 ar
    33   14   23 1
    34   15   16 ar
    35   16   17 ar
    36   16   18 1
    37   18   22 1
    38   18   19 2
    39   19   20 1
    40   19   43 1
    41   20   21 2
    42   20   44 1
    43   21   22 1
    44   21   45 1
    45   23   27 1
    46   23   24 1
    47   24   25 2
    48   24   46 1
    49   25   26 1
    50   25   47 1
    51   26   27 2
    52   26   48 1
@<TRIPOS>MOLECULE
ZINC07992852
   48    51     0     0     0
SMALL
USER_CHARGES

@<TRIPOS>ATOM
      1 C1         -0.0187    1.5258    0.0104 C.3       1 <0>        -0.1723
      2 C2          0.0021   -0.0041    0.0020 C.3       1 <0>         0.1052
      3 C3          0.8355   -0.5277   -1.1890 C.3       1 <0>         0.0527
      4 H1          1.2327    0.3034   -1.7719 H         1 <0>         0.0877
      5 C4          1.9830   -1.3202   -0.5246 C.3       1 <0>         0.0503
      6 H2          1.7288   -2.3785   -0.4657 H         1 <0>         0.1004
      7 O1          2.1017   -0.7570    0.8000 O.3       1 <0>        -0.3457
      8 C5          0.7447   -0.5422    1.2451 C.3       1 <0>         0.3187
      9 H3          0.3006   -1.4812    1.5755 H         1 <0>         0.1234
     10 N1          0.7130    0.4464    2.3258 N.pl3     1 <0>        -0.4638
     11 C6          1.6771    1.3697    2.6032 C.2       1 <0>         0.2687
     12 N2          1.3234    2.0871    3.6296 N.2       1 <0>        -0.4558
     13 C7          0.1133    1.6712    4.0751 C.ar      1 <0>        -0.1045
     14 C8         -0.2951    0.6169    3.2407 C.ar      1 <0>         0.3265
     15 N3         -1.4663    0.0307    3.4663 N.ar      1 <0>        -0.5350
     16 C9         -2.2381    0.4316    4.4562 C.ar      1 <0>         0.4311
     17 N4         -1.8975    1.4200    5.2648 N.ar      1 <0>        -0.5725
     18 C10        -0.7418    2.0601    5.1200 C.ar      1 <0>         0.5223
     19 N5         -0.3945    3.0949    5.9708 N.pl3     1 <0>        -0.6802
     20 C11        -1.2987    3.4867    7.0548 C.3       1 <0>         0.1433
     21 C12        -2.3106    4.5342    6.5464 C.3       1 <0>        -0.1339
     22 C13        -2.4905    5.5007    7.7433 C.3       1 <0>        -0.1246
     23 C14        -1.0593    5.5899    8.3288 C.3       1 <0>        -0.1247
     24 C15        -0.5031    4.1579    8.1881 C.3       1 <0>        -0.1333
     25 Cl1        -3.7586   -0.3676    4.7073 Cl        1 <0>         0.0344
     26 C16         3.2845   -1.1288   -1.3059 C.3       1 <0>         0.0825
     27 O2          4.3032   -1.9594   -0.7452 O.3       1 <0>        -0.5632
     28 O3          0.0446   -1.3843   -2.0154 O.3       1 <0>        -0.5387
     29 O4         -1.3290   -0.5213   -0.0489 O.3       1 <0>        -0.5199
     30 H4          1.0039    1.9031    0.0027 H         1 <0>         0.0734
     31 H5         -0.5459    1.8868   -0.8726 H         1 <0>         0.0736
     32 H6         -0.5289    1.8773    0.9072 H         1 <0>         0.0703
     33 H7          2.5986    1.4880    2.0524 H         1 <0>         0.2247
     34 H8          0.4476    3.5607    5.8493 H         1 <0>         0.4193
     35 H9         -1.8255    2.6118    7.4359 H         1 <0>         0.0998
     36 H10        -1.9085    5.0658    5.6839 H         1 <0>         0.0682
     37 H11        -3.2583    4.0583    6.2946 H         1 <0>         0.0746
     38 H12        -2.8301    6.4787    7.4024 H         1 <0>         0.0690
     39 H13        -3.1822    5.0841    8.4756 H         1 <0>         0.0710
     40 H14        -0.4552    6.2920    7.7541 H         1 <0>         0.0669
     41 H15        -1.0939    5.8844    9.3777 H         1 <0>         0.0695
     42 H16        -0.6445    3.6093    9.1193 H         1 <0>         0.0779
     43 H17         0.5557    4.1921    7.9315 H         1 <0>         0.0716
     44 H18         3.1257   -1.4026   -2.3490 H         1 <0>         0.0672
     45 H19         3.5934   -0.0852   -1.2472 H         1 <0>         0.0609
     46 H20         5.1580   -1.8893   -1.1919 H         1 <0>         0.3869
     47 H21         0.5186   -1.7415   -2.7788 H         1 <0>         0.3873
     48 H22        -1.8314   -0.2387   -0.8254 H         1 <0>         0.3888
@<TRIPOS>BOND
     1    1    2 1
     2    1   30 1
     3    1   31 1
     4    1   32 1
     5    2    8 1
     6    2    3 1
     7    2   29 1
     8    3    4 1
     9    3    5 1
    10    3   28 1
    11    5    6 1
    12    5    7 1
    13    5   26 1
    14    7    8 1
    15    8    9 1
    16    8   10 1
    17   10   14 1
    18   10   11 1
    19   11   12 2
    20   11   33 1
    21   12   13 1
    22   13   18 ar
    23   13   14 ar
    24   14   15 ar
    25   15   16 ar
    26   16   17 ar
    27   16   25 1
    28   17   18 ar
    29   18   19 1
    30   19   20 1
    31   19   34 1
    32   20   24 1
    33   20   21 1
    34   20   35 1
    35   21   22 1
    36   21   36 1
    37   21   37 1
    38   22   23 1
    39   22   38 1
    40   22   39 1
    41   23   24 1
    42   23   40 1
    43   23   41 1
    44   24   42 1
    45   24   43 1
    46   26   27 1
    47   26   44 1
    48   26   45 1
    49   27   46 1
    50   28   47 1
    51   29   48 1
@<TRIPOS>MOLECULE
ZINC23360511
   55    58     0     0     0
SMALL
USER_CHARGES

@<TRIPOS>ATOM
      1 C1         -0.0267    1.5052    0.0151 C.3       1 <0>        -0.0782
      2 C2         -0.0056   -0.0017    0.0058 C.2       1 <0>         0.1079
      3 C3         -0.0008   -0.8138   -1.1344 C.2       1 <0>        -0.2564
      4 C4          0.0197   -2.1036   -0.7279 C.2       1 <0>         0.1178
      5 N1          0.0275   -2.1063    0.6310 N.pl3     1 <0>        -0.3382
      6 N2          0.0170   -0.7732    1.0617 N.2       1 <0>        -0.2875
      7 C5          0.0480   -3.2358    1.4515 C.ar      1 <0>         0.4609
      8 C6          0.5563   -3.1581    2.7443 C.ar      1 <0>        -0.2595
      9 C7          0.5575   -4.3096    3.5284 C.ar      1 <0>         0.4330
     10 N3          0.0763   -5.4388    3.0203 N.ar      1 <0>        -0.5073
     11 C8         -0.4013   -5.4769    1.7816 C.ar      1 <0>         0.4621
     12 N4         -0.4223   -4.3964    1.0094 N.ar      1 <0>        -0.5426
     13 C9         -0.9273   -6.7498    1.2522 C.2       1 <0>         0.0104
     14 C10        -0.9826   -7.9322    1.9236 C.2       1 <0>        -0.1162
     15 C11        -1.5534   -8.8712    1.0442 C.2       1 <0>        -0.2281
     16 C12        -1.8163   -8.2240   -0.1094 C.2       1 <0>         0.0022
     17 O1         -1.4420   -6.9424    0.0217 O.3       1 <0>        -0.1524
     18 N5          1.0565   -4.2775    4.8264 N.am      1 <0>        -0.6509
     19 C13         0.9605   -5.3681    5.6124 C.2       1 <0>         0.5069
     20 O2          0.5235   -6.4050    5.1601 O.2       1 <0>        -0.4475
     21 C14         1.3961   -5.2991    7.0534 C.3       1 <0>         0.0377
     22 N6          1.1926   -6.6074    7.6897 N.3       1 <0>        -0.5232
     23 C15        -0.2378   -6.9335    7.7777 C.3       1 <0>         0.0172
     24 C16        -0.4038   -8.3259    8.3902 C.3       1 <0>         0.0007
     25 N7          0.2042   -8.3485    9.7272 N.4       1 <0>        -0.3894
     26 C17         1.6375   -8.0453    9.6203 C.3       1 <0>        -0.0013
     27 C18         1.8204   -6.6505    9.0180 C.3       1 <0>         0.0266
     28 C19         0.0288   -9.6802   10.3221 C.3       1 <0>        -0.0457
     29 C20         0.0308   -3.3179   -1.6203 C.3       1 <0>        -0.1095
     30 H1          0.9957    1.8829    0.0063 H         1 <0>         0.0856
     31 H2         -0.5551    1.8665   -0.8672 H         1 <0>         0.0861
     32 H3         -0.5360    1.8559    0.9127 H         1 <0>         0.0777
     33 H4         -0.0118   -0.4708   -2.1584 H         1 <0>         0.1617
     34 H5          0.9415   -2.2262    3.1312 H         1 <0>         0.1627
     35 H6         -0.6519   -8.1148    2.9353 H         1 <0>         0.1630
     36 H7         -1.7447   -9.9133    1.2536 H         1 <0>         0.1579
     37 H8         -2.2587   -8.6635   -0.9911 H         1 <0>         0.2140
     38 H9          1.4736   -3.4703    5.1659 H         1 <0>         0.4267
     39 H10         2.4518   -5.0321    7.1014 H         1 <0>         0.1241
     40 H11         0.8066   -4.5455    7.5756 H         1 <0>         0.0836
     41 H12        -0.7407   -6.1978    8.4053 H         1 <0>         0.0586
     42 H13        -0.6758   -6.9207    6.7796 H         1 <0>         0.1393
     43 H14        -1.4645   -8.5639    8.4695 H         1 <0>         0.1366
     44 H15         0.0875   -9.0631    7.7552 H         1 <0>         0.1405
     45 H16         2.0900   -8.0752   10.6115 H         1 <0>         0.1380
     46 H17         2.1183   -8.7839    8.9790 H         1 <0>         0.1393
     47 H18         2.8840   -6.4312    8.9248 H         1 <0>         0.1263
     48 H19         1.3515   -5.9101    9.6661 H         1 <0>         0.0639
     49 H20         0.5110  -10.4265    9.6909 H         1 <0>         0.1237
     50 H21         0.4799   -9.6971   11.3142 H         1 <0>         0.1243
     51 H22        -1.0347   -9.9049   10.4027 H         1 <0>         0.1245
     52 H23         1.0610   -3.5967   -1.8416 H         1 <0>         0.0792
     53 H24        -0.4688   -4.1446   -1.1153 H         1 <0>         0.1030
     54 H25        -0.4917   -3.0907   -2.5495 H         1 <0>         0.0888
     55 H26        -0.2428   -7.6580   10.3114 H         1 <0>         0.4218
@<TRIPOS>BOND
     1    1    2 1
     2    1   30 1
     3    1   31 1
     4    1   32 1
     5    2    6 2
     6    2    3 1
     7    3    4 2
     8    3   33 1
     9    4    5 1
    10    4   29 1
    11    5    6 1
    12    5    7 1
    13    7   12 ar
    14    7    8 ar
    15    8    9 ar
    16    8   34 1
    17    9   10 ar
    18    9   18 1
    19   10   11 ar
    20   11   12 ar
    21   11   13 1
    22   13   17 1
    23   13   14 2
    24   14   15 1
    25   14   35 1
    26   15   16 2
    27   15   36 1
    28   16   17 1
    29   16   37 1
    30   18   19 am
    31   18   38 1
    32   19   20 2
    33   19   21 1
    34   21   22 1
    35   21   39 1
    36   21   40 1
    37   22   27 1
    38   22   23 1
    39   23   24 1
    40   23   41 1
    41   23   42 1
    42   24   25 1
    43   24   43 1
    44   24   44 1
    45   25   26 1
    46   25   28 1
    47   25   55 1
    48   26   27 1
    49   26   45 1
    50   26   46 1
    51   27   47 1
    52   27   48 1
    53   28   49 1
    54   28   50 1
    55   28   51 1
    56   29   52 1
    57   29   53 1
    58   29   54 1
@<TRIPOS>MOLECULE
ZINC29047358
   22    24     0     0     0
SMALL
USER_CHARGES
4-(2-furyl)-1H-pyrazolo[3,4-d]pyrimidin-6-amine
@<TRIPOS>ATOM
      1 C1         -4.6414    1.9337    0.4461 C.2       1 <0>        -0.2205
      2 C2         -3.4578    2.6502    0.6990 C.2       1 <0>        -0.1310
      3 C3         -2.4558    1.9945    0.0481 C.2       1 <0>        -0.0014
      4 O1         -2.9922    0.9297   -0.5808 O.3       1 <0>        -0.1613
      5 C4         -4.3108    0.8865   -0.3380 C.2       1 <0>        -0.0096
      6 C5         -1.0364    2.3846    0.0299 C.ar      1 <0>         0.3835
      7 C6         -0.0170    1.4060    0.0098 C.ar      1 <0>        -0.3216
      8 C7          0.0021   -0.0041    0.0020 C.2       1 <0>         0.1175
      9 N1          1.2431   -0.4007   -0.0119 N.2       1 <0>        -0.2586
     10 N2          2.0942    0.7116   -0.0141 N.pl3     1 <0>        -0.4968
     11 H1          3.1849    0.5695   -0.0253 H         1 <0>         0.4781
     12 C8          1.3245    1.8375   -0.0007 C.ar      1 <0>         0.4067
     13 N3          1.5809    3.1437    0.0038 N.ar      1 <0>        -0.6027
     14 C9          0.5957    4.0260    0.0180 C.ar      1 <0>         0.6222
     15 N4         -0.6817    3.6687    0.0278 N.ar      1 <0>        -0.5733
     16 N5          0.9097    5.3742    0.0222 N.pl3     1 <0>        -0.8354
     17 H2         -5.6286    2.1759    0.8111 H         1 <0>         0.1569
     18 H3         -3.3616    3.5467    1.2933 H         1 <0>         0.1574
     19 H4         -4.9954    0.1396   -0.7120 H         1 <0>         0.2125
     20 H5         -0.8658   -0.6469    0.0063 H         1 <0>         0.1945
     21 H6          0.1067    6.1259    0.0339 H         1 <0>         0.4420
     22 H7          1.9622    5.6938    0.0138 H         1 <0>         0.4408
@<TRIPOS>BOND
     1    1    5 2
     2    1    2 1
     3    1   17 1
     4    2    3 2
     5    2   18 1
     6    3    4 1
     7    3    6 1
     8    4    5 1
     9    5   19 1
    10    6   15 ar
    11    6    7 ar
    12    7   12 ar
    13    7    8 1
    14    8    9 2
    15    8   20 1
    16    9   10 1
    17   10   11 1
    18   10   12 1
    19   12   13 ar
    20   13   14 ar
    21   14   15 ar
    22   14   16 1
    23   16   21 1
    24   16   22 1
@<TRIPOS>MOLECULE
ZINC03098930
   33    35     0     0     0
SMALL
USER_CHARGES

@<TRIPOS>ATOM
      1 C1         -0.0167    1.3792    0.0096 C.ar      1 <0>        -0.0942
      2 C2          1.1685    2.0928    0.0021 C.ar      1 <0>        -0.1250
      3 C3          2.3774    1.4277   -0.0130 C.ar      1 <0>        -0.0639
      4 C4          2.4029    0.0333   -0.0207 C.ar      1 <0>        -0.0721
      5 C5          1.2046   -0.6805   -0.0131 C.ar      1 <0>        -0.0887
      6 C6          0.0021   -0.0041    0.0020 C.ar      1 <0>        -0.1206
      7 C7          3.6972   -0.6868   -0.0375 C.ar      1 <0>         0.3137
      8 C8          3.8455   -1.9109    0.6459 C.ar      1 <0>        -0.2121
      9 C9          5.1012   -2.5516    0.5944 C.ar      1 <0>         0.4965
     10 N1          6.0850   -1.9807   -0.0901 N.ar      1 <0>        -0.5726
     11 C10         5.9009   -0.8275   -0.7185 C.ar      1 <0>         0.4416
     12 N2          4.7373   -0.1924   -0.7018 N.ar      1 <0>        -0.5420
     13 C11         7.0319   -0.2315   -1.4686 C.ar      1 <0>        -0.0612
     14 C12         6.8680    0.9829   -2.1337 C.ar      1 <0>        -0.0611
     15 C13         7.9246    1.5329   -2.8304 C.ar      1 <0>        -0.1332
     16 C14         9.1444    0.8815   -2.8701 C.ar      1 <0>        -0.0908
     17 C15         9.3129   -0.3237   -2.2121 C.ar      1 <0>        -0.1339
     18 C16         8.2654   -0.8803   -1.5070 C.ar      1 <0>        -0.0625
     19 N3          5.3036   -3.7520    1.2452 N.pl3     1 <0>        -0.8188
     20 C17         2.7535   -2.4868    1.3715 C.1       1 <0>         0.2633
     21 N4          1.8873   -2.9437    1.9472 N.1       1 <0>        -0.4064
     22 H1         -0.9604    1.9042    0.0260 H         1 <0>         0.1289
     23 H2          1.1475    3.1726    0.0078 H         1 <0>         0.1317
     24 H3          3.3020    1.9858   -0.0192 H         1 <0>         0.1354
     25 H4          1.2180   -1.7604   -0.0194 H         1 <0>         0.1229
     26 H5         -0.9264   -0.5557    0.0079 H         1 <0>         0.1295
     27 H6          5.9160    1.4920   -2.1039 H         1 <0>         0.1397
     28 H7          7.7989    2.4735   -3.3460 H         1 <0>         0.1298
     29 H8          9.9682    1.3154   -3.4173 H         1 <0>         0.1267
     30 H9         10.2674   -0.8278   -2.2469 H         1 <0>         0.1291
     31 H10         8.3995   -1.8188   -0.9897 H         1 <0>         0.1375
     32 H11         4.5792   -4.1619    1.7434 H         1 <0>         0.4154
     33 H12         6.1704   -4.1857    1.2045 H         1 <0>         0.4171
@<TRIPOS>BOND
     1    1    6 ar
     2    1    2 ar
     3    1   22 1
     4    2    3 ar
     5    2   23 1
     6    3    4 ar
     7    3   24 1
     8    4    5 ar
     9    4    7 1
    10    5    6 ar
    11    5   25 1
    12    6   26 1
    13    7   12 ar
    14    7    8 ar
    15    8    9 ar
    16    8   20 1
    17    9   10 ar
    18    9   19 1
    19   10   11 ar
    20   11   12 ar
    21   11   13 1
    22   13   18 ar
    23   13   14 ar
    24   14   15 ar
    25   14   27 1
    26   15   16 ar
    27   15   28 1
    28   16   17 ar
    29   16   29 1
    30   17   18 ar
    31   17   30 1
    32   18   31 1
    33   19   32 1
    34   19   33 1
    35   20   21 3
@<TRIPOS>MOLECULE
ZINC29055563
   53    56     0     0     0
SMALL
USER_CHARGES
3-ethyl-1-propyl-8-[1-[[3-(trifluoromethyl)phenyl]methyl]pyrazol-4-yl]-7H-purine-2,6-dione
@<TRIPOS>ATOM
      1 C1         -0.0187    1.5258    0.0104 C.3       1 <0>        -0.1489
      2 C2          0.0021   -0.0041    0.0020 C.3       1 <0>        -0.1381
      3 C3         -1.4333   -0.5336    0.0129 C.3       1 <0>         0.1117
      4 N1         -1.4134   -1.9985    0.0048 N.am      1 <0>        -0.5489
      5 C4         -1.3932   -2.6689    1.1753 C.2       1 <0>         0.5944
      6 O1         -1.3919   -2.0629    2.2323 O.2       1 <0>        -0.5168
      7 C5         -1.3742   -4.0778    1.1621 C.2       1 <0>        -0.1634
      8 C6         -1.3766   -4.7448   -0.0587 C.2       1 <0>         0.3274
      9 N2         -1.3564   -6.0527    0.1965 N.2       1 <0>        -0.4986
     10 C7         -1.3413   -6.2555    1.4997 C.2       1 <0>         0.4025
     11 N3         -1.3516   -5.0547    2.1422 N.pl3     1 <0>        -0.5320
     12 H1         -1.3455   -4.7682    3.2042 H         1 <0>         0.4674
     13 C8         -1.3175   -7.5770    2.1586 C.2       1 <0>        -0.1985
     14 C9         -1.2954   -7.8190    3.5493 C.2       1 <0>         0.0792
     15 N4         -1.2825   -9.1108    3.7354 N.2       1 <0>        -0.2789
     16 N5         -1.2853   -9.7474    2.4891 N.pl3     1 <0>        -0.3571
     17 C10        -1.3068   -8.8040    1.5301 C.2       1 <0>         0.1292
     18 C11        -1.2675  -11.1952    2.2665 C.3       1 <0>         0.1705
     19 C12        -0.0888  -11.7995    2.9853 C.ar      1 <0>        -0.1168
     20 C13        -0.2241  -12.2350    4.2904 C.ar      1 <0>        -0.0490
     21 C14         0.8569  -12.7891    4.9497 C.ar      1 <0>        -0.1207
     22 C15         2.0734  -12.9088    4.3036 C.ar      1 <0>        -0.0589
     23 C16         2.2085  -12.4742    2.9986 C.ar      1 <0>        -0.1852
     24 C17         1.1260  -11.9235    2.3378 C.ar      1 <0>        -0.0482
     25 C18         3.5343  -12.6051    2.2942 C.3       1 <0>         0.5084
     26 F1          4.4657  -13.1906    3.1584 F         1 <0>        -0.1755
     27 F2          3.3820  -13.4086    1.1591 F         1 <0>        -0.1752
     28 F3          3.9860  -11.3377    1.9112 F         1 <0>        -0.1752
     29 N6         -1.3975   -3.9988   -1.2270 N.am      1 <0>        -0.5083
     30 C19        -1.4212   -2.6540   -1.1686 C.2       1 <0>         0.7075
     31 O2         -1.4445   -2.0161   -2.2036 O.2       1 <0>        -0.5327
     32 C20        -1.4006   -4.6747   -2.5267 C.3       1 <0>         0.1139
     33 C21        -2.8439   -4.9293   -2.9657 C.3       1 <0>        -0.1690
     34 H2          1.0133    1.9066    0.0026 H         1 <0>         0.0615
     35 H3         -0.5336    1.8805    0.9154 H         1 <0>         0.0592
     36 H4         -0.5508    1.8901   -0.8808 H         1 <0>         0.0600
     37 H5          0.5170   -0.3588   -0.9030 H         1 <0>         0.0692
     38 H6          0.5342   -0.3685    0.8931 H         1 <0>         0.0677
     39 H7         -1.9481   -0.1788    0.9180 H         1 <0>         0.1021
     40 H8         -1.9654   -0.1691   -0.8782 H         1 <0>         0.1035
     41 H9         -1.2928   -7.0665    4.3240 H         1 <0>         0.1886
     42 H10        -1.3142   -8.9763    0.4640 H         1 <0>         0.1928
     43 H11        -2.1981  -11.6369    2.6523 H         1 <0>         0.1082
     44 H12        -1.1839  -11.3995    1.1889 H         1 <0>         0.1173
     45 H13        -1.1745  -12.1419    4.7950 H         1 <0>         0.1370
     46 H14         0.7513  -13.1290    5.9694 H         1 <0>         0.1401
     47 H15         2.9180  -13.3421    4.8186 H         1 <0>         0.1417
     48 H16         1.2306  -11.5874    1.3168 H         1 <0>         0.1346
     49 H17        -0.8974   -4.0402   -3.2711 H         1 <0>         0.1003
     50 H18        -0.8684   -5.6337   -2.4426 H         1 <0>         0.0989
     51 H19        -2.8462   -5.4368   -3.9416 H         1 <0>         0.0779
     52 H20        -3.3761   -3.9703   -3.0499 H         1 <0>         0.0617
     53 H21        -3.3471   -5.5638   -2.2212 H         1 <0>         0.0614
@<TRIPOS>BOND
     1    1    2 1
     2    1   34 1
     3    1   35 1
     4    1   36 1
     5    2    3 1
     6    2   37 1
     7    2   38 1
     8    3    4 1
     9    3   39 1
    10    3   40 1
    11    4   30 am
    12    4    5 am
    13    5    6 2
    14    5    7 1
    15    7   11 1
    16    7    8 2
    17    8    9 1
    18    8   29 1
    19    9   10 2
    20   10   11 1
    21   10   13 1
    22   11   12 1
    23   13   17 2
    24   13   14 1
    25   14   15 2
    26   14   41 1
    27   15   16 1
    28   16   17 1
    29   16   18 1
    30   17   42 1
    31   18   19 1
    32   18   43 1
    33   18   44 1
    34   19   24 ar
    35   19   20 ar
    36   20   21 ar
    37   20   45 1
    38   21   22 ar
    39   21   46 1
    40   22   23 ar
    41   22   47 1
    42   23   24 ar
    43   23   25 1
    44   24   48 1
    45   25   26 1
    46   25   27 1
    47   25   28 1
    48   29   30 am
    49   29   32 1
    50   30   31 2
    51   32   33 1
    52   32   49 1
    53   32   50 1
    54   33   51 1
    55   33   52 1
    56   33   53 1
@<TRIPOS>MOLECULE
ZINC00295268
   32    34     0     0     0
SMALL
USER_CHARGES

@<TRIPOS>ATOM
      1 C1         -0.0167    1.3791    0.0096 C.ar      1 <0>        -0.1000
      2 C2          1.1686    2.0922    0.0021 C.ar      1 <0>        -0.1281
      3 C3          2.3774    1.4264   -0.0130 C.ar      1 <0>        -0.0701
      4 C4          2.4024    0.0329   -0.0207 C.ar      1 <0>        -0.0628
      5 C5          1.2050   -0.6804   -0.0131 C.ar      1 <0>        -0.0890
      6 C6          0.0021   -0.0041    0.0020 C.ar      1 <0>        -0.1254
      7 C7          3.6983   -0.6883   -0.0375 C.ar      1 <0>         0.2677
      8 C8          3.7316   -2.0828   -0.0512 C.ar      1 <0>        -0.2732
      9 C9          4.9748   -2.7155   -0.0672 C.ar      1 <0>         0.2677
     10 N1          6.0795   -1.9714   -0.0688 N.ar      1 <0>        -0.5713
     11 C10         6.0076   -0.6496   -0.0555 C.ar      1 <0>         0.5794
     12 N2          4.8466   -0.0135   -0.0453 N.ar      1 <0>        -0.5712
     13 N3          7.1790    0.0881   -0.0578 N.pl3     1 <0>        -0.8210
     14 C11         5.0652   -4.1958   -0.0817 C.ar      1 <0>        -0.0628
     15 C12         3.9045   -4.9674   -0.0852 C.ar      1 <0>        -0.0890
     16 C13         3.9946   -6.3445   -0.0992 C.ar      1 <0>        -0.1254
     17 C14         5.2339   -6.9591   -0.1092 C.ar      1 <0>        -0.0999
     18 C15         6.3891   -6.1983   -0.1058 C.ar      1 <0>        -0.1281
     19 C16         6.3111   -4.8204   -0.0976 C.ar      1 <0>        -0.0701
     20 H1         -0.9603    1.9042    0.0260 H         1 <0>         0.1264
     21 H2          1.1480    3.1720    0.0078 H         1 <0>         0.1279
     22 H3          3.3022    1.9842   -0.0192 H         1 <0>         0.1355
     23 H4          1.2184   -1.7603   -0.0194 H         1 <0>         0.1286
     24 H5         -0.9264   -0.5557    0.0083 H         1 <0>         0.1291
     25 H6          2.8177   -2.6583   -0.0491 H         1 <0>         0.1472
     26 H7          8.0370   -0.3643   -0.0690 H         1 <0>         0.4153
     27 H8          7.1418    1.0573   -0.0482 H         1 <0>         0.4153
     28 H9          2.9365   -4.4887   -0.0767 H         1 <0>         0.1286
     29 H10         3.0959   -6.9434   -0.1019 H         1 <0>         0.1291
     30 H11         5.2997   -8.0370   -0.1194 H         1 <0>         0.1264
     31 H12         7.3540   -6.6834   -0.1133 H         1 <0>         0.1279
     32 H13         7.2136   -4.2273   -0.0991 H         1 <0>         0.1355
@<TRIPOS>BOND
     1    1    6 ar
     2    1    2 ar
     3    1   20 1
     4    2    3 ar
     5    2   21 1
     6    3    4 ar
     7    3   22 1
     8    4    5 ar
     9    4    7 1
    10    5    6 ar
    11    5   23 1
    12    6   24 1
    13    7   12 ar
    14    7    8 ar
    15    8    9 ar
    16    8   25 1
    17    9   10 ar
    18    9   14 1
    19   10   11 ar
    20   11   12 ar
    21   11   13 1
    22   13   26 1
    23   13   27 1
    24   14   19 ar
    25   14   15 ar
    26   15   16 ar
    27   15   28 1
    28   16   17 ar
    29   16   29 1
    30   17   18 ar
    31   17   30 1
    32   18   19 ar
    33   18   31 1
    34   19   32 1
@<TRIPOS>MOLECULE
ZINC28763883
   60    62     0     0     0
SMALL
USER_CHARGES

@<TRIPOS>ATOM
      1 C1         -0.0187    1.5258    0.0104 C.3       1 <0>        -0.1471
      2 C2          0.0021   -0.0041    0.0020 C.3       1 <0>        -0.1387
      3 C3          0.7421   -0.5109    1.2415 C.3       1 <0>         0.1191
      4 N1          0.7619   -1.9757    1.2335 N.am      1 <0>        -0.5089
      5 C4         -0.2660   -2.6852    1.8352 C.2       1 <0>         0.3304
      6 C5         -0.2227   -4.0758    1.8133 C.2       1 <0>        -0.1422
      7 C6          0.8615   -4.7197    1.1820 C.2       1 <0>         0.5924
      8 O1          0.9214   -5.9360    1.1495 O.2       1 <0>        -0.5083
      9 N2          1.8315   -3.9736    0.6140 N.am      1 <0>        -0.5477
     10 C7          1.7755   -2.6309    0.6370 C.2       1 <0>         0.7072
     11 O2          2.6654   -1.9916    0.1098 O.2       1 <0>        -0.5249
     12 C8          2.9605   -4.6372   -0.0428 C.3       1 <0>         0.1129
     13 C9          2.6266   -4.8717   -1.5174 C.3       1 <0>        -0.1374
     14 C10         3.8056   -5.5648   -2.2033 C.3       1 <0>        -0.1480
     15 N3         -1.3547   -4.5134    2.4751 N.pl3     1 <0>        -0.5145
     16 H1         -1.6145   -5.4351    2.6295 H         1 <0>         0.4367
     17 C11        -2.0346   -3.4010    2.8692 C.2       1 <0>         0.3401
     18 N4         -1.3747   -2.3269    2.4814 N.2       1 <0>        -0.4837
     19 C12        -3.3101   -3.3980    3.6137 C.ar      1 <0>        -0.0657
     20 C13        -3.9128   -4.6051    3.9751 C.ar      1 <0>        -0.0542
     21 C14        -5.1027   -4.5980    4.6695 C.ar      1 <0>        -0.1387
     22 C15        -5.7034   -3.3923    5.0099 C.ar      1 <0>         0.1457
     23 C16        -5.1073   -2.1895    4.6519 C.ar      1 <0>        -0.2098
     24 C17        -3.9140   -2.1879    3.9633 C.ar      1 <0>        -0.0207
     25 O3         -6.8764   -3.3895    5.6940 O.3       1 <0>        -0.2870
     26 C18        -7.4391   -2.1150    6.0117 C.3       1 <0>         0.0400
     27 C19        -8.7293   -2.3094    6.7658 C.2       1 <0>         0.5236
     28 O4         -9.1277   -3.4291    7.0073 O.2       1 <0>        -0.4949
     29 N5         -9.4404   -1.2389    7.1718 N.am      1 <0>        -0.7330
     30 C20       -10.6947   -1.4279    7.9048 C.3       1 <0>         0.0930
     31 C21       -11.2971   -0.0632    8.2450 C.3       1 <0>        -0.0193
     32 N6        -12.5548   -0.2527    8.9800 N.4       1 <0>        -0.6320
     33 H2          1.0039    1.9031    0.0027 H         1 <0>         0.0600
     34 H3         -0.5459    1.8868   -0.8726 H         1 <0>         0.0609
     35 H4         -0.5289    1.8773    0.9072 H         1 <0>         0.0576
     36 H5         -1.0205   -0.3814    0.0098 H         1 <0>         0.0670
     37 H6          0.5123   -0.3556   -0.8948 H         1 <0>         0.0690
     38 H7          1.7647   -0.1336    1.2338 H         1 <0>         0.1016
     39 H8          0.2319   -0.1594    2.1383 H         1 <0>         0.0980
     40 H9          3.8466   -4.0071    0.0334 H         1 <0>         0.1045
     41 H10         3.1521   -5.5940    0.4430 H         1 <0>         0.1025
     42 H11         1.7404   -5.5018   -1.5935 H         1 <0>         0.0669
     43 H12         2.4349   -3.9149   -2.0031 H         1 <0>         0.0692
     44 H13         3.5678   -5.7318   -3.2538 H         1 <0>         0.0622
     45 H14         4.6918   -4.9347   -2.1271 H         1 <0>         0.0604
     46 H15         3.9973   -6.5215   -1.7175 H         1 <0>         0.0594
     47 H16        -3.4469   -5.5427    3.7102 H         1 <0>         0.1344
     48 H17        -5.5694   -5.5309    4.9493 H         1 <0>         0.1444
     49 H18        -5.5777   -1.2543    4.9178 H         1 <0>         0.1367
     50 H19        -3.4487   -1.2525    3.6898 H         1 <0>         0.1478
     51 H20        -6.7387   -1.5523    6.6290 H         1 <0>         0.1028
     52 H21        -7.6354   -1.5649    5.0914 H         1 <0>         0.1028
     53 H22        -9.1218   -0.3433    6.9786 H         1 <0>         0.4114
     54 H23       -11.3950   -1.9906    7.2875 H         1 <0>         0.0931
     55 H24       -10.4983   -1.9780    8.8251 H         1 <0>         0.0931
     56 H25       -10.5968    0.4994    8.8622 H         1 <0>         0.1426
     57 H26       -11.4935    0.4868    7.3247 H         1 <0>         0.1426
     58 H27       -13.2031   -0.7736    8.4086 H         1 <0>         0.4398
     59 H28       -12.3731   -0.7620    9.8319 H         1 <0>         0.4398
     60 H29       -12.9521    0.6472    9.2044 H         1 <0>         0.4453
@<TRIPOS>BOND
     1    1    2 1
     2    1   33 1
     3    1   34 1
     4    1   35 1
     5    2    3 1
     6    2   36 1
     7    2   37 1
     8    3    4 1
     9    3   38 1
    10    3   39 1
    11    4   10 am
    12    4    5 1
    13    5   18 1
    14    5    6 2
    15    6    7 1
    16    6   15 1
    17    7    8 2
    18    7    9 am
    19    9   10 am
    20    9   12 1
    21   10   11 2
    22   12   13 1
    23   12   40 1
    24   12   41 1
    25   13   14 1
    26   13   42 1
    27   13   43 1
    28   14   44 1
    29   14   45 1
    30   14   46 1
    31   15   16 1
    32   15   17 1
    33   17   18 2
    34   17   19 1
    35   19   24 ar
    36   19   20 ar
    37   20   21 ar
    38   20   47 1
    39   21   22 ar
    40   21   48 1
    41   22   23 ar
    42   22   25 1
    43   23   24 ar
    44   23   49 1
    45   24   50 1
    46   25   26 1
    47   26   27 1
    48   26   51 1
    49   26   52 1
    50   27   28 2
    51   27   29 am
    52   29   30 1
    53   29   53 1
    54   30   31 1
    55   30   54 1
    56   30   55 1
    57   31   32 1
    58   31   56 1
    59   31   57 1
    60   32   58 1
    61   32   59 1
    62   32   60 1
@<TRIPOS>MOLECULE
ZINC04475274
   62    65     0     0     0
SMALL
USER_CHARGES

@<TRIPOS>ATOM
      1 C1         -0.0642    1.5178    0.0741 C.3       1 <0>        -0.1472
      2 C2         -0.0386   -0.0119    0.0578 C.3       1 <0>        -0.1385
      3 C3          0.6856   -0.4965   -1.1998 C.3       1 <0>         0.1189
      4 N1          0.7101   -1.9612   -1.2154 N.am      1 <0>        -0.5084
      5 C4         -0.3212   -2.6643   -1.8191 C.2       1 <0>         0.3302
      6 C5         -0.2733   -4.0549   -1.8198 C.2       1 <0>        -0.1466
      7 C6          0.8186   -4.7053   -1.2088 C.2       1 <0>         0.5932
      8 O1          0.8829   -5.9217   -1.1971 O.2       1 <0>        -0.5104
      9 N2          1.7915   -3.9653   -0.6378 N.am      1 <0>        -0.5483
     10 C7          1.7366   -2.6224   -0.6484 C.2       1 <0>         0.7076
     11 O2          2.6346   -1.9885   -0.1285 O.2       1 <0>        -0.5281
     12 C8          2.9279   -4.6357   -0.0012 C.3       1 <0>         0.1136
     13 C9          4.0396   -4.8442   -1.0316 C.3       1 <0>        -0.1379
     14 C10         5.2264   -5.5443   -0.3668 C.3       1 <0>        -0.1474
     15 N3         -1.4100   -4.4856   -2.4782 N.pl3     1 <0>        -0.5161
     16 C11        -2.0969   -3.3692   -2.8483 C.2       1 <0>         0.3483
     17 N4         -1.4368   -2.2993   -2.4494 N.2       1 <0>        -0.4851
     18 H1         -1.6684   -5.4055   -2.6448 H         1 <0>         0.4364
     19 C12        -3.3788   -3.3584   -3.5816 C.ar      1 <0>        -0.0753
     20 C13        -3.9864   -4.5618   -3.9475 C.ar      1 <0>        -0.0540
     21 C14        -5.1822   -4.5474   -4.6316 C.ar      1 <0>        -0.1416
     22 C15        -5.7835   -3.3382   -4.9580 C.ar      1 <0>         0.1534
     23 C16        -5.1821   -2.1391   -4.5962 C.ar      1 <0>        -0.2112
     24 C17        -3.9897   -2.1449   -3.9062 C.ar      1 <0>        -0.0187
     25 O3         -6.9618   -3.3283   -5.6326 O.3       1 <0>        -0.2842
     26 C18        -7.5249   -2.0504   -5.9361 C.3       1 <0>         0.0401
     27 C19        -8.8214   -2.2369   -6.6814 C.2       1 <0>         0.5167
     28 O4         -9.2236   -3.3541   -6.9283 O.2       1 <0>        -0.4864
     29 N5         -9.5339   -1.1622   -7.0734 N.am      1 <0>        -0.6700
     30 C20       -10.6835   -1.3313   -7.8462 C.ar      1 <0>         0.1727
     31 C21       -11.5070   -2.4320   -7.6333 C.ar      1 <0>        -0.1229
     32 C22       -12.6419   -2.6024   -8.3942 C.ar      1 <0>        -0.0487
     33 C23       -12.9663   -1.6674   -9.3811 C.ar      1 <0>        -0.0415
     34 C24       -12.1368   -0.5624   -9.5920 C.ar      1 <0>        -0.0491
     35 C25       -11.0063   -0.3958   -8.8237 C.ar      1 <0>        -0.1431
     36 C26       -14.1455   -1.8414  -10.1748 C.1       1 <0>         0.2513
     37 N6        -15.0810   -1.9795  -10.8043 N.1       1 <0>        -0.4127
     38 H2          0.9573    1.8982    0.0737 H         1 <0>         0.0590
     39 H3         -0.5879    1.8819   -0.8098 H         1 <0>         0.0586
     40 H4         -0.5801    1.8630    0.9701 H         1 <0>         0.0607
     41 H5          0.4851   -0.3760    0.9417 H         1 <0>         0.0681
     42 H6         -1.0601   -0.3924    0.0582 H         1 <0>         0.0681
     43 H7          0.1619   -0.1324   -2.0837 H         1 <0>         0.0986
     44 H8          1.7070   -0.1160   -1.2002 H         1 <0>         0.1006
     45 H9          3.3016   -4.0196    0.8167 H         1 <0>         0.1035
     46 H10         2.6079   -5.6020    0.3886 H         1 <0>         0.1018
     47 H11         3.6659   -5.4603   -1.8495 H         1 <0>         0.0673
     48 H12         4.3596   -3.8779   -1.4214 H         1 <0>         0.0694
     49 H13         5.6001   -4.9282    0.4511 H         1 <0>         0.0598
     50 H14         4.9064   -6.5106    0.0231 H         1 <0>         0.0590
     51 H15         6.0184   -5.6929   -1.1008 H         1 <0>         0.0615
     52 H16        -3.5192   -5.5021   -3.6948 H         1 <0>         0.1322
     53 H17        -5.6526   -5.4774   -4.9148 H         1 <0>         0.1444
     54 H18        -5.6523   -1.2012   -4.8524 H         1 <0>         0.1392
     55 H19        -3.5255   -1.2125   -3.6208 H         1 <0>         0.1466
     56 H20        -7.7131   -1.5071   -5.0101 H         1 <0>         0.1036
     57 H21        -6.8286   -1.4841   -6.5546 H         1 <0>         0.1039
     58 H22        -9.2477   -0.2712   -6.8185 H         1 <0>         0.4173
     59 H23       -11.2556   -3.1541   -6.8704 H         1 <0>         0.1500
     60 H24       -13.2804   -3.4576   -8.2288 H         1 <0>         0.1387
     61 H25       -12.3842    0.1619  -10.3540 H         1 <0>         0.1395
     62 H26       -10.3672    0.4601   -8.9831 H         1 <0>         0.1394
@<TRIPOS>BOND
     1    1    2 1
     2    1   38 1
     3    1   39 1
     4    1   40 1
     5    2    3 1
     6    2   41 1
     7    2   42 1
     8    3   43 1
     9    3   44 1
    10    3    4 1
    11    4    5 1
    12    4   10 am
    13    5   17 1
    14    5    6 2
    15    6    7 1
    16    6   15 1
    17    7    9 am
    18    7    8 2
    19    9   10 am
    20    9   12 1
    21   10   11 2
    22   12   13 1
    23   12   45 1
    24   12   46 1
    25   13   14 1
    26   13   47 1
    27   13   48 1
    28   14   49 1
    29   14   50 1
    30   14   51 1
    31   15   18 1
    32   15   16 1
    33   16   19 1
    34   16   17 2
    35   19   24 ar
    36   19   20 ar
    37   20   21 ar
    38   20   52 1
    39   21   22 ar
    40   21   53 1
    41   22   23 ar
    42   22   25 1
    43   23   24 ar
    44   23   54 1
    45   24   55 1
    46   25   26 1
    47   26   27 1
    48   26   56 1
    49   26   57 1
    50   27   28 2
    51   27   29 am
    52   29   30 1
    53   29   58 1
    54   30   35 ar
    55   30   31 ar
    56   31   32 ar
    57   31   59 1
    58   32   33 ar
    59   32   60 1
    60   33   34 ar
    61   33   36 1
    62   34   35 ar
    63   34   61 1
    64   35   62 1
    65   36   37 3
@<TRIPOS>MOLECULE
ZINC03861807
   30    31     0     0     0
SMALL
USER_CHARGES

@<TRIPOS>ATOM
      1 C1         -0.0187    1.5258    0.0104 C.3       1 <0>        -0.1415
      2 C2          0.0021   -0.0041    0.0020 C.3       1 <0>        -0.1122
      3 C3          0.7421   -0.5109    1.2415 C.3       1 <0>        -0.1434
      4 C4         -1.4333   -0.5336    0.0129 C.3       1 <0>         0.1228
      5 N1         -2.1054   -0.1483   -1.2305 N.am      1 <0>        -0.5064
      6 C5         -2.7896    1.0542   -1.3029 C.2       1 <0>         0.3270
      7 C6         -3.4188    1.3971   -2.4931 C.2       1 <0>        -0.1566
      8 C7         -3.3428    0.5129   -3.5907 C.2       1 <0>         0.5930
      9 O1         -3.8857    0.7913   -4.6449 O.2       1 <0>        -0.5148
     10 N2         -2.6613   -0.6442   -3.4587 N.am      1 <0>        -0.5518
     11 C8         -2.0526   -0.9608   -2.3028 C.2       1 <0>         0.7063
     12 O2         -1.4428   -2.0098   -2.2221 O.2       1 <0>        -0.5287
     13 C9         -2.5785   -1.5664   -4.5940 C.3       1 <0>         0.0827
     14 N3         -4.0103    2.6257   -2.2774 N.pl3     1 <0>        -0.5187
     15 H1         -4.5284    3.1372   -2.9183 H         1 <0>         0.4381
     16 C10        -3.7321    2.9790   -1.0073 C.2       1 <0>         0.2767
     17 N4         -3.0113    2.0471   -0.4377 N.2       1 <0>        -0.4957
     18 H2          1.0039    1.9031    0.0027 H         1 <0>         0.0532
     19 H3         -0.5459    1.8868   -0.8726 H         1 <0>         0.0473
     20 H4         -0.5289    1.8773    0.9072 H         1 <0>         0.0653
     21 H5          0.5123   -0.3556   -0.8948 H         1 <0>         0.0742
     22 H6          0.2319   -0.1594    2.1383 H         1 <0>         0.0596
     23 H7          0.7568   -1.6008    1.2356 H         1 <0>         0.0591
     24 H8          1.7647   -0.1336    1.2338 H         1 <0>         0.0613
     25 H9         -1.4190   -1.6203    0.0965 H         1 <0>         0.1003
     26 H10        -1.9701   -0.1109    0.8621 H         1 <0>         0.1000
     27 H11        -3.1215   -1.1486   -5.4417 H         1 <0>         0.1034
     28 H12        -1.5337   -1.7124   -4.8680 H         1 <0>         0.0826
     29 H13        -3.0188   -2.5242   -4.3168 H         1 <0>         0.0828
     30 H14        -4.0547    3.8934   -0.5315 H         1 <0>         0.2343
@<TRIPOS>BOND
     1    1    2 1
     2    1   18 1
     3    1   19 1
     4    1   20 1
     5    2    3 1
     6    2    4 1
     7    2   21 1
     8    3   22 1
     9    3   23 1
    10    3   24 1
    11    4    5 1
    12    4   25 1
    13    4   26 1
    14    5   11 am
    15    5    6 1
    16    6   17 1
    17    6    7 2
    18    7    8 1
    19    7   14 1
    20    8    9 2
    21    8   10 am
    22   10   11 am
    23   10   13 1
    24   11   12 2
    25   13   27 1
    26   13   28 1
    27   13   29 1
    28   14   15 1
    29   14   16 1
    30   16   17 2
    31   16   30 1
@<TRIPOS>MOLECULE
ZINC02516057
   36    37     0     0     0
SMALL
USER_CHARGES

@<TRIPOS>ATOM
      1 C1         -0.0187    1.5258    0.0104 C.3       1 <0>        -0.1474
      2 C2          0.0021   -0.0041    0.0020 C.3       1 <0>        -0.1381
      3 C3          0.7182   -0.4975   -1.2568 C.3       1 <0>         0.1194
      4 N1          0.7381   -1.9623   -1.2648 N.am      1 <0>        -0.5083
      5 C4          1.7899   -2.6430   -0.6733 C.2       1 <0>         0.3194
      6 C5          1.7858   -4.0321   -0.6940 C.2       1 <0>        -0.1571
      7 C6          0.7133   -4.7075   -1.3154 C.2       1 <0>         0.5952
      8 O1          0.6868   -5.9248   -1.3462 O.2       1 <0>        -0.5130
      9 N2         -0.2825   -3.9887   -1.8744 N.am      1 <0>        -0.5494
     10 C7         -0.2685   -2.6450   -1.8422 C.2       1 <0>         0.7072
     11 O2         -1.1858   -2.0304   -2.3516 O.2       1 <0>        -0.5303
     12 C8         -1.3986   -4.6834   -2.5209 C.3       1 <0>         0.1141
     13 C9         -2.5024   -4.9418   -1.4933 C.3       1 <0>        -0.1375
     14 C10        -3.6680   -5.6673   -2.1685 C.3       1 <0>        -0.1473
     15 N3          2.9356   -4.4316   -0.0428 N.pl3     1 <0>        -0.4127
     16 C11         3.5803   -3.3122    0.3401 C.2       1 <0>         0.2667
     17 N4          2.8987   -2.2600   -0.0352 N.2       1 <0>        -0.4981
     18 C12         3.3717   -5.8109    0.1887 C.3       1 <0>         0.0688
     19 H1          1.0039    1.9031    0.0027 H         1 <0>         0.0590
     20 H2         -0.5459    1.8868   -0.8726 H         1 <0>         0.0589
     21 H3         -0.5289    1.8773    0.9072 H         1 <0>         0.0606
     22 H4          0.5293   -0.3651    0.8851 H         1 <0>         0.0677
     23 H5         -1.0205   -0.3814    0.0098 H         1 <0>         0.0674
     24 H6          0.1910   -0.1364   -2.1398 H         1 <0>         0.0998
     25 H7          1.7408   -0.1202   -1.2645 H         1 <0>         0.0985
     26 H8         -1.7917   -4.0663   -3.3288 H         1 <0>         0.1029
     27 H9         -1.0497   -5.6333   -2.9260 H         1 <0>         0.1012
     28 H10        -2.1094   -5.5590   -0.6854 H         1 <0>         0.0667
     29 H11        -2.8513   -3.9920   -1.0882 H         1 <0>         0.0690
     30 H12        -4.4543   -5.8514   -1.4364 H         1 <0>         0.0614
     31 H13        -4.0610   -5.0502   -2.9764 H         1 <0>         0.0599
     32 H14        -3.3191   -6.6172   -2.5735 H         1 <0>         0.0588
     33 H15         4.5175   -3.2871    0.8762 H         1 <0>         0.2308
     34 H16         3.9892   -6.1417   -0.6463 H         1 <0>         0.0875
     35 H17         3.9513   -5.8588    1.1106 H         1 <0>         0.0981
     36 H18         2.4990   -6.4583    0.2742 H         1 <0>         0.1001
@<TRIPOS>BOND
     1    1    2 1
     2    1   19 1
     3    1   20 1
     4    1   21 1
     5    2    3 1
     6    2   22 1
     7    2   23 1
     8    3    4 1
     9    3   24 1
    10    3   25 1
    11    4   10 am
    12    4    5 1
    13    5   17 1
    14    5    6 2
    15    6    7 1
    16    6   15 1
    17    7    8 2
    18    7    9 am
    19    9   10 am
    20    9   12 1
    21   10   11 2
    22   12   13 1
    23   12   26 1
    24   12   27 1
    25   13   14 1
    26   13   28 1
    27   13   29 1
    28   14   30 1
    29   14   31 1
    30   14   32 1
    31   15   16 1
    32   15   18 1
    33   16   17 2
    34   16   33 1
    35   18   34 1
    36   18   35 1
    37   18   36 1
