@<TRIPOS>MOLECULE
ZINC04654890
   33    34     0     0     0
SMALL
USER_CHARGES
1,3-dipropyl-7H-purine-2,6-dione
@<TRIPOS>ATOM
      1 C1          4.8600    4.3313   -1.4654 C.3       1 <0>        -0.1475
      2 C2          3.3301    4.3321   -1.4508 C.3       1 <0>        -0.1381
      3 C3          2.8338    4.3259   -0.0036 C.3       1 <0>         0.1189
      4 N1          1.3689    4.3267    0.0104 N.am      1 <0>        -0.5084
      5 C4          0.6765    3.1266    0.0116 C.2       1 <0>         0.3217
      6 C5         -0.7124    3.1538    0.0245 C.2       1 <0>        -0.1544
      7 C6         -1.3758    4.3997    0.0363 C.2       1 <0>         0.5935
      8 O1         -2.5926    4.4497    0.0477 O.2       1 <0>        -0.5123
      9 N2         -0.6460    5.5347    0.0341 N.am      1 <0>        -0.5489
     10 C7          0.6974    5.4937    0.0215 C.2       1 <0>         0.7070
     11 O2          1.3222    6.5369    0.0207 O.2       1 <0>        -0.5292
     12 C8         -1.3282    6.8311    0.0459 C.3       1 <0>         0.1135
     13 C9         -1.5790    7.2886   -1.3924 C.3       1 <0>        -0.1376
     14 C10        -2.2914    8.6425   -1.3801 C.3       1 <0>        -0.1474
     15 N3         -1.1247    1.8363    0.0168 N.pl3     1 <0>        -0.5215
     16 H1         -2.0695    1.5086    0.0176 H         1 <0>         0.4452
     17 C11        -0.0126    1.0758    0.0080 C.2       1 <0>         0.2766
     18 N4          1.0472    1.8436    0.0020 N.2       1 <0>        -0.4997
     19 H2          5.2135    4.3357   -2.4965 H         1 <0>         0.0608
     20 H3          5.2287    5.2188   -0.9511 H         1 <0>         0.0590
     21 H4          5.2277    3.4388   -0.9590 H         1 <0>         0.0591
     22 H5          2.9613    3.4446   -1.9652 H         1 <0>         0.0678
     23 H6          2.9624    5.2246   -1.9572 H         1 <0>         0.0676
     24 H7          3.2025    5.2134    0.5108 H         1 <0>         0.1001
     25 H8          3.2015    3.4334    0.5028 H         1 <0>         0.0990
     26 H9         -2.2803    6.7359    0.5681 H         1 <0>         0.1015
     27 H10        -0.7051    7.5649    0.5572 H         1 <0>         0.1034
     28 H11        -0.6269    7.3837   -1.9146 H         1 <0>         0.0691
     29 H12        -2.2021    6.5548   -1.9037 H         1 <0>         0.0670
     30 H13        -2.4700    8.9685   -2.4047 H         1 <0>         0.0615
     31 H14        -3.2435    8.5474   -0.8579 H         1 <0>         0.0590
     32 H15        -1.6683    9.3763   -0.8688 H         1 <0>         0.0599
     33 H16         0.0021   -0.0041    0.0020 H         1 <0>         0.2343
@<TRIPOS>BOND
     1    1    2 1
     2    1   19 1
     3    1   20 1
     4    1   21 1
     5    2    3 1
     6    2   22 1
     7    2   23 1
     8    3    4 1
     9    3   24 1
    10    3   25 1
    11    4   10 am
    12    4    5 1
    13    5   18 1
    14    5    6 2
    15    6    7 1
    16    6   15 1
    17    7    8 2
    18    7    9 am
    19    9   10 am
    20    9   12 1
    21   10   11 2
    22   12   13 1
    23   12   26 1
    24   12   27 1
    25   13   14 1
    26   13   28 1
    27   13   29 1
    28   14   30 1
    29   14   31 1
    30   14   32 1
    31   15   16 1
    32   15   17 1
    33   17   18 2
    34   17   33 1
@<TRIPOS>MOLECULE
ZINC03861807
   30    31     0     0     0
SMALL
USER_CHARGES

@<TRIPOS>ATOM
      1 C1         -0.0187    1.5258    0.0104 C.3       1 <0>        -0.1415
      2 C2          0.0021   -0.0041    0.0020 C.3       1 <0>        -0.1122
      3 C3          0.7421   -0.5109    1.2415 C.3       1 <0>        -0.1434
      4 C4         -1.4333   -0.5336    0.0129 C.3       1 <0>         0.1228
      5 N1         -2.1054   -0.1483   -1.2305 N.am      1 <0>        -0.5064
      6 C5         -2.7896    1.0542   -1.3029 C.2       1 <0>         0.3270
      7 C6         -3.4188    1.3971   -2.4931 C.2       1 <0>        -0.1566
      8 C7         -3.3428    0.5129   -3.5907 C.2       1 <0>         0.5930
      9 O1         -3.8857    0.7913   -4.6449 O.2       1 <0>        -0.5148
     10 N2         -2.6613   -0.6442   -3.4587 N.am      1 <0>        -0.5518
     11 C8         -2.0526   -0.9608   -2.3028 C.2       1 <0>         0.7063
     12 O2         -1.4428   -2.0098   -2.2221 O.2       1 <0>        -0.5287
     13 C9         -2.5785   -1.5664   -4.5940 C.3       1 <0>         0.0827
     14 N3         -4.0103    2.6257   -2.2774 N.pl3     1 <0>        -0.5187
     15 H1         -4.5284    3.1372   -2.9183 H         1 <0>         0.4381
     16 C10        -3.7321    2.9790   -1.0073 C.2       1 <0>         0.2767
     17 N4         -3.0113    2.0471   -0.4377 N.2       1 <0>        -0.4957
     18 H2          1.0039    1.9031    0.0027 H         1 <0>         0.0532
     19 H3         -0.5459    1.8868   -0.8726 H         1 <0>         0.0473
     20 H4         -0.5289    1.8773    0.9072 H         1 <0>         0.0653
     21 H5          0.5123   -0.3556   -0.8948 H         1 <0>         0.0742
     22 H6          0.2319   -0.1594    2.1383 H         1 <0>         0.0596
     23 H7          0.7568   -1.6008    1.2356 H         1 <0>         0.0591
     24 H8          1.7647   -0.1336    1.2338 H         1 <0>         0.0613
     25 H9         -1.4190   -1.6203    0.0965 H         1 <0>         0.1003
     26 H10        -1.9701   -0.1109    0.8621 H         1 <0>         0.1000
     27 H11        -3.1215   -1.1486   -5.4417 H         1 <0>         0.1034
     28 H12        -1.5337   -1.7124   -4.8680 H         1 <0>         0.0826
     29 H13        -3.0188   -2.5242   -4.3168 H         1 <0>         0.0828
     30 H14        -4.0547    3.8934   -0.5315 H         1 <0>         0.2343
@<TRIPOS>BOND
     1    1    2 1
     2    1   18 1
     3    1   19 1
     4    1   20 1
     5    2    3 1
     6    2    4 1
     7    2   21 1
     8    3   22 1
     9    3   23 1
    10    3   24 1
    11    4    5 1
    12    4   25 1
    13    4   26 1
    14    5   11 am
    15    5    6 1
    16    6   17 1
    17    6    7 2
    18    7    8 1
    19    7   14 1
    20    8    9 2
    21    8   10 am
    22   10   11 am
    23   10   13 1
    24   11   12 2
    25   13   27 1
    26   13   28 1
    27   13   29 1
    28   14   15 1
    29   14   16 1
    30   16   17 2
    31   16   30 1
@<TRIPOS>MOLECULE
ZINC03875976
   32    34     0     0     0
SMALL
USER_CHARGES

@<TRIPOS>ATOM
      1 C1         -0.0164    1.3592    0.0095 C.2       1 <0>         0.2702
      2 N1          1.2005    1.8201    0.0004 N.2       1 <0>        -0.4560
      3 C2          2.0747    0.7850   -0.0135 C.ar      1 <0>        -0.1052
      4 C3          3.4758    0.6753   -0.0279 C.ar      1 <0>         0.5255
      5 N2          4.0162   -0.5385   -0.0400 N.ar      1 <0>        -0.5767
      6 C4          3.2613   -1.6237   -0.0386 C.ar      1 <0>         0.4320
      7 N3          1.9451   -1.5686   -0.0258 N.ar      1 <0>        -0.5333
      8 C5          1.3163   -0.3974   -0.0126 C.ar      1 <0>         0.3255
      9 N4          0.0021   -0.0041    0.0020 N.pl3     1 <0>        -0.4676
     10 C6         -1.1670   -0.8869    0.0084 C.3       1 <0>         0.3117
     11 H1         -0.9746   -1.7745   -0.5943 H         1 <0>         0.1253
     12 C7         -1.5302   -1.2878    1.4554 C.3       1 <0>         0.0789
     13 H2         -1.1596   -0.5452    2.1620 H         1 <0>         0.0861
     14 C8         -3.0750   -1.3163    1.4606 C.3       1 <0>         0.0478
     15 H3         -3.4681   -0.5878    2.1697 H         1 <0>         0.0878
     16 C9         -3.4624   -0.9293    0.0161 C.3       1 <0>         0.0503
     17 H4         -3.6240   -1.8235   -0.5860 H         1 <0>         0.1010
     18 O1         -2.3291   -0.1859   -0.4855 O.3       1 <0>        -0.3461
     19 C10        -4.7182   -0.0553    0.0175 C.3       1 <0>         0.0821
     20 O2         -5.1260    0.1947   -1.3291 O.3       1 <0>        -0.5635
     21 O3         -3.5506   -2.6266    1.7754 O.3       1 <0>        -0.5383
     22 O4         -1.0018   -2.5790    1.7649 O.3       1 <0>        -0.5249
     23 Cl1         4.0328   -3.1787   -0.0548 Cl        1 <0>         0.0376
     24 N5          4.2743    1.8056   -0.0299 N.pl3     1 <0>        -0.8093
     25 H5         -0.9091    1.9668    0.0254 H         1 <0>         0.2274
     26 H6         -5.5183   -0.5696    0.5499 H         1 <0>         0.0675
     27 H7         -4.5017    0.8911    0.5131 H         1 <0>         0.0612
     28 H8         -5.9182    0.7441   -1.4046 H         1 <0>         0.3871
     29 H9         -4.5145   -2.7016    1.7924 H         1 <0>         0.3877
     30 H10        -1.2003   -2.8805    2.6620 H         1 <0>         0.3915
     31 H11         3.8680    2.6864   -0.0214 H         1 <0>         0.4227
     32 H12         5.2402    1.7170   -0.0399 H         1 <0>         0.4141
@<TRIPOS>BOND
     1    1    9 1
     2    1    2 2
     3    1   25 1
     4    2    3 1
     5    3    8 ar
     6    3    4 ar
     7    4    5 ar
     8    4   24 1
     9    5    6 ar
    10    6    7 ar
    11    6   23 1
    12    7    8 ar
    13    8    9 1
    14    9   10 1
    15   10   11 1
    16   10   18 1
    17   10   12 1
    18   12   13 1
    19   12   14 1
    20   12   22 1
    21   14   15 1
    22   14   16 1
    23   14   21 1
    24   16   17 1
    25   16   18 1
    26   16   19 1
    27   19   20 1
    28   19   26 1
    29   19   27 1
    30   20   28 1
    31   21   29 1
    32   22   30 1
    33   24   31 1
    34   24   32 1
@<TRIPOS>MOLECULE
ZINC04770328
   27    28     0     0     0
SMALL
USER_CHARGES
1-methyl-3-propyl-7H-purine-2,6-dione
@<TRIPOS>ATOM
      1 C1          4.8600    4.3313   -1.4654 C.3       1 <0>        -0.1491
      2 C2          3.3301    4.3321   -1.4508 C.3       1 <0>        -0.1388
      3 C3          2.8338    4.3259   -0.0036 C.3       1 <0>         0.1166
      4 N1          1.3689    4.3267    0.0104 N.am      1 <0>        -0.5078
      5 C4          0.6765    3.1266    0.0116 C.2       1 <0>         0.3174
      6 C5         -0.7124    3.1538    0.0245 C.2       1 <0>        -0.1644
      7 C6         -1.3758    4.3997    0.0354 C.2       1 <0>         0.5940
      8 O1         -2.5927    4.4497    0.0460 O.2       1 <0>        -0.5146
      9 N2         -0.6460    5.5347    0.0341 N.am      1 <0>        -0.5517
     10 C7          0.6974    5.4937    0.0215 C.2       1 <0>         0.7069
     11 O2          1.3222    6.5369    0.0207 O.2       1 <0>        -0.5328
     12 C8         -1.3282    6.8311    0.0459 C.3       1 <0>         0.0781
     13 N3         -1.1247    1.8363    0.0168 N.pl3     1 <0>        -0.5308
     14 H1         -2.1981    1.5959    0.0186 H         1 <0>         0.4707
     15 C9         -0.0126    1.0758    0.0080 C.2       1 <0>         0.2856
     16 N4          1.0472    1.8436    0.0020 N.2       1 <0>        -0.5016
     17 H2          5.2167    4.3358   -2.5059 H         1 <0>         0.0612
     18 H3          5.2311    3.4306   -0.9544 H         1 <0>         0.0596
     19 H4          5.2321    5.2269   -0.9464 H         1 <0>         0.0595
     20 H5          2.9590    5.2328   -1.9618 H         1 <0>         0.0681
     21 H6          2.9580    3.4365   -1.9699 H         1 <0>         0.0681
     22 H7          3.2048    3.4252    0.5074 H         1 <0>         0.0999
     23 H8          3.2059    5.2215    0.5155 H         1 <0>         0.1011
     24 H9         -0.5812    7.6385    0.0430 H         1 <0>         0.1073
     25 H10        -1.9499    6.9100    0.9499 H         1 <0>         0.0826
     26 H11        -1.9657    6.9181   -0.8463 H         1 <0>         0.0825
     27 H12         0.0021   -0.0041    0.0020 H         1 <0>         0.2323
@<TRIPOS>BOND
     1    1    2 1
     2    1   17 1
     3    1   18 1
     4    1   19 1
     5    2    3 1
     6    2   20 1
     7    2   21 1
     8    3    4 1
     9    3   22 1
    10    3   23 1
    11    4   10 am
    12    4    5 1
    13    5   16 1
    14    5    6 2
    15    6    7 1
    16    6   13 1
    17    7    8 2
    18    7    9 am
    19    9   10 am
    20    9   12 1
    21   10   11 2
    22   12   24 1
    23   12   25 1
    24   12   26 1
    25   13   14 1
    26   13   15 1
    27   15   16 2
    28   15   27 1
@<TRIPOS>MOLECULE
ZINC01486608
   53    56     0     0     0
SMALL
USER_CHARGES
1-[2-(2-hydroxyethyl)-1-piperidyl]-3-(8-phenyl-6,7-diazabicyclo[4.3.0]nona-2,4,7,9-tetraen-9-yl)-prop-2-en-1-one
@<TRIPOS>ATOM
      1 C1          1.1382    1.4278   -0.1982 C.ar      1 <0>        -0.1039
      2 C2         -0.0778    2.0426   -0.4368 C.ar      1 <0>        -0.1227
      3 C3         -1.2069    1.2813   -0.6602 C.ar      1 <0>        -0.0860
      4 C4         -1.1203   -0.1101   -0.6451 C.ar      1 <0>        -0.0282
      5 C5          0.1080   -0.7241   -0.4041 C.ar      1 <0>        -0.0821
      6 C6          1.2302    0.0476   -0.1820 C.ar      1 <0>        -0.1197
      7 C7         -2.3295   -0.9335   -0.8840 C.2       1 <0>         0.1774
      8 C8         -2.3657   -2.1730   -1.5695 C.2       1 <0>        -0.2454
      9 C9         -3.7088   -2.6022   -1.5611 C.2       1 <0>         0.1326
     10 C10        -4.3460   -3.7376   -2.0763 C.2       1 <0>        -0.1177
     11 C11        -5.6943   -3.8780   -1.9140 C.2       1 <0>        -0.0700
     12 C12        -6.4129   -2.8843   -1.2360 C.2       1 <0>        -0.1594
     13 C13        -5.7771   -1.7960   -0.7463 C.2       1 <0>         0.1138
     14 N1         -4.4316   -1.6464   -0.9032 N.pl3     1 <0>        -0.2637
     15 N2         -3.5519   -0.6343   -0.5003 N.2       1 <0>        -0.3080
     16 C14        -1.2666   -2.8501   -2.1483 C.2       1 <0>         0.0458
     17 C15        -0.4194   -2.1857   -2.9771 C.2       1 <0>        -0.2349
     18 C16         0.6773   -2.8613   -3.5547 C.2       1 <0>         0.5553
     19 O1          0.9203   -4.0119   -3.2363 O.2       1 <0>        -0.5398
     20 N3          1.4556   -2.2335   -4.4583 N.am      1 <0>        -0.6069
     21 C17         1.2441   -0.8134   -4.7703 C.3       1 <0>         0.1064
     22 C18         1.0793   -0.6549   -6.2807 C.3       1 <0>        -0.1372
     23 C19         2.2805   -1.2829   -6.9913 C.3       1 <0>        -0.1204
     24 C20         2.3449   -2.7766   -6.6648 C.3       1 <0>        -0.1358
     25 C21         2.5277   -2.9577   -5.1546 C.3       1 <0>         0.1527
     26 H1          3.4953   -2.5566   -4.8530 H         1 <0>         0.0718
     27 C22         2.4560   -4.4445   -4.8009 C.3       1 <0>        -0.1107
     28 C23         3.5468   -5.2025   -5.5601 C.3       1 <0>         0.0680
     29 O2          3.5569   -6.5688   -5.1414 O.3       1 <0>        -0.5705
     30 H2          2.0191    2.0277   -0.0235 H         1 <0>         0.1255
     31 H3         -0.1436    3.1206   -0.4486 H         1 <0>         0.1274
     32 H4         -2.1548    1.7623   -0.8508 H         1 <0>         0.1265
     33 H5          0.1809   -1.8015   -0.3909 H         1 <0>         0.1272
     34 H6          2.1823   -0.4269    0.0045 H         1 <0>         0.1273
     35 H7         -3.7771   -4.4939   -2.5967 H         1 <0>         0.1518
     36 H8         -6.2024   -4.7474   -2.3045 H         1 <0>         0.1470
     37 H9         -7.4797   -2.9883   -1.1036 H         1 <0>         0.1600
     38 H10        -6.3417   -1.0369   -0.2254 H         1 <0>         0.1727
     39 H11        -1.1010   -3.8950   -1.9313 H         1 <0>         0.1326
     40 H12        -0.5850   -1.1408   -3.1941 H         1 <0>         0.1249
     41 H13         0.3449   -0.4586   -4.2667 H         1 <0>         0.0896
     42 H14         2.1049   -0.2338   -4.4367 H         1 <0>         0.0696
     43 H15         1.0204    0.4040   -6.5323 H         1 <0>         0.0762
     44 H16         0.1653   -1.1560   -6.5994 H         1 <0>         0.0673
     45 H17         3.1963   -0.7976   -6.6541 H         1 <0>         0.0650
     46 H18         2.1748   -1.1508   -8.0681 H         1 <0>         0.0667
     47 H19         3.1868   -3.2278   -7.1898 H         1 <0>         0.0752
     48 H20         1.4193   -3.2586   -6.9795 H         1 <0>         0.0685
     49 H21         2.6052   -4.5705   -3.7285 H         1 <0>         0.1037
     50 H22         1.4786   -4.8377   -5.0804 H         1 <0>         0.0754
     51 H23         3.3466   -5.1520   -6.6304 H         1 <0>         0.0414
     52 H24         4.5164   -4.7510   -5.3501 H         1 <0>         0.0406
     53 H25         4.2255   -7.1104   -5.5827 H         1 <0>         0.3770
@<TRIPOS>BOND
     1    1    6 ar
     2    1    2 ar
     3    1   30 1
     4    2    3 ar
     5    2   31 1
     6    3    4 ar
     7    3   32 1
     8    4    5 ar
     9    4    7 1
    10    5    6 ar
    11    5   33 1
    12    6   34 1
    13    7   15 2
    14    7    8 1
    15    8    9 2
    16    8   16 1
    17    9   14 1
    18    9   10 1
    19   10   11 2
    20   10   35 1
    21   11   12 1
    22   11   36 1
    23   12   13 2
    24   12   37 1
    25   13   14 1
    26   13   38 1
    27   14   15 1
    28   16   17 2
    29   16   39 1
    30   17   18 1
    31   17   40 1
    32   18   19 2
    33   18   20 am
    34   20   25 1
    35   20   21 1
    36   21   22 1
    37   21   41 1
    38   21   42 1
    39   22   23 1
    40   22   43 1
    41   22   44 1
    42   23   24 1
    43   23   45 1
    44   23   46 1
    45   24   25 1
    46   24   47 1
    47   24   48 1
    48   25   26 1
    49   25   27 1
    50   27   28 1
    51   27   49 1
    52   27   50 1
    53   28   29 1
    54   28   51 1
    55   28   52 1
    56   29   53 1
@<TRIPOS>MOLECULE
ZINC18207215
   54    58     0     0     0
SMALL
USER_CHARGES

@<TRIPOS>ATOM
      1 C1         -0.0187    1.5258    0.0104 C.3       1 <0>        -0.1472
      2 C2          0.0021   -0.0041    0.0020 C.3       1 <0>        -0.1379
      3 C3         -1.4333   -0.5336    0.0129 C.3       1 <0>         0.1191
      4 N1         -1.4134   -1.9985    0.0048 N.am      1 <0>        -0.5073
      5 C4         -1.3926   -2.6965    1.2014 C.2       1 <0>         0.3253
      6 C5         -1.3745   -4.0853    1.1673 C.2       1 <0>        -0.1553
      7 C6         -1.3778   -4.7426   -0.0818 C.2       1 <0>         0.5939
      8 O1         -1.3626   -5.9592   -0.1378 O.2       1 <0>        -0.5125
      9 N2         -1.3985   -4.0075   -1.2131 N.am      1 <0>        -0.5487
     10 C7         -1.4211   -2.6644   -1.1653 C.2       1 <0>         0.7072
     11 O2         -1.4445   -2.0347   -2.2054 O.2       1 <0>        -0.5296
     12 C8         -1.4021   -4.6834   -2.5128 C.3       1 <0>         0.1138
     13 C9         -2.8457   -4.9379   -2.9514 C.3       1 <0>        -0.1378
     14 C10        -2.8494   -5.6438   -4.3088 C.3       1 <0>        -0.1472
     15 N3         -1.3562   -4.5039    2.4827 N.pl3     1 <0>        -0.5130
     16 C11        -1.3635   -3.3955    3.2487 C.2       1 <0>         0.3244
     17 N4         -1.3850   -2.3321    2.4862 N.2       1 <0>        -0.4864
     18 H1         -1.3410   -5.4217    2.7960 H         1 <0>         0.4346
     19 C12        -1.3491   -3.3823    4.7555 C.3       1 <0>         0.0007
     20 C13        -0.3830   -4.4298    5.3831 C.3       1 <0>        -0.1187
     21 C14        -0.1207   -3.7936    6.7774 C.3       1 <0>        -0.0896
     22 H2          0.6849   -4.2848    7.3232 H         1 <0>         0.0922
     23 C15        -1.4390   -3.7841    7.5562 C.3       1 <0>        -0.1073
     24 C16        -2.5864   -3.0979    6.8097 C.3       1 <0>        -0.0926
     25 H3         -3.5164   -3.0994    7.3782 H         1 <0>         0.0936
     26 C17        -2.7211   -3.7395    5.3994 C.3       1 <0>        -0.1093
     27 C18        -2.1308   -1.6708    6.4004 C.3       1 <0>        -0.1188
     28 C19        -0.9534   -2.0058    5.3650 C.3       1 <0>        -0.0740
     29 C20         0.2357   -2.3440    6.3494 C.3       1 <0>        -0.1216
     30 H4          1.0039    1.9031    0.0027 H         1 <0>         0.0607
     31 H5         -0.5459    1.8868   -0.8726 H         1 <0>         0.0588
     32 H6         -0.5289    1.8773    0.9072 H         1 <0>         0.0589
     33 H7          0.5123   -0.3556   -0.8948 H         1 <0>         0.0676
     34 H8          0.5293   -0.3651    0.8851 H         1 <0>         0.0678
     35 H9         -1.9435   -0.1821    0.9097 H         1 <0>         0.0985
     36 H10        -1.9605   -0.1726   -0.8702 H         1 <0>         0.0999
     37 H11        -0.9037   -4.0548   -3.2507 H         1 <0>         0.1031
     38 H12        -0.8748   -5.6338   -2.4296 H         1 <0>         0.1013
     39 H13        -3.3441   -5.5666   -2.2135 H         1 <0>         0.0670
     40 H14        -3.3730   -3.9876   -3.0346 H         1 <0>         0.0692
     41 H15        -2.3510   -5.0151   -5.0466 H         1 <0>         0.0599
     42 H16        -2.3221   -6.5941   -4.2256 H         1 <0>         0.0588
     43 H17        -3.8778   -5.8251   -4.6212 H         1 <0>         0.0614
     44 H18        -0.8668   -5.4018    5.4797 H         1 <0>         0.0762
     45 H19         0.5392   -4.5078    4.8073 H         1 <0>         0.0714
     46 H20        -1.7268   -4.8139    7.7674 H         1 <0>         0.0629
     47 H21        -1.2810   -3.2679    8.5031 H         1 <0>         0.0662
     48 H22        -3.5451   -3.3020    4.8358 H         1 <0>         0.0740
     49 H23        -2.8416   -4.8188    5.4935 H         1 <0>         0.0719
     50 H24        -2.9334   -1.1324    5.8963 H         1 <0>         0.0677
     51 H25        -1.7679   -1.1124    7.2632 H         1 <0>         0.0742
     52 H26        -0.7411   -1.2390    4.6199 H         1 <0>         0.1113
     53 H27         0.2376   -1.6711    7.2069 H         1 <0>         0.0747
     54 H28         1.1918   -2.3132    5.8269 H         1 <0>         0.0663
@<TRIPOS>BOND
     1    1    2 1
     2    1   30 1
     3    1   31 1
     4    1   32 1
     5    2    3 1
     6    2   33 1
     7    2   34 1
     8    3   35 1
     9    3   36 1
    10    3    4 1
    11    4    5 1
    12    4   10 am
    13    5   17 1
    14    5    6 2
    15    6    7 1
    16    6   15 1
    17    7    9 am
    18    7    8 2
    19    9   10 am
    20    9   12 1
    21   10   11 2
    22   12   13 1
    23   12   37 1
    24   12   38 1
    25   13   14 1
    26   13   39 1
    27   13   40 1
    28   14   41 1
    29   14   42 1
    30   14   43 1
    31   15   18 1
    32   15   16 1
    33   16   19 1
    34   16   17 2
    35   19   26 1
    36   19   28 1
    37   19   20 1
    38   20   21 1
    39   20   44 1
    40   20   45 1
    41   21   22 1
    42   21   29 1
    43   21   23 1
    44   23   24 1
    45   23   46 1
    46   23   47 1
    47   24   25 1
    48   24   26 1
    49   24   27 1
    50   26   48 1
    51   26   49 1
    52   27   28 1
    53   27   50 1
    54   27   51 1
    55   28   29 1
    56   28   52 1
    57   29   53 1
    58   29   54 1
@<TRIPOS>MOLECULE
ZINC18207215
   55    59     0     0     0
SMALL
USER_CHARGES
1,3-dipropyl-8-BLAHyl-7H-purine-2,6-dione
@<TRIPOS>ATOM
      1 C1         -2.3129    4.8502   -5.0821 C.3       1 <0>        -0.1537
      2 C2         -0.9968    5.2159   -4.3928 C.3       1 <0>        -0.1442
      3 C3          0.1042    4.2595   -4.8554 C.3       1 <0>         0.0949
      4 N1          1.3644    4.6097   -4.1955 N.am      1 <0>        -0.5097
      5 C4          1.6928    4.0312   -2.9801 C.2       1 <0>         0.3509
      6 C5          2.8934    4.3796   -2.3743 C.2       1 <0>        -0.0751
      7 C6          3.7415    5.3099   -3.0130 C.2       1 <0>         0.5886
      8 O1          4.7990    5.6317   -2.5017 O.2       1 <0>        -0.4630
      9 N2          3.3660    5.8398   -4.1957 N.am      1 <0>        -0.5390
     10 C7          2.2013    5.4937   -4.7707 C.2       1 <0>         0.7080
     11 O2          1.8961    5.9911   -5.8375 O.2       1 <0>        -0.4799
     12 C8          4.2408    6.8070   -4.8632 C.3       1 <0>         0.1068
     13 C9          3.8828    8.2213   -4.4024 C.3       1 <0>        -0.1382
     14 C10         4.7964    9.2314   -5.0996 C.3       1 <0>        -0.1511
     15 N3          2.9548    3.6614   -1.1969 N.pl3     1 <0>        -0.4517
     16 H1          3.6944    3.6838   -0.5243 H         1 <0>         0.4836
     17 C11         1.8290    2.9246   -1.1261 C.cat     1 <0>         0.4103
     18 C12         1.4760    1.9857   -0.0014 C.3       1 <0>        -0.0447
     19 C13         1.7539    2.5449    1.4258 C.3       1 <0>        -0.1138
     20 C14         0.7636    1.7031    2.2757 C.3       1 <0>        -0.0856
     21 H2          0.6664    2.0677    3.2984 H         1 <0>         0.1085
     22 C15         1.1777    0.2311    2.1968 C.3       1 <0>        -0.1184
     23 C16         1.3277   -0.2870    0.7638 C.3       1 <0>        -0.0867
     24 H3          1.6304   -1.3330    0.7147 H         1 <0>         0.1082
     25 C17         2.2891    0.6570   -0.0086 C.3       1 <0>        -0.1090
     26 C18         0.0021   -0.0041    0.0020 C.3       1 <0>        -0.1233
     27 C19        -0.0190    1.5528    0.0106 C.3       1 <0>        -0.0898
     28 C20        -0.5347    1.8895    1.4407 C.3       1 <0>        -0.1202
     29 H4         -3.0972    5.5316   -4.7525 H         1 <0>         0.0721
     30 H5         -2.1919    4.9307   -6.1623 H         1 <0>         0.0685
     31 H6         -2.5871    3.8277   -4.8224 H         1 <0>         0.0604
     32 H7         -1.1178    5.1354   -3.3126 H         1 <0>         0.0636
     33 H8         -0.7226    6.2384   -4.6525 H         1 <0>         0.0836
     34 H9          0.2252    4.3400   -5.9357 H         1 <0>         0.1287
     35 H10        -0.1700    3.2370   -4.5957 H         1 <0>         0.0959
     36 H11         5.2790    6.5938   -4.6088 H         1 <0>         0.1127
     37 H12         4.1084    6.7321   -5.9426 H         1 <0>         0.1138
     38 H13         2.8446    8.4345   -4.6568 H         1 <0>         0.0711
     39 H14         4.0152    8.2962   -3.3231 H         1 <0>         0.0696
     40 H15         5.8347    9.0182   -4.8452 H         1 <0>         0.0626
     41 H16         4.6641    9.1565   -6.1789 H         1 <0>         0.0633
     42 H17         4.5414   10.2390   -4.7713 H         1 <0>         0.0674
     43 H18         2.7850    2.3587    1.7261 H         1 <0>         0.0932
     44 H19         1.5167    3.6072    1.4838 H         1 <0>         0.0820
     45 H20         0.4263   -0.3705    2.7083 H         1 <0>         0.0779
     46 H21         2.1296    0.1083    2.7135 H         1 <0>         0.0732
     47 H22         3.2346    0.7728    0.5213 H         1 <0>         0.0933
     48 H23         2.4527    0.3028   -1.0264 H         1 <0>         0.0805
     49 H24        -0.8543   -0.4113    0.5395 H         1 <0>         0.0902
     50 H25         0.0434   -0.3906   -1.0163 H         1 <0>         0.0747
     51 H26        -0.6075    1.9886   -0.7968 H         1 <0>         0.0849
     52 H27        -0.8935    2.9172    1.4969 H         1 <0>         0.0754
     53 H28        -1.3076    1.1880    1.7547 H         1 <0>         0.0898
     54 N4          1.0892    3.1423   -2.1849 N.pl3     1 <0>        -0.4924
     55 H29         0.1834    2.6978   -2.3751 H         1 <0>         0.4811
@<TRIPOS>BOND
     1    1    2 1
     2    1   29 1
     3    1   30 1
     4    1   31 1
     5    2    3 1
     6    2   32 1
     7    2   33 1
     8    3    4 1
     9    3   34 1
    10    3   35 1
    11    4   10 am
    12    4    5 1
    13    5    6 2
    14    5   54 1
    15    6    7 1
    16    6   15 1
    17    7    8 2
    18    7    9 am
    19    9   10 am
    20    9   12 1
    21   10   11 2
    22   12   13 1
    23   12   36 1
    24   12   37 1
    25   13   14 1
    26   13   38 1
    27   13   39 1
    28   14   40 1
    29   14   41 1
    30   14   42 1
    31   15   16 1
    32   15   17 1
    33   17   18 1
    34   17   54 2
    35   18   25 1
    36   18   27 1
    37   18   19 1
    38   19   20 1
    39   19   43 1
    40   19   44 1
    41   20   21 1
    42   20   28 1
    43   20   22 1
    44   22   23 1
    45   22   45 1
    46   22   46 1
    47   23   24 1
    48   23   25 1
    49   23   26 1
    50   25   47 1
    51   25   48 1
    52   26   27 1
    53   26   49 1
    54   26   50 1
    55   27   28 1
    56   27   51 1
    57   28   52 1
    58   28   53 1
    59   54   55 1
@<TRIPOS>MOLECULE
ZINC04475116
   39    42     0     0     0
SMALL
USER_CHARGES

@<TRIPOS>ATOM
      1 C1         -0.0158    1.3119    0.0093 C.ar      1 <0>         0.3656
      2 N1          1.0888    2.0360    0.0026 N.ar      1 <0>        -0.5910
      3 C2          2.2875    1.4625   -0.0119 C.ar      1 <0>         0.5094
      4 C3          2.3582    0.0588   -0.0202 C.ar      1 <0>        -0.1091
      5 C4          1.1547   -0.6659   -0.0126 C.ar      1 <0>         0.3133
      6 N2          0.0021   -0.0041    0.0020 N.ar      1 <0>        -0.5496
      7 N3          1.5110   -1.9908   -0.0227 N.pl3     1 <0>        -0.4727
      8 C5          2.8729   -2.0476   -0.0358 C.2       1 <0>         0.2658
      9 N4          3.3680   -0.8441   -0.0343 N.2       1 <0>        -0.4592
     10 C6          0.5956   -3.1347   -0.0195 C.3       1 <0>         0.3146
     11 H1         -0.2832   -2.9148    0.5866 H         1 <0>         0.1283
     12 C7          0.1775   -3.4928   -1.4629 C.3       1 <0>         0.0815
     13 H2          0.9267   -3.1463   -2.1747 H         1 <0>         0.0895
     14 C8          0.1056   -5.0362   -1.4608 C.3       1 <0>         0.0509
     15 H3          0.8193   -5.4528   -2.1716 H         1 <0>         0.0915
     16 C9          0.4888   -5.4280   -0.0165 C.3       1 <0>         0.0331
     17 H4         -0.4066   -5.5617    0.5906 H         1 <0>         0.1214
     18 O1          1.2661   -4.3138    0.4763 O.3       1 <0>        -0.3270
     19 C10         1.3146   -6.6886   -0.0164 C.2       1 <0>         0.5225
     20 O2          2.4681   -6.6578    0.3568 O.2       1 <0>        -0.5011
     21 N5          0.7712   -7.8502   -0.4310 N.am      1 <0>        -0.6983
     22 C11         1.5740   -9.0756   -0.4308 C.3       1 <0>         0.0751
     23 C12         1.4712   -9.9876   -1.6550 C.3       1 <0>        -0.1897
     24 C13         0.8289  -10.4083   -0.3316 C.3       1 <0>        -0.1850
     25 O3         -1.2191   -5.4762   -1.7672 O.3       1 <0>        -0.5312
     26 O4         -1.0998   -2.9297   -1.7685 O.3       1 <0>        -0.5231
     27 N6          3.4393    2.2295   -0.0193 N.pl3     1 <0>        -0.8168
     28 H5         -0.9693    1.8187    0.0257 H         1 <0>         0.2064
     29 H6          3.4551   -2.9572   -0.0459 H         1 <0>         0.2258
     30 H7         -0.1514   -7.8748   -0.7294 H         1 <0>         0.3995
     31 H8          2.5430   -9.0028    0.0629 H         1 <0>         0.1418
     32 H9          0.8062   -9.6759   -2.4605 H         1 <0>         0.0986
     33 H10         2.3727  -10.5149   -1.9669 H         1 <0>         0.1062
     34 H11         1.3079  -11.2123    0.2272 H         1 <0>         0.1076
     35 H12        -0.2586  -10.3732   -0.2664 H         1 <0>         0.1000
     36 H13        -1.3212   -6.4377   -1.7794 H         1 <0>         0.3824
     37 H14        -1.4113   -3.1237   -2.6632 H         1 <0>         0.3921
     38 H15         3.3774    3.1975   -0.0138 H         1 <0>         0.4113
     39 H16         4.3085    1.7992   -0.0299 H         1 <0>         0.4193
@<TRIPOS>BOND
     1    1    6 ar
     2    1    2 ar
     3    1   28 1
     4    2    3 ar
     5    3    4 ar
     6    3   27 1
     7    4    9 1
     8    4    5 ar
     9    5    6 ar
    10    5    7 1
    11    7    8 1
    12    7   10 1
    13    8    9 2
    14    8   29 1
    15   10   11 1
    16   10   18 1
    17   10   12 1
    18   12   13 1
    19   12   14 1
    20   12   26 1
    21   14   15 1
    22   14   16 1
    23   14   25 1
    24   16   17 1
    25   16   18 1
    26   16   19 1
    27   19   20 2
    28   19   21 am
    29   21   22 1
    30   21   30 1
    31   22   24 1
    32   22   23 1
    33   22   31 1
    34   23   24 1
    35   23   32 1
    36   23   33 1
    37   24   34 1
    38   24   35 1
    39   25   36 1
    40   26   37 1
    41   27   38 1
    42   27   39 1
@<TRIPOS>MOLECULE
ZINC05163062
   39    42     0     0     0
SMALL
USER_CHARGES
(2S,3S,4R,5S)-5-(6-aminopurin-9-yl)-N-cyclopropyl-3,4-dihydroxy-tetrahydrofuran-2-carboxamide
@<TRIPOS>ATOM
      1 C1          8.6934   -4.3827   -1.6876 C.ar      1 <0>         0.3452
      2 N1          9.9544   -4.1683   -2.0167 N.ar      1 <0>        -0.5744
      3 C2         10.3497   -2.9951   -2.4997 C.ar      1 <0>         0.4472
      4 C3          9.3949   -1.9737   -2.6422 C.ar      1 <0>        -0.0604
      5 C4          8.0674   -2.2507   -2.2751 C.ar      1 <0>         0.2954
      6 N2          7.7647   -3.4579   -1.8084 N.ar      1 <0>        -0.5402
      7 N3          7.3603   -1.0999   -2.5161 N.pl3     1 <0>        -0.4596
      8 C5          8.2374   -0.1750   -2.9990 C.2       1 <0>         0.2968
      9 N4          9.4305   -0.6896   -3.0722 N.2       1 <0>        -0.4602
     10 C6          5.9267   -0.9000   -2.2899 C.3       1 <0>         0.3174
     11 H1          5.6070   -1.4139   -1.3834 H         1 <0>         0.1293
     12 C7          5.1080   -1.3884   -3.5120 C.3       1 <0>         0.0774
     13 H2          4.8945   -2.4546   -3.4361 H         1 <0>         0.0991
     14 C8          3.8096   -0.5547   -3.3867 C.3       1 <0>         0.0523
     15 H3          3.0268   -1.1382   -2.9021 H         1 <0>         0.0930
     16 C9          4.2134    0.6431   -2.5052 C.3       1 <0>         0.0413
     17 H4          4.0310    1.5751   -3.0402 H         1 <0>         0.1434
     18 O1          5.6151    0.5079   -2.2167 O.3       1 <0>        -0.3274
     19 C10         3.4222    0.6253   -1.2228 C.2       1 <0>         0.4937
     20 O2          3.9882    0.4572   -0.1634 O.2       1 <0>        -0.5082
     21 N5          2.0857    0.7962   -1.2531 N.am      1 <0>        -0.6981
     22 C11         1.3165    0.7789   -0.0063 C.3       1 <0>         0.0734
     23 C12        -0.0187    1.5258    0.0104 C.3       1 <0>        -0.1852
     24 C13         0.0021   -0.0041    0.0020 C.3       1 <0>        -0.1899
     25 O3          3.3772   -0.1060   -4.6727 O.3       1 <0>        -0.5383
     26 O4          5.7880   -1.0927   -4.7335 O.3       1 <0>        -0.5306
     27 N6         11.6735   -2.7794   -2.8404 N.pl3     1 <0>        -0.7426
     28 H5          8.4138   -5.3533   -1.3053 H         1 <0>         0.2066
     29 H6          7.9801    0.8357   -3.2797 H         1 <0>         0.2244
     30 H7          1.6330    0.9306   -2.1004 H         1 <0>         0.4008
     31 H8          1.9064    0.7818    0.9103 H         1 <0>         0.1406
     32 H9         -0.3248    2.0300   -0.9061 H         1 <0>         0.0993
     33 H10        -0.3072    2.0201    0.9381 H         1 <0>         0.1070
     34 H11        -0.2728   -0.5162    0.9241 H         1 <0>         0.1058
     35 H12        -0.2904   -0.5063   -0.9201 H         1 <0>         0.0983
     36 H13         2.6004    0.4693   -4.6479 H         1 <0>         0.3903
     37 H14         5.2766   -1.2981   -5.5281 H         1 <0>         0.3939
     38 H15        11.7331   -2.5361   -3.8085 H         1 <0>         0.3700
     39 H16        12.3232   -3.4923   -2.7375 H         1 <0>         0.3735
@<TRIPOS>BOND
     1    1    6 ar
     2    1    2 ar
     3    1   28 1
     4    2    3 ar
     5    3    4 ar
     6    3   27 1
     7    4    9 1
     8    4    5 ar
     9    5    6 ar
    10    5    7 1
    11    7    8 1
    12    7   10 1
    13    8    9 2
    14    8   29 1
    15   10   11 1
    16   10   18 1
    17   10   12 1
    18   12   13 1
    19   12   14 1
    20   12   26 1
    21   14   15 1
    22   14   16 1
    23   14   25 1
    24   16   17 1
    25   16   18 1
    26   16   19 1
    27   19   20 2
    28   19   21 am
    29   21   22 1
    30   21   30 1
    31   22   24 1
    32   22   23 1
    33   22   31 1
    34   23   24 1
    35   23   32 1
    36   23   33 1
    37   24   34 1
    38   24   35 1
    39   25   36 1
    40   26   37 1
    41   27   38 1
    42   27   39 1
@<TRIPOS>MOLECULE
ZINC06530699
   31    33     0     0     0
SMALL
USER_CHARGES

@<TRIPOS>ATOM
      1 C1         -0.0178    1.4608    0.0101 C.3       1 <0>         0.0850
      2 N1          0.0021   -0.0041    0.0020 N.am      1 <0>        -0.5111
      3 C2         -1.1897   -0.7124    0.0038 C.2       1 <0>         0.3278
      4 C3         -1.1428   -2.1029   -0.0044 C.2       1 <0>        -0.1445
      5 C4          0.1120   -2.7482   -0.0141 C.2       1 <0>         0.5940
      6 O1          0.1791   -3.9644   -0.0218 O.2       1 <0>        -0.5118
      7 N2          1.2366   -2.0029   -0.0150 N.am      1 <0>        -0.5508
      8 C5          1.1775   -0.6601   -0.0127 C.2       1 <0>         0.7084
      9 O2          2.2123   -0.0215   -0.0188 O.2       1 <0>        -0.5295
     10 C6          2.5422   -2.6674   -0.0245 C.3       1 <0>         0.0827
     11 N3         -2.4535   -2.5389   -0.0001 N.pl3     1 <0>        -0.5140
     12 H1         -2.7564   -3.4603   -0.0033 H         1 <0>         0.4370
     13 C7         -3.2382   -1.4264    0.0105 C.2       1 <0>         0.3432
     14 N4         -2.4728   -0.3531    0.0126 N.2       1 <0>        -0.4818
     15 C8         -4.7165   -1.4227    0.0178 C.ar      1 <0>        -0.0394
     16 C9         -5.4205   -2.6279    0.0200 C.ar      1 <0>        -0.0979
     17 C10        -6.8000   -2.6174    0.0273 C.ar      1 <0>        -0.1167
     18 C11        -7.4857   -1.4156    0.0321 C.ar      1 <0>        -0.0955
     19 C12        -6.7939   -0.2174    0.0300 C.ar      1 <0>        -0.1189
     20 C13        -5.4143   -0.2138    0.0285 C.ar      1 <0>        -0.0634
     21 H2          1.0048    1.8381    0.0023 H         1 <0>         0.1040
     22 H3         -0.5450    1.8219   -0.8730 H         1 <0>         0.0801
     23 H4         -0.5280    1.8123    0.9069 H         1 <0>         0.0802
     24 H5          2.3999   -3.7480   -0.0298 H         1 <0>         0.1040
     25 H6          3.0951   -2.3694   -0.9154 H         1 <0>         0.0835
     26 H7          3.1031   -2.3791    0.8645 H         1 <0>         0.0835
     27 H8         -4.8865   -3.5666    0.0155 H         1 <0>         0.1227
     28 H9         -7.3460   -3.5492    0.0290 H         1 <0>         0.1327
     29 H10        -8.5657   -1.4129    0.0371 H         1 <0>         0.1306
     30 H11        -7.3351    0.7173    0.0338 H         1 <0>         0.1342
     31 H12        -4.8755    0.7221    0.0310 H         1 <0>         0.1417
@<TRIPOS>BOND
     1    1    2 1
     2    1   21 1
     3    1   22 1
     4    1   23 1
     5    2    8 am
     6    2    3 1
     7    3   14 1
     8    3    4 2
     9    4    5 1
    10    4   11 1
    11    5    6 2
    12    5    7 am
    13    7    8 am
    14    7   10 1
    15    8    9 2
    16   10   24 1
    17   10   25 1
    18   10   26 1
    19   11   12 1
    20   11   13 1
    21   13   14 2
    22   13   15 1
    23   15   20 ar
    24   15   16 ar
    25   16   17 ar
    26   16   27 1
    27   17   18 ar
    28   17   28 1
    29   18   19 ar
    30   18   29 1
    31   19   20 ar
    32   19   30 1
    33   20   31 1
@<TRIPOS>MOLECULE
ZINC04217017
   48    51     0     0     0
SMALL
USER_CHARGES

@<TRIPOS>ATOM
      1 C1         -0.0158    1.3119    0.0093 C.ar      1 <0>         0.3642
      2 N1          1.0888    2.0360    0.0026 N.ar      1 <0>        -0.5868
      3 C2          2.2875    1.4625   -0.0119 C.ar      1 <0>         0.5089
      4 C3          2.3582    0.0588   -0.0202 C.ar      1 <0>        -0.1086
      5 C4          1.1547   -0.6659   -0.0126 C.ar      1 <0>         0.3136
      6 N2          0.0021   -0.0041    0.0020 N.ar      1 <0>        -0.5514
      7 N3          1.5110   -1.9908   -0.0227 N.pl3     1 <0>        -0.4718
      8 C5          2.8729   -2.0476   -0.0358 C.2       1 <0>         0.2611
      9 N4          3.3680   -0.8441   -0.0343 N.2       1 <0>        -0.4600
     10 C6          0.5956   -3.1347   -0.0195 C.3       1 <0>         0.3142
     11 H1         -0.2832   -2.9148    0.5866 H         1 <0>         0.1228
     12 C7          0.1775   -3.4928   -1.4629 C.3       1 <0>         0.0797
     13 H2          0.9267   -3.1463   -2.1747 H         1 <0>         0.0850
     14 C8          0.1056   -5.0362   -1.4608 C.3       1 <0>         0.0473
     15 H3          0.8193   -5.4528   -2.1716 H         1 <0>         0.0869
     16 C9          0.4888   -5.4280   -0.0165 C.3       1 <0>         0.0504
     17 H4         -0.4066   -5.5617    0.5906 H         1 <0>         0.1001
     18 O1          1.2661   -4.3138    0.4763 O.3       1 <0>        -0.3470
     19 C10         1.3272   -6.7078   -0.0164 C.3       1 <0>         0.0821
     20 O2          1.5723   -7.1166    1.3308 O.3       1 <0>        -0.5634
     21 O3         -1.2191   -5.4762   -1.7672 O.3       1 <0>        -0.5387
     22 O4         -1.0998   -2.9297   -1.7685 O.3       1 <0>        -0.5252
     23 N5          3.4393    2.2295   -0.0193 N.pl3     1 <0>        -0.6901
     24 C11         3.3458    3.6915   -0.0110 C.3       1 <0>         0.1521
     25 C12         3.2018    4.1852    1.4300 C.3       1 <0>        -0.1279
     26 C13         3.1042    5.7121    1.4386 C.3       1 <0>        -0.1161
     27 C14         4.3704    6.3075    0.8197 C.3       1 <0>        -0.1232
     28 C15         4.5144    5.8139   -0.6213 C.3       1 <0>        -0.1145
     29 C16         4.6120    4.2870   -0.6300 C.3       1 <0>        -0.1286
     30 H5         -0.9693    1.8187    0.0257 H         1 <0>         0.2042
     31 H6          3.4551   -2.9572   -0.0459 H         1 <0>         0.2223
     32 H7          0.7880   -7.4954   -0.5427 H         1 <0>         0.0671
     33 H8          2.2767   -6.5201   -0.5176 H         1 <0>         0.0609
     34 H9          2.0996   -7.9235    1.4072 H         1 <0>         0.3867
     35 H10        -1.3212   -6.4377   -1.7794 H         1 <0>         0.3873
     36 H11        -1.4113   -3.1237   -2.6632 H         1 <0>         0.3905
     37 H12         4.3085    1.7992   -0.0299 H         1 <0>         0.4159
     38 H13         2.4769    4.0033   -0.5905 H         1 <0>         0.0947
     39 H14         2.2998    3.7610    1.8710 H         1 <0>         0.0687
     40 H15         4.0708    3.8734    2.0094 H         1 <0>         0.0607
     41 H16         2.2352    6.0239    0.8592 H         1 <0>         0.0660
     42 H17         3.0016    6.0638    2.4652 H         1 <0>         0.0643
     43 H18         4.3008    7.3953    0.8258 H         1 <0>         0.0642
     44 H19         5.2393    5.9957    1.3991 H         1 <0>         0.0620
     45 H20         3.6454    6.1257   -1.2008 H         1 <0>         0.0661
     46 H21         5.4164    6.2381   -1.0623 H         1 <0>         0.0672
     47 H22         5.4809    3.9752   -0.0505 H         1 <0>         0.0677
     48 H23         4.7146    3.9353   -1.6566 H         1 <0>         0.0684
@<TRIPOS>BOND
     1    1    6 ar
     2    1    2 ar
     3    1   30 1
     4    2    3 ar
     5    3    4 ar
     6    3   23 1
     7    4    9 1
     8    4    5 ar
     9    5    6 ar
    10    5    7 1
    11    7    8 1
    12    7   10 1
    13    8    9 2
    14    8   31 1
    15   10   11 1
    16   10   18 1
    17   10   12 1
    18   12   13 1
    19   12   14 1
    20   12   22 1
    21   14   15 1
    22   14   16 1
    23   14   21 1
    24   16   17 1
    25   16   18 1
    26   16   19 1
    27   19   20 1
    28   19   32 1
    29   19   33 1
    30   20   34 1
    31   21   35 1
    32   22   36 1
    33   23   24 1
    34   23   37 1
    35   24   29 1
    36   24   25 1
    37   24   38 1
    38   25   26 1
    39   25   39 1
    40   25   40 1
    41   26   27 1
    42   26   41 1
    43   26   42 1
    44   27   28 1
    45   27   43 1
    46   27   44 1
    47   28   29 1
    48   28   45 1
    49   28   46 1
    50   29   47 1
    51   29   48 1
@<TRIPOS>MOLECULE
ZINC04475322
   51    54     0     0     0
SMALL
USER_CHARGES

@<TRIPOS>ATOM
      1 C1         -0.0187    1.5258    0.0104 C.3       1 <0>        -0.1631
      2 C2          0.0021   -0.0041    0.0020 C.3       1 <0>         0.1538
      3 H1          0.5293   -0.3651    0.8851 H         1 <0>         0.0970
      4 C3          0.7182   -0.4975   -1.2568 C.3       1 <0>        -0.0915
      5 C4          0.8473   -1.9981   -1.2057 C.ar      1 <0>        -0.0833
      6 C5          1.9579   -2.5768   -0.6205 C.ar      1 <0>        -0.1153
      7 C6          2.0763   -3.9532   -0.5737 C.ar      1 <0>        -0.1179
      8 C7          1.0839   -4.7510   -1.1116 C.ar      1 <0>        -0.1236
      9 C8         -0.0272   -4.1724   -1.6960 C.ar      1 <0>        -0.1166
     10 C9         -0.1477   -2.7959   -1.7390 C.ar      1 <0>        -0.1114
     11 N1         -1.3723   -0.5112    0.0124 N.pl3     1 <0>        -0.6847
     12 C10        -2.0462   -0.6591    1.2121 C.ar      1 <0>         0.5114
     13 C11        -3.3630   -1.1495    1.2414 C.ar      1 <0>        -0.1076
     14 C12        -3.9954   -1.2776    2.4893 C.ar      1 <0>         0.3133
     15 N2         -3.3315   -0.9338    3.5883 N.ar      1 <0>        -0.5521
     16 C13        -2.0986   -0.4792    3.5127 C.ar      1 <0>         0.3641
     17 N3         -1.4615   -0.3459    2.3635 N.ar      1 <0>        -0.5871
     18 N4         -5.2495   -1.7694    2.2292 N.pl3     1 <0>        -0.4716
     19 C14        -5.3550   -1.9261    0.8792 C.2       1 <0>         0.2599
     20 N5         -4.2472   -1.5619    0.3015 N.2       1 <0>        -0.4591
     21 C15        -6.2852   -2.0711    3.2205 C.3       1 <0>         0.3143
     22 H2         -5.8341   -2.4623    4.1324 H         1 <0>         0.1224
     23 C16        -7.1166   -0.8068    3.5314 C.3       1 <0>         0.0799
     24 H3         -7.0713   -0.1054    2.6982 H         1 <0>         0.0849
     25 C17        -8.5557   -1.3392    3.7133 C.3       1 <0>         0.0472
     26 H4         -9.2218   -0.9010    2.9700 H         1 <0>         0.0868
     27 C18        -8.4234   -2.8621    3.4907 C.3       1 <0>         0.0504
     28 H5         -8.3019   -3.3758    4.4444 H         1 <0>         0.1000
     29 O1         -7.2349   -3.0173    2.6833 O.3       1 <0>        -0.3469
     30 C19        -9.6487   -3.4004    2.7493 C.3       1 <0>         0.0822
     31 O2         -9.5620   -4.8238    2.6564 O.3       1 <0>        -0.5634
     32 O3         -9.0288   -1.0625    5.0330 O.3       1 <0>        -0.5387
     33 O4         -6.6539   -0.1861    4.7325 O.3       1 <0>        -0.5251
     34 H6          1.0039    1.9031    0.0027 H         1 <0>         0.0681
     35 H7         -0.5459    1.8868   -0.8726 H         1 <0>         0.0555
     36 H8         -0.5289    1.8773    0.9072 H         1 <0>         0.0645
     37 H9          0.1430   -0.2121   -2.1375 H         1 <0>         0.0786
     38 H10         1.7103   -0.0491   -1.3098 H         1 <0>         0.0924
     39 H11         2.7333   -1.9534   -0.2002 H         1 <0>         0.1218
     40 H12         2.9444   -4.4053   -0.1171 H         1 <0>         0.1212
     41 H13         1.1767   -5.8264   -1.0757 H         1 <0>         0.1199
     42 H14        -0.8025   -4.7957   -2.1166 H         1 <0>         0.1203
     43 H15        -1.0175   -2.3439   -2.1923 H         1 <0>         0.1175
     44 H16        -1.8100   -0.7432   -0.8215 H         1 <0>         0.4144
     45 H17        -1.5876   -0.2084    4.4248 H         1 <0>         0.2035
     46 H18        -6.2290   -2.2977    0.3649 H         1 <0>         0.2215
     47 H19       -10.5523   -3.1263    3.2938 H         1 <0>         0.0670
     48 H20        -9.6843   -2.9724    1.7475 H         1 <0>         0.0609
     49 H21       -10.3074   -5.2341    2.1971 H         1 <0>         0.3867
     50 H22        -9.9281   -1.3753    5.2020 H         1 <0>         0.3872
     51 H23        -7.1412    0.6131    4.9751 H         1 <0>         0.3903
@<TRIPOS>BOND
     1    1    2 1
     2    1   34 1
     3    1   35 1
     4    1   36 1
     5    2    3 1
     6    2    4 1
     7    2   11 1
     8    4    5 1
     9    4   37 1
    10    4   38 1
    11    5   10 ar
    12    5    6 ar
    13    6    7 ar
    14    6   39 1
    15    7    8 ar
    16    7   40 1
    17    8    9 ar
    18    8   41 1
    19    9   10 ar
    20    9   42 1
    21   10   43 1
    22   11   12 1
    23   11   44 1
    24   12   17 ar
    25   12   13 ar
    26   13   20 1
    27   13   14 ar
    28   14   15 ar
    29   14   18 1
    30   15   16 ar
    31   16   17 ar
    32   16   45 1
    33   18   19 1
    34   18   21 1
    35   19   20 2
    36   19   46 1
    37   21   22 1
    38   21   29 1
    39   21   23 1
    40   23   24 1
    41   23   25 1
    42   23   33 1
    43   25   26 1
    44   25   27 1
    45   25   32 1
    46   27   28 1
    47   27   29 1
    48   27   30 1
    49   30   31 1
    50   30   47 1
    51   30   48 1
    52   31   49 1
    53   32   50 1
    54   33   51 1
