@<TRIPOS>MOLECULE
ZINC13818926
   48    51     0     0     0
SMALL
USER_CHARGES
ethyl 1-[6-amino-9-[(2R,3R,4S,5R)-3,4-dihydroxy-5-(hydroxymethyl)tetrahydrofuran-2-yl]purin-2-yl]pyrazole-4-carboxylate
@<TRIPOS>ATOM
      1 C1          6.2622   -3.2588  -11.2160 C.3       1 <0>        -0.1538
      2 C2          7.1226   -2.8914  -10.0053 C.3       1 <0>         0.0647
      3 O1          6.2700   -2.4061   -8.9349 O.3       1 <0>        -0.3523
      4 C3          6.8761   -2.0378   -7.7891 C.2       1 <0>         0.5488
      5 O2          8.0843   -2.1199   -7.6873 O.2       1 <0>        -0.5134
      6 C4          6.0744   -1.5357   -6.6603 C.2       1 <0>        -0.2685
      7 C5          4.6683   -1.3851   -6.6303 C.2       1 <0>         0.1118
      8 N1          4.3359   -0.9203   -5.4581 N.2       1 <0>        -0.2491
      9 N2          5.4950   -0.7431   -4.6945 N.pl3     1 <0>        -0.2996
     10 C6          6.5545   -1.1243   -5.4330 C.2       1 <0>         0.1728
     11 C7          5.5442   -0.2589   -3.3868 C.ar      1 <0>         0.6010
     12 N3          6.7223   -0.1518   -2.7883 N.ar      1 <0>        -0.5821
     13 C8          6.8220    0.3038   -1.5448 C.ar      1 <0>         0.4817
     14 C9          5.6461    0.6738   -0.8687 C.ar      1 <0>        -0.0704
     15 C10         4.4205    0.5370   -1.5419 C.ar      1 <0>         0.3260
     16 N4          4.4149    0.0772   -2.7887 N.ar      1 <0>        -0.5058
     17 N5          3.4569    0.9668   -0.6647 N.pl3     1 <0>        -0.4680
     18 C11         4.0876    1.3348    0.4870 C.2       1 <0>         0.2807
     19 N6          5.3716    1.1621    0.3651 N.2       1 <0>        -0.4466
     20 C12         2.0146    1.0153   -0.9168 C.3       1 <0>         0.3114
     21 H1          1.8201    1.3123   -1.9474 H         1 <0>         0.1260
     22 C13         1.3706   -0.3575   -0.6221 C.3       1 <0>         0.0785
     23 H2          1.9790   -0.9208    0.0855 H         1 <0>         0.0859
     24 C14         0.0021   -0.0041    0.0020 C.3       1 <0>         0.0474
     25 H3         -0.0661   -0.3925    1.0182 H         1 <0>         0.0885
     26 C15        -0.0189    1.5406    0.0105 C.3       1 <0>         0.0504
     27 H4         -0.5253    1.9181   -0.8778 H         1 <0>         0.1014
     28 O3          1.3722    1.9285   -0.0007 O.3       1 <0>        -0.3458
     29 C16        -0.7057    2.0570    1.2764 C.3       1 <0>         0.0819
     30 O4         -0.8186    3.4800    1.2104 O.3       1 <0>        -0.5635
     31 O5         -1.0642   -0.5149   -0.8005 O.3       1 <0>        -0.5395
     32 O6          1.1932   -1.0974   -1.8317 O.3       1 <0>        -0.5235
     33 N7          8.0560    0.4117   -0.9281 N.pl3     1 <0>        -0.7335
     34 H5          6.9023   -3.6231  -12.0195 H         1 <0>         0.0810
     35 H6          5.5531   -4.0374  -10.9349 H         1 <0>         0.0677
     36 H7          5.7183   -2.3775  -11.5560 H         1 <0>         0.0676
     37 H8          7.8317   -2.1128  -10.2863 H         1 <0>         0.0716
     38 H9          7.6666   -3.7727   -9.6653 H         1 <0>         0.0716
     39 H10         3.9881   -1.6192   -7.4359 H         1 <0>         0.2105
     40 H11         7.5889   -1.1102   -5.1227 H         1 <0>         0.2032
     41 H12         3.5943    1.7132    1.3701 H         1 <0>         0.2312
     42 H13        -1.6997    1.6169    1.3558 H         1 <0>         0.0679
     43 H14        -0.1148    1.7795    2.1493 H         1 <0>         0.0619
     44 H15        -1.2456    3.8769    1.9819 H         1 <0>         0.3874
     45 H16        -1.9453   -0.2710   -0.4854 H         1 <0>         0.3888
     46 H17         0.7383   -1.9425   -1.7128 H         1 <0>         0.3919
     47 H18         8.2203    1.3653   -0.6758 H         1 <0>         0.3762
     48 H19         8.8605    0.1534   -1.4045 H         1 <0>         0.3779
@<TRIPOS>BOND
     1    1    2 1
     2    1   34 1
     3    1   35 1
     4    1   36 1
     5    2    3 1
     6    2   37 1
     7    2   38 1
     8    3    4 1
     9    4    5 2
    10    4    6 1
    11    6   10 2
    12    6    7 1
    13    7    8 2
    14    7   39 1
    15    8    9 1
    16    9   10 1
    17    9   11 1
    18   10   40 1
    19   11   16 ar
    20   11   12 ar
    21   12   13 ar
    22   13   14 ar
    23   13   33 1
    24   14   19 1
    25   14   15 ar
    26   15   16 ar
    27   15   17 1
    28   17   18 1
    29   17   20 1
    30   18   19 2
    31   18   41 1
    32   20   21 1
    33   20   28 1
    34   20   22 1
    35   22   23 1
    36   22   24 1
    37   22   32 1
    38   24   25 1
    39   24   26 1
    40   24   31 1
    41   26   27 1
    42   26   28 1
    43   26   29 1
    44   29   30 1
    45   29   42 1
    46   29   43 1
    47   30   44 1
    48   31   45 1
    49   32   46 1
    50   33   47 1
    51   33   48 1
@<TRIPOS>MOLECULE
ZINC13819003
   53    56     0     0     0
SMALL
USER_CHARGES
(2R,3R,4S,5R)-2-[6-amino-2-((N'Z)-N'-(cyclohexylmethylene)hydrazino)purin-9-yl]-5-(hydroxymethyl)tetrahydrofuran-3,4-diol
@<TRIPOS>ATOM
      1 C1          1.5931   -6.6713   -0.5131 C.2       1 <0>         0.2576
      2 N1          0.3388   -6.3362   -0.4293 N.2       1 <0>        -0.4445
      3 C2          0.2373   -4.9878   -0.3336 C.ar      1 <0>        -0.1074
      4 C3         -0.8345   -4.0847   -0.2209 C.ar      1 <0>         0.4783
      5 N2         -0.5657   -2.7868   -0.1411 N.ar      1 <0>        -0.5758
      6 C4          0.6843   -2.3415   -0.1772 C.ar      1 <0>         0.6323
      7 N3          1.7215   -3.1564   -0.2827 N.ar      1 <0>        -0.5771
      8 C5          1.5431   -4.4712   -0.3625 C.ar      1 <0>         0.3483
      9 N4          2.3767   -5.5550   -0.4762 N.pl3     1 <0>        -0.4744
     10 C6          3.8396   -5.5200   -0.5459 C.3       1 <0>         0.3177
     11 H1          4.1744   -4.6655   -1.1340 H         1 <0>         0.1210
     12 C7          4.4530   -5.4773    0.8769 C.3       1 <0>         0.0776
     13 H2          3.8790   -6.0960    1.5667 H         1 <0>         0.0909
     14 C8          5.8617   -6.0744    0.6407 C.3       1 <0>         0.0450
     15 H3          6.1350   -6.7421    1.4578 H         1 <0>         0.0880
     16 C9          5.7221   -6.8624   -0.6761 C.3       1 <0>         0.0530
     17 H4          6.3801   -6.4373   -1.4340 H         1 <0>         0.0988
     18 O1          4.3520   -6.7524   -1.0967 O.3       1 <0>        -0.3470
     19 C10         6.0783   -8.3321   -0.4432 C.3       1 <0>         0.0769
     20 O2          6.0591   -9.0302   -1.6899 O.3       1 <0>        -0.5628
     21 O3          6.8294   -5.0324    0.4998 O.3       1 <0>        -0.5361
     22 O4          4.5422   -4.1332    1.3536 O.3       1 <0>        -0.5210
     23 N5          0.9112   -0.9768   -0.0959 N.pl3     1 <0>        -0.5490
     24 N6         -0.1697   -0.0925    0.0164 N.2       1 <0>        -0.2099
     25 C11         0.0318    1.1714   -0.0114 C.2       1 <0>         0.0703
     26 C12         1.4391    1.7095   -0.0443 C.3       1 <0>        -0.0949
     27 C13         1.7215    2.4781    1.2481 C.3       1 <0>        -0.1058
     28 C14         3.1503    3.0244    1.2147 C.3       1 <0>        -0.1206
     29 C15         3.3092    3.9638    0.0176 C.3       1 <0>        -0.1210
     30 C16         3.0268    3.1952   -1.2748 C.3       1 <0>        -0.1211
     31 C17         1.5980    2.6489   -1.2414 C.3       1 <0>        -0.1070
     32 N7         -2.1410   -4.5391   -0.1882 N.pl3     1 <0>        -0.7399
     33 H5          1.9599   -7.6835   -0.5988 H         1 <0>         0.2235
     34 H6          7.0738   -8.3995   -0.0043 H         1 <0>         0.0659
     35 H7          5.3513   -8.7791    0.2348 H         1 <0>         0.0596
     36 H8          6.2762   -9.9698   -1.6179 H         1 <0>         0.3862
     37 H9          7.7304   -5.3499    0.3498 H         1 <0>         0.3858
     38 H10         4.9199   -4.0546    2.2403 H         1 <0>         0.3863
     39 H11         1.8183   -0.6338   -0.1167 H         1 <0>         0.4032
     40 H12        -0.8068    1.8519   -0.0158 H         1 <0>         0.1817
     41 H13         2.1425    0.8819   -0.1359 H         1 <0>         0.0713
     42 H14         1.0181    3.3057    1.3398 H         1 <0>         0.0727
     43 H15         1.6083    1.8089    2.1010 H         1 <0>         0.0630
     44 H16         3.8537    2.1968    1.1231 H         1 <0>         0.0614
     45 H17         3.3515    3.5720    2.1355 H         1 <0>         0.0657
     46 H18         4.3271    4.3530   -0.0062 H         1 <0>         0.0623
     47 H19         2.6058    4.7914    0.1093 H         1 <0>         0.0642
     48 H20         3.7302    2.3676   -1.3665 H         1 <0>         0.0613
     49 H21         3.1400    3.8645   -2.1277 H         1 <0>         0.0656
     50 H22         1.3968    2.1013   -2.1622 H         1 <0>         0.0640
     51 H23         0.8946    3.4765   -1.1498 H         1 <0>         0.0725
     52 H24        -2.3416   -5.0379   -1.0314 H         1 <0>         0.3705
     53 H25        -2.8726   -3.9070   -0.1102 H         1 <0>         0.3734
@<TRIPOS>BOND
     1    1    9 1
     2    1    2 2
     3    1   33 1
     4    2    3 1
     5    3    8 ar
     6    3    4 ar
     7    4    5 ar
     8    4   32 1
     9    5    6 ar
    10    6    7 ar
    11    6   23 1
    12    7    8 ar
    13    8    9 1
    14    9   10 1
    15   10   11 1
    16   10   18 1
    17   10   12 1
    18   12   13 1
    19   12   14 1
    20   12   22 1
    21   14   15 1
    22   14   16 1
    23   14   21 1
    24   16   17 1
    25   16   18 1
    26   16   19 1
    27   19   20 1
    28   19   34 1
    29   19   35 1
    30   20   36 1
    31   21   37 1
    32   22   38 1
    33   23   24 1
    34   23   39 1
    35   24   25 2
    36   25   26 1
    37   25   40 1
    38   26   31 1
    39   26   27 1
    40   26   41 1
    41   27   28 1
    42   27   42 1
    43   27   43 1
    44   28   29 1
    45   28   44 1
    46   28   45 1
    47   29   30 1
    48   29   46 1
    49   29   47 1
    50   30   31 1
    51   30   48 1
    52   30   49 1
    53   31   50 1
    54   31   51 1
    55   32   52 1
    56   32   53 1
@<TRIPOS>MOLECULE
ZINC13579578
   20    21     0     0     0
SMALL
USER_CHARGES
7-methyl-1H-1,8-naphthyridin-4-one
@<TRIPOS>ATOM
      1 C1         -2.4908    3.9133    0.0454 C.3       1 <0>        -0.1121
      2 C2         -1.1863    3.1590    0.0294 C.ar      1 <0>         0.2000
      3 C3         -1.2069    1.7725    0.0173 C.ar      1 <0>        -0.2151
      4 C4         -0.0126    1.0758    0.0080 C.ar      1 <0>         0.0165
      5 C5          1.1742    1.8120    0.0006 C.ar      1 <0>        -0.2544
      6 C6          2.4912    1.1546   -0.0146 C.2       1 <0>         0.4197
      7 O1          2.5895   -0.0614   -0.0212 O.2       1 <0>        -0.4956
      8 C7          3.6397    1.9822   -0.0206 C.2       1 <0>        -0.3194
      9 C8          3.5025    3.3238   -0.0126 C.2       1 <0>         0.1877
     10 N1          2.2926    3.9347    0.0013 N.pl3     1 <0>        -0.6119
     11 H1          2.2310    5.0330    0.0074 H         1 <0>         0.4527
     12 C9          1.1201    3.2174    0.0082 C.ar      1 <0>         0.3887
     13 N2         -0.0552    3.8324    0.0222 N.ar      1 <0>        -0.5296
     14 H2         -3.3273    3.1990    0.0496 H         1 <0>         0.0823
     15 H3         -2.5570    4.5502   -0.8490 H         1 <0>         0.0851
     16 H4         -2.5402    4.5412    0.9472 H         1 <0>         0.0851
     17 H5         -2.1473    1.2415    0.0188 H         1 <0>         0.1454
     18 H6          0.0021   -0.0041    0.0020 H         1 <0>         0.1506
     19 H7          4.6248    1.5396   -0.0321 H         1 <0>         0.1541
     20 H8          4.3923    3.9360   -0.0171 H         1 <0>         0.1703
@<TRIPOS>BOND
     1    1    2 1
     2    1   14 1
     3    1   15 1
     4    1   16 1
     5    2   13 ar
     6    2    3 ar
     7    3    4 ar
     8    3   17 1
     9    4    5 ar
    10    4   18 1
    11    5   12 ar
    12    5    6 1
    13    6    7 2
    14    6    8 1
    15    8    9 2
    16    8   19 1
    17    9   10 1
    18    9   20 1
    19   10   11 1
    20   10   12 1
    21   12   13 ar
@<TRIPOS>MOLECULE
ZINC15880093
   34    36     0     0     0
SMALL
USER_CHARGES

@<TRIPOS>ATOM
      1 C1         -0.0178    1.4608    0.0101 C.3       1 <0>         0.0854
      2 N1          0.0021   -0.0041    0.0020 N.am      1 <0>        -0.5106
      3 C2         -1.1889   -0.7120    0.0039 C.2       1 <0>         0.3238
      4 C3         -1.1437   -2.1005   -0.0039 C.2       1 <0>        -0.1540
      5 C4          0.1107   -2.7476   -0.0134 C.2       1 <0>         0.5938
      6 O1          0.1765   -3.9638   -0.0207 O.2       1 <0>        -0.5125
      7 N2          1.2361   -2.0032   -0.0148 N.am      1 <0>        -0.5511
      8 C5          1.1776   -0.6603   -0.0127 C.2       1 <0>         0.7080
      9 O2          2.2126   -0.0219   -0.0196 O.2       1 <0>        -0.5321
     10 C6          2.5413   -2.6685   -0.0246 C.3       1 <0>         0.0833
     11 N3         -2.4557   -2.5297    0.0001 N.pl3     1 <0>        -0.5129
     12 H1         -2.7618   -3.4502   -0.0030 H         1 <0>         0.4351
     13 C7         -3.2306   -1.4275    0.0098 C.2       1 <0>         0.3086
     14 N4         -2.4766   -0.3579    0.0120 N.2       1 <0>        -0.4911
     15 C8         -4.7376   -1.4266    0.0162 C.3       1 <0>        -0.0169
     16 C9         -5.2635   -2.6576    0.7829 C.3       1 <0>        -0.1247
     17 C10        -6.5224   -3.0893   -0.0094 C.3       1 <0>        -0.1243
     18 C11        -6.1023   -2.8421   -1.4796 C.3       1 <0>        -0.1289
     19 C12        -5.2709   -1.5439   -1.4224 C.3       1 <0>        -0.1171
     20 H2          1.0048    1.8381    0.0023 H         1 <0>         0.1034
     21 H3         -0.5450    1.8219   -0.8730 H         1 <0>         0.0796
     22 H4         -0.5280    1.8123    0.9069 H         1 <0>         0.0799
     23 H5          2.8601   -2.8279   -1.0547 H         1 <0>         0.0772
     24 H6          3.2716   -2.0434    0.4891 H         1 <0>         0.0972
     25 H7          2.4632   -3.6292    0.4844 H         1 <0>         0.0953
     26 H8         -5.1081   -0.5116    0.4783 H         1 <0>         0.1182
     27 H9         -4.5198   -3.4544    0.7812 H         1 <0>         0.0624
     28 H10        -5.5302   -2.3856    1.8042 H         1 <0>         0.0826
     29 H11        -6.7412   -4.1439    0.1577 H         1 <0>         0.0739
     30 H12        -7.3782   -2.4691    0.2573 H         1 <0>         0.0763
     31 H13        -5.4941   -3.6687   -1.8467 H         1 <0>         0.0666
     32 H14        -6.9812   -2.7047   -2.1096 H         1 <0>         0.0745
     33 H15        -5.9010   -0.6863   -1.6581 H         1 <0>         0.0826
     34 H16        -4.4397   -1.6015   -2.1252 H         1 <0>         0.0685
@<TRIPOS>BOND
     1    1    2 1
     2    1   20 1
     3    1   21 1
     4    1   22 1
     5    2    8 am
     6    2    3 1
     7    3   14 1
     8    3    4 2
     9    4    5 1
    10    4   11 1
    11    5    6 2
    12    5    7 am
    13    7    8 am
    14    7   10 1
    15    8    9 2
    16   10   23 1
    17   10   24 1
    18   10   25 1
    19   11   12 1
    20   11   13 1
    21   13   14 2
    22   13   15 1
    23   15   19 1
    24   15   16 1
    25   15   26 1
    26   16   17 1
    27   16   27 1
    28   16   28 1
    29   17   18 1
    30   17   29 1
    31   17   30 1
    32   18   19 1
    33   18   31 1
    34   18   32 1
    35   19   33 1
    36   19   34 1
@<TRIPOS>MOLECULE
ZINC12587586
   42    44     0     0     0
SMALL
USER_CHARGES

@<TRIPOS>ATOM
      1 C1         -0.2406    1.5857    0.0964 C.3       1 <0>        -0.1047
      2 C2         -0.1745    0.0805    0.0623 C.ar      1 <0>         0.2356
      3 C3         -0.1663   -0.6123   -1.1628 C.ar      1 <0>        -0.2143
      4 C4         -0.2179    0.0548   -2.3953 C.ar      1 <0>        -0.0654
      5 C5         -0.2067   -0.6679   -3.5503 C.ar      1 <0>        -0.1532
      6 C6         -0.1452   -2.0595   -3.5244 C.ar      1 <0>        -0.0888
      7 C7         -0.0940   -2.7393   -2.3449 C.ar      1 <0>        -0.1005
      8 C8         -0.1031   -2.0292   -1.1353 C.ar      1 <0>         0.1934
      9 N1         -0.0539   -2.6485    0.0507 N.ar      1 <0>        -0.4569
     10 C9         -0.0645   -1.9468    1.1661 C.ar      1 <0>         0.5570
     11 N2         -0.1177   -0.6166    1.1777 N.ar      1 <0>        -0.5611
     12 N3         -0.0123   -2.6215    2.3777 N.pl3     1 <0>        -0.6243
     13 C10         0.0486   -3.9878    2.3976 C.2       1 <0>         0.6002
     14 N4          0.2019   -4.6266    3.5461 N.2       1 <0>        -0.7659
     15 C11         0.1862   -3.9440    4.7003 C.2       1 <0>         0.5510
     16 O1         -0.7851   -3.2706    4.9967 O.2       1 <0>        -0.6096
     17 C12         1.3466   -4.0085    5.6126 C.ar      1 <0>        -0.2043
     18 C13         2.4084   -4.8725    5.3381 C.ar      1 <0>        -0.0130
     19 C14         3.4880   -4.9284    6.1926 C.ar      1 <0>        -0.2077
     20 C15         3.5261   -4.1309    7.3253 C.ar      1 <0>        -0.0610
     21 C16         2.4841   -3.2724    7.6102 C.ar      1 <0>        -0.2265
     22 C17         1.3906   -3.1980    6.7563 C.ar      1 <0>         0.2543
     23 N5          0.3427   -2.3297    7.0377 N.pl3     1 <0>        -0.7376
     24 C18         0.4444   -1.4001    8.1654 C.3       1 <0>         0.0904
     25 N6         -0.0487   -4.6917    1.2335 N.2       1 <0>        -0.8096
     26 H1          0.7698    1.9942    0.0808 H         1 <0>         0.0847
     27 H2         -0.7912    1.9450   -0.7729 H         1 <0>         0.0803
     28 H3         -0.7482    1.9066    1.0061 H         1 <0>         0.0820
     29 H4         -0.2666    1.1332   -2.4287 H         1 <0>         0.1250
     30 H5         -0.2465   -0.1545   -4.4996 H         1 <0>         0.1196
     31 H6         -0.1384   -2.6084   -4.4545 H         1 <0>         0.1235
     32 H7         -0.0469   -3.8182   -2.3412 H         1 <0>         0.1375
     33 H8         -0.0190   -2.1242    3.2105 H         1 <0>         0.4153
     34 H9          2.3835   -5.4967    4.4571 H         1 <0>         0.1327
     35 H10         4.3084   -5.5973    5.9787 H         1 <0>         0.1133
     36 H11         4.3764   -4.1819    7.9893 H         1 <0>         0.1128
     37 H12         2.5209   -2.6543    8.4951 H         1 <0>         0.1153
     38 H13        -0.4560   -2.3391    6.4874 H         1 <0>         0.4192
     39 H14        -0.4664   -0.8046    8.2286 H         1 <0>         0.0679
     40 H15         0.5753   -1.9630    9.0896 H         1 <0>         0.0454
     41 H16         1.2998   -0.7411    8.0171 H         1 <0>         0.0458
     42 H17        -0.0055   -5.6607    1.2475 H         1 <0>         0.3023
@<TRIPOS>BOND
     1    1    2 1
     2    1   26 1
     3    1   27 1
     4    1   28 1
     5    2   11 ar
     6    2    3 ar
     7    3    8 ar
     8    3    4 ar
     9    4    5 ar
    10    4   29 1
    11    5    6 ar
    12    5   30 1
    13    6    7 ar
    14    6   31 1
    15    7    8 ar
    16    7   32 1
    17    8    9 ar
    18    9   10 ar
    19   10   11 ar
    20   10   12 1
    21   12   13 1
    22   12   33 1
    23   13   14 2
    24   13   25 1
    25   14   15 1
    26   15   16 2
    27   15   17 1
    28   17   22 ar
    29   17   18 ar
    30   18   19 ar
    31   18   34 1
    32   19   20 ar
    33   19   35 1
    34   20   21 ar
    35   20   36 1
    36   21   22 ar
    37   21   37 1
    38   22   23 1
    39   23   24 1
    40   23   38 1
    41   24   39 1
    42   24   40 1
    43   24   41 1
    44   25   42 1
@<TRIPOS>MOLECULE
ZINC12652570
   43    45     0     0     0
SMALL
USER_CHARGES

@<TRIPOS>ATOM
      1 C1          2.5479   -0.6639   -1.2180 C.3       1 <0>        -0.1067
      2 C2          1.2327   -1.0332   -0.5817 C.ar      1 <0>         0.1915
      3 C3          0.0368   -0.6992   -1.1993 C.ar      1 <0>        -0.2637
      4 C4         -1.1529   -1.0568   -0.5829 C.ar      1 <0>         0.1905
      5 N1         -1.1147   -1.7023    0.5698 N.ar      1 <0>        -0.5439
      6 C5          0.0486   -2.0090    1.1381 C.ar      1 <0>         0.5368
      7 N2          1.2062   -1.6838    0.5685 N.ar      1 <0>        -0.5442
      8 N3          0.0546   -2.6742    2.3253 N.2       1 <0>        -0.6158
      9 C6          0.1460   -2.0040    3.4551 C.2       1 <0>         0.6943
     10 N4          0.2599   -2.6760    4.6422 N.pl3     1 <0>        -0.8310
     11 N5          0.1270   -0.6353    3.4424 N.pl3     1 <0>        -0.7508
     12 C7          0.3429    0.1118    4.6840 C.3       1 <0>         0.1135
     13 C8          0.2723    1.6126    4.3950 C.3       1 <0>        -0.0512
     14 C9          0.4944    2.3810    5.6722 C.2       1 <0>        -0.1748
     15 C10        -0.4551    2.8511    6.4964 C.2       1 <0>         0.0737
     16 N6          0.1237    3.4967    7.5548 N.pl3     1 <0>        -0.5908
     17 H1         -0.3598    3.9196    8.2817 H         1 <0>         0.4204
     18 C11         1.4960    3.4567    7.4341 C.ar      1 <0>         0.0858
     19 C12         1.7875    2.7511    6.2527 C.ar      1 <0>        -0.0749
     20 C13         3.1153    2.5470    5.8718 C.ar      1 <0>        -0.1089
     21 C14         4.1335    3.0374    6.6608 C.ar      1 <0>         0.0759
     22 C15         3.8438    3.7311    7.8298 C.ar      1 <0>        -0.1301
     23 C16         2.5383    3.9468    8.2132 C.ar      1 <0>        -0.0969
     24 F1          5.4197    2.8423    6.2962 F         1 <0>        -0.1400
     25 C17        -2.4745   -0.7126   -1.2200 C.3       1 <0>        -0.1063
     26 H2          2.8715   -1.4693   -1.8773 H         1 <0>         0.0842
     27 H3          2.4273    0.2524   -1.7960 H         1 <0>         0.0793
     28 H4          3.2962   -0.5075   -0.4411 H         1 <0>         0.0800
     29 H5          0.0320   -0.1710   -2.1413 H         1 <0>         0.1416
     30 H6          0.2733   -3.6458    4.6512 H         1 <0>         0.4234
     31 H7         -0.0293   -0.1601    2.6114 H         1 <0>         0.4092
     32 H8         -0.4272   -0.1556    5.4075 H         1 <0>         0.0681
     33 H9          1.3241   -0.1343    5.0901 H         1 <0>         0.0700
     34 H10         1.0425    1.8799    3.6715 H         1 <0>         0.0784
     35 H11        -0.7088    1.8586    3.9889 H         1 <0>         0.0791
     36 H12        -1.5185    2.7370    6.3462 H         1 <0>         0.1747
     37 H13         3.3431    2.0077    4.9643 H         1 <0>         0.1344
     38 H14         4.6500    4.1101    8.4404 H         1 <0>         0.1400
     39 H15         2.3248    4.4863    9.1241 H         1 <0>         0.1321
     40 H16        -2.7843   -1.5259   -1.8762 H         1 <0>         0.0841
     41 H17        -3.2252   -0.5665   -0.4432 H         1 <0>         0.0799
     42 H18        -2.3701    0.2035   -1.8012 H         1 <0>         0.0792
     43 H19         0.3272   -2.1823    5.4745 H         1 <0>         0.4099
@<TRIPOS>BOND
     1    1    2 1
     2    1   26 1
     3    1   27 1
     4    1   28 1
     5    2    7 ar
     6    2    3 ar
     7    3    4 ar
     8    3   29 1
     9    4    5 ar
    10    4   25 1
    11    5    6 ar
    12    6    7 ar
    13    6    8 1
    14    8    9 2
    15    9   10 1
    16    9   11 1
    17   10   30 1
    18   10   43 1
    19   11   12 1
    20   11   31 1
    21   12   13 1
    22   12   32 1
    23   12   33 1
    24   13   14 1
    25   13   34 1
    26   13   35 1
    27   14   19 1
    28   14   15 2
    29   15   16 1
    30   15   36 1
    31   16   17 1
    32   16   18 1
    33   18   23 ar
    34   18   19 ar
    35   19   20 ar
    36   20   21 ar
    37   20   37 1
    38   21   22 ar
    39   21   24 1
    40   22   23 ar
    41   22   38 1
    42   23   39 1
    43   25   40 1
    44   25   41 1
    45   25   42 1
@<TRIPOS>MOLECULE
ZINC04600602
   38    41     0     0     0
SMALL
USER_CHARGES
2-amino-7-methoxy-4-(4-pyridyl)dibenzofuran-1,3-dicarbonitrile
@<TRIPOS>ATOM
      1 C1         -0.1414    4.0582    0.0243 C.3       1 <0>         0.0234
      2 O1          1.1459    3.4381    0.0091 O.3       1 <0>        -0.3060
      3 C2          1.1762    2.0799    0.0020 C.ar      1 <0>         0.1857
      4 C3         -0.0165    1.3629    0.0095 C.ar      1 <0>        -0.2218
      5 C4          0.0021   -0.0041    0.0020 C.ar      1 <0>        -0.0030
      6 C5          1.2192   -0.6818   -0.0132 C.ar      1 <0>        -0.1830
      7 C6          2.4282    0.0319   -0.0210 C.ar      1 <0>         0.1512
      8 C7          2.3932    1.4202   -0.0131 C.ar      1 <0>        -0.1605
      9 O2          3.4473   -0.8538   -0.0355 O.3       1 <0>        -0.1795
     10 C8          2.9953   -2.1286   -0.0380 C.ar      1 <0>         0.0374
     11 C9          1.5959   -2.1048   -0.0244 C.ar      1 <0>         0.0221
     12 C10         0.8590   -3.3036   -0.0241 C.ar      1 <0>        -0.0720
     13 C11         1.5309   -4.5334   -0.0375 C.ar      1 <0>         0.3115
     14 C12         2.9333   -4.5591   -0.0512 C.ar      1 <0>        -0.0691
     15 C13         3.6632   -3.3567   -0.0505 C.ar      1 <0>         0.0915
     16 C14         5.1432   -3.3917   -0.0654 C.ar      1 <0>        -0.0284
     17 C15         5.8630   -2.9017   -1.1607 C.ar      1 <0>        -0.1413
     18 C16         7.2414   -2.9500   -1.1308 C.ar      1 <0>         0.1049
     19 N1          7.8792   -3.4577   -0.0936 N.ar      1 <0>        -0.4756
     20 C17         7.2392   -3.9344    0.9569 C.ar      1 <0>         0.1056
     21 C18         5.8608   -3.9211    1.0128 C.ar      1 <0>        -0.1475
     22 C19         3.6242   -5.8133   -0.0654 C.1       1 <0>         0.2507
     23 N2          4.1722   -6.8083   -0.0767 N.1       1 <0>        -0.3886
     24 N3          0.8130   -5.7190   -0.0369 N.pl3     1 <0>        -0.8440
     25 C20        -0.5725   -3.2671   -0.0106 C.1       1 <0>         0.2550
     26 N4         -1.7080   -3.2381    0.0001 N.1       1 <0>        -0.4021
     27 H1         -0.0227    5.1417    0.0286 H         1 <0>         0.1073
     28 H2         -0.7001    3.7575   -0.8620 H         1 <0>         0.0615
     29 H3         -0.6834    3.7485    0.9178 H         1 <0>         0.0616
     30 H4         -0.9601    1.8882    0.0168 H         1 <0>         0.1429
     31 H5         -0.9252   -0.5576    0.0075 H         1 <0>         0.1315
     32 H6          3.3141    1.9844   -0.0191 H         1 <0>         0.1501
     33 H7          5.3473   -2.4885   -2.0150 H         1 <0>         0.1421
     34 H8          7.8060   -2.5708   -1.9698 H         1 <0>         0.1628
     35 H9          7.8019   -4.3409    1.7842 H         1 <0>         0.1617
     36 H10         5.3434   -4.3130    1.8760 H         1 <0>         0.1393
     37 H11        -0.1568   -5.6987   -0.0271 H         1 <0>         0.4113
     38 H12         1.2802   -6.5690   -0.0462 H         1 <0>         0.4114
@<TRIPOS>BOND
     1    1    2 1
     2    1   27 1
     3    1   28 1
     4    1   29 1
     5    2    3 1
     6    3    8 ar
     7    3    4 ar
     8    4    5 ar
     9    4   30 1
    10    5    6 ar
    11    5   31 1
    12    6   11 1
    13    6    7 ar
    14    7    8 ar
    15    7    9 1
    16    8   32 1
    17    9   10 1
    18   10   15 ar
    19   10   11 ar
    20   11   12 ar
    21   12   13 ar
    22   12   25 1
    23   13   14 ar
    24   13   24 1
    25   14   15 ar
    26   14   22 1
    27   15   16 1
    28   16   21 ar
    29   16   17 ar
    30   17   18 ar
    31   17   33 1
    32   18   19 ar
    33   18   34 1
    34   19   20 ar
    35   20   21 ar
    36   20   35 1
    37   21   36 1
    38   22   23 3
    39   24   37 1
    40   24   38 1
    41   25   26 3
@<TRIPOS>MOLECULE
ZINC04318026
   36    38     0     0     0
SMALL
USER_CHARGES
1,3-dimethyl-8-(m-tolylamino)-7H-purine-2,6-dione
@<TRIPOS>ATOM
      1 C1         -5.4709    3.0723   10.5080 C.3       1 <0>        -0.1165
      2 C2         -4.8393    3.2847    9.1563 C.ar      1 <0>        -0.0620
      3 C3         -4.5960    4.5680    8.7014 C.ar      1 <0>        -0.1362
      4 C4         -4.0172    4.7673    7.4617 C.ar      1 <0>        -0.0909
      5 C5         -3.6803    3.6846    6.6730 C.ar      1 <0>        -0.1280
      6 C6         -3.9232    2.3946    7.1267 C.ar      1 <0>         0.1679
      7 C7         -4.5094    2.1980    8.3708 C.ar      1 <0>        -0.1488
      8 N1         -3.5839    1.2964    6.3307 N.pl3     1 <0>        -0.6356
      9 C8         -2.5186    1.3787    5.4618 C.2       1 <0>         0.5520
     10 N2         -2.1599    0.4214    4.5655 N.pl3     1 <0>        -0.5491
     11 H1         -2.6134   -0.4575    4.4177 H         1 <0>         0.4416
     12 C9         -1.0425    0.9000    3.8953 C.2       1 <0>        -0.1663
     13 C10        -0.7718    2.1546    4.4312 C.2       1 <0>         0.3544
     14 N3         -1.6878    2.3973    5.3699 N.2       1 <0>        -0.5212
     15 N4          0.3070    2.8719    3.9393 N.am      1 <0>        -0.5095
     16 C11         1.0759    2.3502    2.9651 C.2       1 <0>         0.7075
     17 O1          2.0219    2.9911    2.5489 O.2       1 <0>        -0.5302
     18 N5          0.8201    1.1410    2.4368 N.am      1 <0>        -0.5516
     19 C12        -0.2166    0.3967    2.8744 C.2       1 <0>         0.5945
     20 O2         -0.4347   -0.7003    2.3905 O.2       1 <0>        -0.5209
     21 C13         1.6836    0.6207    1.3738 C.3       1 <0>         0.0834
     22 C14         0.6157    4.1958    4.4855 C.3       1 <0>         0.0883
     23 H2         -6.5554    3.0448   10.4020 H         1 <0>         0.0726
     24 H3         -5.1227    2.1284   10.9274 H         1 <0>         0.0667
     25 H4         -5.1913    3.8901   11.1722 H         1 <0>         0.0694
     26 H5         -4.8591    5.4164    9.3159 H         1 <0>         0.1238
     27 H6         -3.8286    5.7707    7.1095 H         1 <0>         0.1271
     28 H7         -3.2282    3.8409    5.7047 H         1 <0>         0.1398
     29 H8         -4.7037    1.1963    8.7246 H         1 <0>         0.1251
     30 H9         -4.0989    0.4766    6.3904 H         1 <0>         0.4246
     31 H10         1.3332   -0.3661    1.0713 H         1 <0>         0.1035
     32 H11         2.7071    0.5460    1.7410 H         1 <0>         0.0820
     33 H12         1.6529    1.2952    0.5180 H         1 <0>         0.0821
     34 H13         1.3017    4.0911    5.3261 H         1 <0>         0.0738
     35 H14         1.0793    4.8087    3.7124 H         1 <0>         0.0942
     36 H15        -0.3040    4.6726    4.8243 H         1 <0>         0.0924
@<TRIPOS>BOND
     1    1    2 1
     2    1   23 1
     3    1   24 1
     4    1   25 1
     5    2    7 ar
     6    2    3 ar
     7    3    4 ar
     8    3   26 1
     9    4    5 ar
    10    4   27 1
    11    5    6 ar
    12    5   28 1
    13    6    7 ar
    14    6    8 1
    15    7   29 1
    16    8    9 1
    17    8   30 1
    18    9   14 2
    19    9   10 1
    20   10   11 1
    21   10   12 1
    22   12   19 1
    23   12   13 2
    24   13   14 1
    25   13   15 1
    26   15   16 am
    27   15   22 1
    28   16   17 2
    29   16   18 am
    30   18   19 am
    31   18   21 1
    32   19   20 2
    33   21   31 1
    34   21   32 1
    35   21   33 1
    36   22   34 1
    37   22   35 1
    38   22   36 1
@<TRIPOS>MOLECULE
ZINC05479224
   34    36     0     0     0
SMALL
USER_CHARGES
N-(4,6-dimethylpyrimidin-2-yl)-6-methyl-1H-benzimidazol-2-amine
@<TRIPOS>ATOM
      1 C1          1.1295    3.5992    0.0102 C.3       1 <0>        -0.1109
      2 C2          1.1689    2.0928    0.0021 C.ar      1 <0>        -0.0755
      3 C3         -0.0166    1.3725    0.0096 C.ar      1 <0>        -0.1220
      4 C4          0.0021   -0.0041    0.0020 C.ar      1 <0>        -0.0683
      5 C5          1.2241   -0.6814   -0.0133 C.ar      1 <0>         0.0650
      6 C6          2.4214    0.0529   -0.0209 C.ar      1 <0>         0.0492
      7 C7          2.3836    1.4391   -0.0124 C.ar      1 <0>        -0.1084
      8 N1          3.4450   -0.8798   -0.0357 N.pl3     1 <0>        -0.5923
      9 H1          4.4256   -0.6841   -0.0440 H         1 <0>         0.4404
     10 C8          2.8659   -2.1163   -0.0368 C.2       1 <0>         0.5248
     11 N2          1.5621   -1.9973   -0.0236 N.2       1 <0>        -0.5224
     12 N3          3.5536   -3.3148   -0.0502 N.pl3     1 <0>        -0.5918
     13 C9          4.9404   -3.3185   -0.0640 C.ar      1 <0>         0.5721
     14 N4          5.5899   -2.1640   -0.0696 N.ar      1 <0>        -0.5871
     15 C10         6.9122   -2.1322   -0.0779 C.ar      1 <0>         0.2245
     16 C11         7.6172   -3.3256   -0.0915 C.ar      1 <0>        -0.2691
     17 C12         6.9058   -4.5153   -0.0906 C.ar      1 <0>         0.2291
     18 N5          5.5837   -4.4764   -0.0768 N.ar      1 <0>        -0.5527
     19 C13         7.6298   -5.8369   -0.1046 C.3       1 <0>        -0.1106
     20 C14         7.6434   -0.8144   -0.0788 C.3       1 <0>        -0.1129
     21 H2          1.1297    3.9572    1.0397 H         1 <0>         0.0709
     22 H3          2.0049    3.9883   -0.5099 H         1 <0>         0.0650
     23 H4          0.2256    3.9418   -0.4935 H         1 <0>         0.0689
     24 H5         -0.9614    1.8956    0.0169 H         1 <0>         0.1299
     25 H6         -0.9247   -0.5585    0.0076 H         1 <0>         0.1302
     26 H7          3.3031    2.0057   -0.0175 H         1 <0>         0.1211
     27 H8          3.0663   -4.1536   -0.0500 H         1 <0>         0.4479
     28 H9          8.6971   -3.3284   -0.1030 H         1 <0>         0.1537
     29 H10         7.7938   -6.1504   -1.1355 H         1 <0>         0.0918
     30 H11         8.5901   -5.7304    0.4000 H         1 <0>         0.0872
     31 H12         7.0291   -6.5857    0.4118 H         1 <0>         0.0868
     32 H13         7.8088   -0.4914   -1.1066 H         1 <0>         0.0926
     33 H14         7.0469   -0.0676    0.4452 H         1 <0>         0.0827
     34 H15         8.6032   -0.9311    0.4243 H         1 <0>         0.0901
@<TRIPOS>BOND
     1    1    2 1
     2    1   21 1
     3    1   22 1
     4    1   23 1
     5    2    7 ar
     6    2    3 ar
     7    3    4 ar
     8    3   24 1
     9    4    5 ar
    10    4   25 1
    11    5   11 1
    12    5    6 ar
    13    6    7 ar
    14    6    8 1
    15    7   26 1
    16    8    9 1
    17    8   10 1
    18   10   11 2
    19   10   12 1
    20   12   13 1
    21   12   27 1
    22   13   18 ar
    23   13   14 ar
    24   14   15 ar
    25   15   16 ar
    26   15   20 1
    27   16   17 ar
    28   16   28 1
    29   17   18 ar
    30   17   19 1
    31   19   29 1
    32   19   30 1
    33   19   31 1
    34   20   32 1
    35   20   33 1
    36   20   34 1
@<TRIPOS>MOLECULE
ZINC13556129
   43    45     0     0     0
SMALL
USER_CHARGES

@<TRIPOS>ATOM
      1 C1          2.5479   -0.6639   -1.2180 C.3       1 <0>        -0.1064
      2 C2          1.2327   -1.0332   -0.5817 C.ar      1 <0>         0.1913
      3 C3          0.0368   -0.6992   -1.1993 C.ar      1 <0>        -0.2639
      4 C4         -1.1529   -1.0568   -0.5829 C.ar      1 <0>         0.1906
      5 N1         -1.1147   -1.7023    0.5698 N.ar      1 <0>        -0.5439
      6 C5          0.0486   -2.0090    1.1381 C.ar      1 <0>         0.5372
      7 N2          1.2062   -1.6838    0.5685 N.ar      1 <0>        -0.5443
      8 N3          0.0546   -2.6742    2.3253 N.2       1 <0>        -0.6165
      9 C6          0.1460   -2.0040    3.4551 C.2       1 <0>         0.6944
     10 N4          0.2599   -2.6760    4.6422 N.pl3     1 <0>        -0.8311
     11 N5          0.1270   -0.6353    3.4424 N.pl3     1 <0>        -0.7506
     12 C7          0.3429    0.1118    4.6840 C.3       1 <0>         0.1142
     13 C8          0.2723    1.6126    4.3950 C.3       1 <0>        -0.0498
     14 C9          0.4944    2.3810    5.6722 C.2       1 <0>        -0.1749
     15 C10        -0.4550    2.8512    6.4965 C.2       1 <0>         0.0631
     16 N6          0.1240    3.4973    7.5547 N.pl3     1 <0>        -0.5941
     17 H1         -0.3594    3.9202    8.2815 H         1 <0>         0.4176
     18 C11         1.4951    3.4576    7.4340 C.ar      1 <0>         0.0950
     19 C12         1.7874    2.7512    6.2528 C.ar      1 <0>        -0.1007
     20 C13         3.1153    2.5476    5.8735 C.ar      1 <0>        -0.0722
     21 C14         4.1260    3.0332    6.6546 C.ar      1 <0>        -0.1433
     22 C15         3.8430    3.7271    7.8228 C.ar      1 <0>        -0.0971
     23 C16         2.5394    3.9475    8.2111 C.ar      1 <0>        -0.1299
     24 C17        -2.4745   -0.7126   -1.2200 C.3       1 <0>        -0.1063
     25 H2          2.8715   -1.4693   -1.8773 H         1 <0>         0.0840
     26 H3          2.4273    0.2524   -1.7960 H         1 <0>         0.0792
     27 H4          3.2962   -0.5075   -0.4411 H         1 <0>         0.0799
     28 H5          0.0320   -0.1710   -2.1413 H         1 <0>         0.1415
     29 H6          0.2733   -3.6458    4.6512 H         1 <0>         0.4232
     30 H7         -0.0293   -0.1601    2.6114 H         1 <0>         0.4090
     31 H8         -0.4272   -0.1556    5.4075 H         1 <0>         0.0673
     32 H9          1.3241   -0.1343    5.0901 H         1 <0>         0.0700
     33 H10         1.0425    1.8799    3.6715 H         1 <0>         0.0771
     34 H11        -0.7088    1.8586    3.9889 H         1 <0>         0.0768
     35 H12        -1.5184    2.7368    6.3466 H         1 <0>         0.1707
     36 H13         3.3430    2.0079    4.9661 H         1 <0>         0.1203
     37 H14         5.1532    2.8755    6.3607 H         1 <0>         0.1232
     38 H15         4.6527    4.1043    8.4300 H         1 <0>         0.1261
     39 H16         2.3295    4.4876    9.1225 H         1 <0>         0.1203
     40 H17        -2.7843   -1.5259   -1.8762 H         1 <0>         0.0841
     41 H18        -3.2252   -0.5665   -0.4432 H         1 <0>         0.0799
     42 H19        -2.3701    0.2035   -1.8012 H         1 <0>         0.0792
     43 H20         0.3272   -2.1823    5.4745 H         1 <0>         0.4100
@<TRIPOS>BOND
     1    1    2 1
     2    1   25 1
     3    1   26 1
     4    1   27 1
     5    2    7 ar
     6    2    3 ar
     7    3    4 ar
     8    3   28 1
     9    4    5 ar
    10    4   24 1
    11    5    6 ar
    12    6    7 ar
    13    6    8 1
    14    8    9 2
    15    9   10 1
    16    9   11 1
    17   10   29 1
    18   10   43 1
    19   11   12 1
    20   11   30 1
    21   12   13 1
    22   12   31 1
    23   12   32 1
    24   13   14 1
    25   13   33 1
    26   13   34 1
    27   14   19 1
    28   14   15 2
    29   15   16 1
    30   15   35 1
    31   16   17 1
    32   16   18 1
    33   18   23 ar
    34   18   19 ar
    35   19   20 ar
    36   20   21 ar
    37   20   36 1
    38   21   22 ar
    39   21   37 1
    40   22   23 ar
    41   22   38 1
    42   23   39 1
    43   24   40 1
    44   24   41 1
    45   24   42 1
@<TRIPOS>MOLECULE
ZINC06749231
   48    51     0     0     0
SMALL
USER_CHARGES
3-(p-tolyl)-N-(2-pyridyl)-6,7,8,9-tetrahydro-5H-imidazo[1,5-a]azepine-1-carboxamide
@<TRIPOS>ATOM
      1 C1         -3.7415   13.7546    0.6389 C.3       1 <0>        -0.1195
      2 C2         -2.7617   12.6114    0.5744 C.ar      1 <0>        -0.0726
      3 C3         -3.2034   11.3437    0.2402 C.ar      1 <0>        -0.1176
      4 C4         -2.3115   10.2927    0.1803 C.ar      1 <0>        -0.0719
      5 C5         -0.9616   10.5106    0.4573 C.ar      1 <0>        -0.0210
      6 C6         -0.5234   11.7904    0.7985 C.ar      1 <0>        -0.1092
      7 C7         -1.4244   12.8341    0.8502 C.ar      1 <0>        -0.1172
      8 C8          0.0001    9.3880    0.3955 C.2       1 <0>         0.2484
      9 N1         -0.2687    8.1339    0.6716 N.2       1 <0>        -0.4470
     10 C9          0.8505    7.3975    0.4996 C.2       1 <0>        -0.0666
     11 C10         1.8449    8.2407    0.1028 C.2       1 <0>         0.0868
     12 N2          1.3156    9.4845    0.0423 N.pl3     1 <0>        -0.4378
     13 C11         2.0361   10.7077   -0.3203 C.3       1 <0>         0.0874
     14 C12         2.8430   10.4643   -1.5982 C.3       1 <0>        -0.1364
     15 C13         4.2338    9.9437   -1.2392 C.3       1 <0>        -0.1254
     16 C14         4.1711    9.0764    0.0157 C.3       1 <0>        -0.1315
     17 C15         3.2638    7.8700   -0.2409 C.3       1 <0>        -0.0554
     18 C16         0.9753    5.9447    0.7093 C.2       1 <0>         0.6004
     19 O1          2.0425    5.3925    0.5207 O.2       1 <0>        -0.4711
     20 N3         -0.0930    5.2274    1.1102 N.am      1 <0>        -0.6501
     21 C17         0.0494    3.8746    1.4110 C.ar      1 <0>         0.3632
     22 C18        -1.0306    3.1659    1.9260 C.ar      1 <0>        -0.2080
     23 C19        -0.8756    1.8229    2.2199 C.ar      1 <0>        -0.0472
     24 C20         0.3593    1.2322    1.9877 C.ar      1 <0>        -0.2076
     25 C21         1.3900    1.9977    1.4798 C.ar      1 <0>         0.1318
     26 N4          1.2113    3.2754    1.2036 N.ar      1 <0>        -0.4787
     27 H1         -4.1485   13.8279    1.6474 H         1 <0>         0.0744
     28 H2         -3.2326   14.6842    0.3841 H         1 <0>         0.0686
     29 H3         -4.5522   13.5786   -0.0681 H         1 <0>         0.0694
     30 H4         -4.2487   11.1763    0.0260 H         1 <0>         0.1298
     31 H5         -2.6576    9.3034   -0.0800 H         1 <0>         0.1334
     32 H6          0.5196   11.9646    1.0184 H         1 <0>         0.1244
     33 H7         -1.0857   13.8261    1.1102 H         1 <0>         0.1284
     34 H8          1.3218   11.5135   -0.4895 H         1 <0>         0.1057
     35 H9          2.7117   10.9849    0.4889 H         1 <0>         0.0970
     36 H10         2.3291    9.7285   -2.2168 H         1 <0>         0.0750
     37 H11         2.9373   11.3990   -2.1510 H         1 <0>         0.0880
     38 H12         4.6219    9.3512   -2.0678 H         1 <0>         0.0733
     39 H13         4.8997   10.7880   -1.0609 H         1 <0>         0.0699
     40 H14         5.1732    8.7300    0.2682 H         1 <0>         0.0793
     41 H15         3.7706    9.6627    0.8427 H         1 <0>         0.0653
     42 H16         3.3258    7.5842   -1.2909 H         1 <0>         0.0897
     43 H17         3.5824    7.0352    0.3834 H         1 <0>         0.1095
     44 H18        -0.9610    5.6531    1.1893 H         1 <0>         0.4244
     45 H19        -1.9774    3.6574    2.0946 H         1 <0>         0.1360
     46 H20        -1.6965    1.2471    2.6212 H         1 <0>         0.1378
     47 H21         0.5133    0.1859    2.2063 H         1 <0>         0.1354
     48 H22         2.3536    1.5436    1.3018 H         1 <0>         0.1589
@<TRIPOS>BOND
     1    1    2 1
     2    1   27 1
     3    1   28 1
     4    1   29 1
     5    2    7 ar
     6    2    3 ar
     7    3    4 ar
     8    3   30 1
     9    4    5 ar
    10    4   31 1
    11    5    6 ar
    12    5    8 1
    13    6    7 ar
    14    6   32 1
    15    7   33 1
    16    8   12 1
    17    8    9 2
    18    9   10 1
    19   10   11 2
    20   10   18 1
    21   11   17 1
    22   11   12 1
    23   12   13 1
    24   13   14 1
    25   13   34 1
    26   13   35 1
    27   14   15 1
    28   14   36 1
    29   14   37 1
    30   15   16 1
    31   15   38 1
    32   15   39 1
    33   16   17 1
    34   16   40 1
    35   16   41 1
    36   17   42 1
    37   17   43 1
    38   18   19 2
    39   18   20 am
    40   20   21 1
    41   20   44 1
    42   21   26 ar
    43   21   22 ar
    44   22   23 ar
    45   22   45 1
    46   23   24 ar
    47   23   46 1
    48   24   25 ar
    49   24   47 1
    50   25   26 ar
    51   25   48 1
@<TRIPOS>MOLECULE
ZINC06749231
   49    52     0     0     0
SMALL
USER_CHARGES
3-(p-tolyl)-N-(2-pyridyl)-6,7,8,9-tetrahydro-5H-imidazo[1,5-a]azepine-1-carboxamide
@<TRIPOS>ATOM
      1 C1         -3.7415   13.7546    0.6389 C.3       1 <0>        -0.1348
      2 C2         -2.7617   12.6114    0.5744 C.ar      1 <0>        -0.0245
      3 C3         -3.2034   11.3437    0.2402 C.ar      1 <0>        -0.1110
      4 C4         -2.3115   10.2927    0.1803 C.ar      1 <0>        -0.0679
      5 C5         -0.9616   10.5106    0.4573 C.ar      1 <0>        -0.1055
      6 C6         -0.5234   11.7904    0.7985 C.ar      1 <0>        -0.0730
      7 C7         -1.4244   12.8341    0.8502 C.ar      1 <0>        -0.1115
      8 C8          0.0001    9.3880    0.3955 C.cat     1 <0>         0.3878
      9 C9          0.8505    7.3975    0.4996 C.2       1 <0>        -0.0386
     10 C10         1.8449    8.2407    0.1028 C.2       1 <0>         0.1573
     11 N1          1.3156    9.4845    0.0423 N.pl3     1 <0>        -0.4020
     12 C11         2.0361   10.7077   -0.3203 C.3       1 <0>         0.0768
     13 C12         2.8430   10.4643   -1.5982 C.3       1 <0>        -0.1400
     14 C13         4.2338    9.9437   -1.2392 C.3       1 <0>        -0.1343
     15 C14         4.1711    9.0764    0.0157 C.3       1 <0>        -0.1347
     16 C15         3.2638    7.8700   -0.2409 C.3       1 <0>        -0.0712
     17 C16         0.9753    5.9447    0.7093 C.2       1 <0>         0.5827
     18 O1          2.0425    5.3925    0.5207 O.2       1 <0>        -0.4206
     19 N2         -0.0930    5.2274    1.1102 N.am      1 <0>        -0.6531
     20 C17         0.0494    3.8746    1.4110 C.ar      1 <0>         0.3432
     21 C18        -1.0306    3.1659    1.9260 C.ar      1 <0>        -0.1962
     22 C19        -0.8756    1.8229    2.2199 C.ar      1 <0>        -0.0443
     23 C20         0.3593    1.2322    1.9877 C.ar      1 <0>        -0.1853
     24 C21         1.3900    1.9977    1.4798 C.ar      1 <0>         0.1346
     25 N3          1.2113    3.2754    1.2036 N.ar      1 <0>        -0.4768
     26 H1         -4.1485   13.8279    1.6474 H         1 <0>         0.0885
     27 H2         -3.2326   14.6842    0.3841 H         1 <0>         0.0804
     28 H3         -4.5522   13.5786   -0.0681 H         1 <0>         0.0803
     29 H4         -4.2487   11.1763    0.0260 H         1 <0>         0.1464
     30 H5         -2.6576    9.3034   -0.0800 H         1 <0>         0.1341
     31 H6          0.5196   11.9646    1.0184 H         1 <0>         0.1377
     32 H7         -1.0857   13.8261    1.1102 H         1 <0>         0.1466
     33 H8          1.3218   11.5135   -0.4895 H         1 <0>         0.1254
     34 H9          2.7117   10.9849    0.4889 H         1 <0>         0.1268
     35 H10         2.3291    9.7285   -2.2168 H         1 <0>         0.0809
     36 H11         2.9373   11.3990   -2.1510 H         1 <0>         0.1081
     37 H12         4.6219    9.3512   -2.0678 H         1 <0>         0.0850
     38 H13         4.8997   10.7880   -1.0609 H         1 <0>         0.0831
     39 H14         5.1732    8.7300    0.2682 H         1 <0>         0.0979
     40 H15         3.7706    9.6627    0.8427 H         1 <0>         0.0680
     41 H16         3.3258    7.5842   -1.2909 H         1 <0>         0.1174
     42 H17         3.5824    7.0352    0.3834 H         1 <0>         0.1298
     43 H18        -0.9610    5.6531    1.1893 H         1 <0>         0.4113
     44 H19        -1.9774    3.6574    2.0946 H         1 <0>         0.1380
     45 H20        -1.6965    1.2471    2.6212 H         1 <0>         0.1456
     46 H21         0.5133    0.1859    2.2063 H         1 <0>         0.1445
     47 H22         2.3536    1.5436    1.3018 H         1 <0>         0.1670
     48 N4         -0.2657    8.1351    0.6706 N.pl3     1 <0>        -0.4728
     49 H23        -1.1787    7.7722    0.9690 H         1 <0>         0.4730
@<TRIPOS>BOND
     1    1    2 1
     2    1   26 1
     3    1   27 1
     4    1   28 1
     5    2    7 ar
     6    2    3 ar
     7    3    4 ar
     8    3   29 1
     9    4    5 ar
    10    4   30 1
    11    5    6 ar
    12    5    8 1
    13    6    7 ar
    14    6   31 1
    15    7   32 1
    16    8   11 1
    17    8   48 2
    18    9   10 2
    19    9   17 1
    20    9   48 1
    21   10   16 1
    22   10   11 1
    23   11   12 1
    24   12   13 1
    25   12   33 1
    26   12   34 1
    27   13   14 1
    28   13   35 1
    29   13   36 1
    30   14   15 1
    31   14   37 1
    32   14   38 1
    33   15   16 1
    34   15   39 1
    35   15   40 1
    36   16   41 1
    37   16   42 1
    38   17   18 2
    39   17   19 am
    40   19   20 1
    41   19   43 1
    42   20   25 ar
    43   20   21 ar
    44   21   22 ar
    45   21   44 1
    46   22   23 ar
    47   22   45 1
    48   23   24 ar
    49   23   46 1
    50   24   25 ar
    51   24   47 1
    52   48   49 1
@<TRIPOS>MOLECULE
ZINC15106287
   41    43     0     0     0
SMALL
USER_CHARGES
2-anilino-6-(3,4-dimethoxyphenyl)-3H-pyrimidin-4-one
@<TRIPOS>ATOM
      1 C1         -9.5470    3.5778   -0.1947 C.3       1 <0>         0.0233
      2 O1         -8.3213    2.8494   -0.0991 O.3       1 <0>        -0.3026
      3 C2         -7.1713    3.5732   -0.1080 C.ar      1 <0>         0.1232
      4 C3         -7.2242    4.9562   -0.2068 C.ar      1 <0>        -0.1812
      5 C4         -6.0597    5.6946   -0.2166 C.ar      1 <0>        -0.0771
      6 C5         -4.8247    5.0515   -0.1271 C.ar      1 <0>        -0.0634
      7 C6         -4.7705    3.6602   -0.0335 C.ar      1 <0>        -0.1241
      8 C7         -5.9411    2.9252   -0.0183 C.ar      1 <0>         0.0896
      9 O2         -5.8918    1.5696    0.0781 O.3       1 <0>        -0.3046
     10 C8         -4.5967    0.9721    0.1667 C.3       1 <0>         0.0253
     11 C9         -3.5739    5.8433   -0.1375 C.2       1 <0>         0.2706
     12 C10        -3.6254    7.2268   -0.2363 C.2       1 <0>        -0.3335
     13 C11        -2.4218    7.9461   -0.2439 C.2       1 <0>         0.5453
     14 O3         -2.4266    9.1636   -0.3297 O.2       1 <0>        -0.5376
     15 N1         -1.2580    7.2689   -0.1550 N.am      1 <0>        -0.6498
     16 H1         -0.4163    7.7510   -0.1585 H         1 <0>         0.4134
     17 C12        -1.2622    5.9109   -0.0599 C.2       1 <0>         0.6359
     18 N2         -2.3862    5.2270   -0.0571 N.2       1 <0>        -0.5732
     19 N3         -0.0691    5.2409    0.0290 N.pl3     1 <0>        -0.6423
     20 C13        -0.0574    3.8586    0.2416 C.ar      1 <0>         0.1539
     21 C14        -1.0425    3.2660    1.0210 C.ar      1 <0>        -0.1073
     22 C15        -1.0284    1.9007    1.2286 C.ar      1 <0>        -0.1053
     23 C16        -0.0346    1.1239    0.6618 C.ar      1 <0>        -0.1273
     24 C17         0.9506    1.7114   -0.1104 C.ar      1 <0>        -0.1001
     25 C18         0.9390    3.0755   -0.3266 C.ar      1 <0>        -0.1392
     26 H2         -9.6274    4.2658    0.6469 H         1 <0>         0.0578
     27 H3         -9.5629    4.1414   -1.1275 H         1 <0>         0.0577
     28 H4        -10.3856    2.8817   -0.1764 H         1 <0>         0.1030
     29 H5         -8.1794    5.4554   -0.2765 H         1 <0>         0.1426
     30 H6         -6.1036    6.7709   -0.2940 H         1 <0>         0.1372
     31 H7         -3.8160    3.1591    0.0312 H         1 <0>         0.1513
     32 H8         -4.0189    1.2237   -0.7227 H         1 <0>         0.0566
     33 H9         -4.0831    1.3475    1.0518 H         1 <0>         0.0556
     34 H10        -4.7002   -0.1106    0.2385 H         1 <0>         0.1016
     35 H11        -4.5736    7.7391   -0.3063 H         1 <0>         0.1571
     36 H12         0.7668    5.7257   -0.0555 H         1 <0>         0.4233
     37 H13        -1.8185    3.8723    1.4646 H         1 <0>         0.1393
     38 H14        -1.7941    1.4393    1.8346 H         1 <0>         0.1260
     39 H15        -0.0254    0.0565    0.8263 H         1 <0>         0.1251
     40 H16         1.7279    1.1025   -0.5480 H         1 <0>         0.1281
     41 H17         1.7064    3.5332   -0.9332 H         1 <0>         0.1258
@<TRIPOS>BOND
     1    1    2 1
     2    1   26 1
     3    1   27 1
     4    1   28 1
     5    2    3 1
     6    3    8 ar
     7    3    4 ar
     8    4    5 ar
     9    4   29 1
    10    5    6 ar
    11    5   30 1
    12    6    7 ar
    13    6   11 1
    14    7    8 ar
    15    7   31 1
    16    8    9 1
    17    9   10 1
    18   10   32 1
    19   10   33 1
    20   10   34 1
    21   11   18 1
    22   11   12 2
    23   12   13 1
    24   12   35 1
    25   13   14 2
    26   13   15 am
    27   15   16 1
    28   15   17 1
    29   17   18 2
    30   17   19 1
    31   19   20 1
    32   19   36 1
    33   20   25 ar
    34   20   21 ar
    35   21   22 ar
    36   21   37 1
    37   22   23 ar
    38   22   38 1
    39   23   24 ar
    40   23   39 1
    41   24   25 ar
    42   24   40 1
    43   25   41 1
@<TRIPOS>MOLECULE
ZINC12880583
   42    44     0     0     0
SMALL
USER_CHARGES

@<TRIPOS>ATOM
      1 C1          0.4332    1.4732   -0.0129 C.3       1 <0>        -0.1165
      2 C2          0.2166   -0.0181   -0.0090 C.ar      1 <0>        -0.0467
      3 C3          0.0008   -0.6880   -1.1994 C.ar      1 <0>        -0.1598
      4 C4         -0.1981   -2.0560   -1.1992 C.ar      1 <0>        -0.0751
      5 C5         -0.1823   -2.7574   -0.0089 C.ar      1 <0>        -0.2185
      6 C6          0.0339   -2.0878    1.1865 C.ar      1 <0>         0.1353
      7 C7          0.2394   -0.7156    1.1829 C.ar      1 <0>        -0.1523
      8 O1          0.0500   -2.7755    2.3585 O.3       1 <0>        -0.2928
      9 C8         -0.0425   -4.1991    2.2768 C.3       1 <0>         0.0934
     10 H1          0.4839   -4.5469    1.3879 H         1 <0>         0.1020
     11 C9         -1.5136   -4.6107    2.1921 C.3       1 <0>        -0.1673
     12 C10         0.5815   -4.8143    3.5029 C.2       1 <0>         0.5108
     13 O2          0.9777   -4.1023    4.4060 O.2       1 <0>        -0.5700
     14 N1          0.6987   -6.1331    3.5973 N.2       1 <0>        -0.6543
     15 C11         1.2510   -6.6776    4.6827 C.2       1 <0>         0.6257
     16 N2          1.7293   -6.0075    5.7643 N.pl3     1 <0>        -0.6215
     17 H2          1.7296   -5.0448    5.8831 H         1 <0>         0.4544
     18 C12         2.2139   -6.9334    6.6629 C.2       1 <0>         0.3309
     19 N3          2.0456   -8.1267    6.1647 N.2       1 <0>        -0.2625
     20 N4          1.4323   -7.9966    4.9114 N.pl3     1 <0>        -0.4800
     21 C13         2.8240   -6.6246    7.9754 C.ar      1 <0>        -0.0492
     22 C14         2.9423   -5.3007    8.3987 C.ar      1 <0>        -0.0860
     23 C15         3.5116   -5.0193    9.6237 C.ar      1 <0>        -0.1163
     24 C16         3.9646   -6.0470   10.4315 C.ar      1 <0>        -0.0894
     25 C17         3.8506   -7.3620   10.0172 C.ar      1 <0>        -0.1193
     26 C18         3.2779   -7.6567    8.7969 C.ar      1 <0>        -0.0657
     27 H3          1.4970    1.6856   -0.1193 H         1 <0>         0.0738
     28 H4         -0.1111    1.9173   -0.8464 H         1 <0>         0.0697
     29 H5          0.0703    1.8955    0.9242 H         1 <0>         0.0688
     30 H6         -0.0126   -0.1414   -2.1308 H         1 <0>         0.1236
     31 H7         -0.3665   -2.5769   -2.1302 H         1 <0>         0.1257
     32 H8         -0.3385   -3.8261   -0.0092 H         1 <0>         0.1303
     33 H9          0.4127   -0.1927    2.1119 H         1 <0>         0.1302
     34 H10        -1.5841   -5.6966    2.1297 H         1 <0>         0.0872
     35 H11        -2.0399   -4.2629    3.0810 H         1 <0>         0.0673
     36 H12        -1.9649   -4.1657    1.3053 H         1 <0>         0.0728
     37 H13         2.5893   -4.4976    7.7687 H         1 <0>         0.1272
     38 H14         3.6041   -3.9947    9.9523 H         1 <0>         0.1353
     39 H15         4.4095   -5.8217   11.3895 H         1 <0>         0.1328
     40 H16         4.2067   -8.1598   10.6520 H         1 <0>         0.1360
     41 H17         3.1850   -8.6839    8.4767 H         1 <0>         0.1397
     42 H18         1.1848   -8.7212    4.3160 H         1 <0>         0.4703
@<TRIPOS>BOND
     1    1    2 1
     2    1   27 1
     3    1   28 1
     4    1   29 1
     5    2    7 ar
     6    2    3 ar
     7    3    4 ar
     8    3   30 1
     9    4    5 ar
    10    4   31 1
    11    5    6 ar
    12    5   32 1
    13    6    7 ar
    14    6    8 1
    15    7   33 1
    16    8    9 1
    17    9   10 1
    18    9   11 1
    19    9   12 1
    20   11   34 1
    21   11   35 1
    22   11   36 1
    23   12   13 2
    24   12   14 1
    25   14   15 2
    26   15   20 1
    27   15   16 1
    28   16   17 1
    29   16   18 1
    30   18   19 2
    31   18   21 1
    32   19   20 1
    33   20   42 1
    34   21   26 ar
    35   21   22 ar
    36   22   23 ar
    37   22   37 1
    38   23   24 ar
    39   23   38 1
    40   24   25 ar
    41   24   39 1
    42   25   26 ar
    43   25   40 1
    44   26   41 1
@<TRIPOS>MOLECULE
ZINC20102293
   37    39     0     0     0
SMALL
USER_CHARGES

@<TRIPOS>ATOM
      1 C1         -0.0238    1.3678    0.0028 C.ar      1 <0>        -0.1433
      2 C2          1.1624    2.0892   -0.0039 C.ar      1 <0>        -0.0973
      3 C3          2.3783    1.4420   -0.0167 C.ar      1 <0>        -0.1294
      4 C4          2.4208    0.0514   -0.0226 C.ar      1 <0>         0.0948
      5 C5          1.2162   -0.6749   -0.0154 C.ar      1 <0>        -0.1009
      6 C6         -0.0052    0.0017   -0.0029 C.ar      1 <0>        -0.0727
      7 C7          1.5963   -2.0896   -0.0242 C.2       1 <0>        -0.1755
      8 C8          2.9379   -2.1353   -0.0357 C.2       1 <0>         0.0636
      9 N1          3.4479   -0.8655   -0.0349 N.pl3     1 <0>        -0.5939
     10 H1          4.3923   -0.6444   -0.0417 H         1 <0>         0.4177
     11 C9          0.6592   -3.2697   -0.0206 C.3       1 <0>        -0.0497
     12 C10         0.2310   -3.5853   -1.4552 C.3       1 <0>         0.1140
     13 N2         -0.6801   -4.7326   -1.4517 N.pl3     1 <0>        -0.7503
     14 C11        -1.1969   -5.1997   -2.6300 C.2       1 <0>         0.6945
     15 N3         -0.9488   -4.5318   -3.7988 N.pl3     1 <0>        -0.8305
     16 N4         -1.9329   -6.2916   -2.6392 N.2       1 <0>        -0.6183
     17 C12        -2.2660   -6.8975   -1.4670 C.ar      1 <0>         0.5281
     18 N5         -3.4344   -6.6142   -0.8971 N.ar      1 <0>        -0.5360
     19 C13        -3.7860   -7.1865    0.2413 C.ar      1 <0>         0.1628
     20 C14        -2.9219   -8.0904    0.8408 C.ar      1 <0>        -0.2632
     21 C15        -1.7115   -8.3645    0.2219 C.ar      1 <0>         0.1613
     22 N6         -1.4186   -7.7643   -0.9187 N.ar      1 <0>        -0.5436
     23 H2         -0.9687    1.8906    0.0170 H         1 <0>         0.1232
     24 H3          1.1315    3.1687    0.0007 H         1 <0>         0.1261
     25 H4          3.2955    2.0121   -0.0225 H         1 <0>         0.1203
     26 H5         -0.9319   -0.5529    0.0026 H         1 <0>         0.1202
     27 H6          3.5274   -3.0402   -0.0446 H         1 <0>         0.1709
     28 H7          1.1664   -4.1351    0.4059 H         1 <0>         0.0774
     29 H8         -0.2208   -3.0331    0.5775 H         1 <0>         0.0770
     30 H9         -0.2762   -2.7199   -1.8817 H         1 <0>         0.0688
     31 H10         1.1110   -3.8220   -2.0533 H         1 <0>         0.0690
     32 H11        -0.9170   -5.1612   -0.6144 H         1 <0>         0.4088
     33 H12        -0.4066   -3.7274   -3.7920 H         1 <0>         0.4105
     34 H13        -4.7355   -6.9526    0.6996 H         1 <0>         0.1646
     35 H14        -3.1861   -8.5710    1.7712 H         1 <0>         0.1439
     36 H15        -1.0177   -9.0637    0.6649 H         1 <0>         0.1636
     37 H16        -1.3151   -4.8628   -4.6337 H         1 <0>         0.4235
@<TRIPOS>BOND
     1    1    6 ar
     2    1    2 ar
     3    1   23 1
     4    2    3 ar
     5    2   24 1
     6    3    4 ar
     7    3   25 1
     8    4    9 1
     9    4    5 ar
    10    5    6 ar
    11    5    7 1
    12    6   26 1
    13    7    8 2
    14    7   11 1
    15    8    9 1
    16    8   27 1
    17    9   10 1
    18   11   12 1
    19   11   28 1
    20   11   29 1
    21   12   13 1
    22   12   30 1
    23   12   31 1
    24   13   14 1
    25   13   32 1
    26   14   15 1
    27   14   16 2
    28   15   33 1
    29   15   37 1
    30   16   17 1
    31   17   22 ar
    32   17   18 ar
    33   18   19 ar
    34   19   20 ar
    35   19   34 1
    36   20   21 ar
    37   20   35 1
    38   21   22 ar
    39   21   36 1
@<TRIPOS>MOLECULE
ZINC20102293
   38    40     0     0     0
SMALL
USER_CHARGES

@<TRIPOS>ATOM
      1 C1         -0.0675    1.3869   -0.0202 C.ar      1 <0>        -0.1365
      2 C2          1.1160    2.1127   -0.0272 C.ar      1 <0>        -0.0945
      3 C3          2.3343    1.4700   -0.0353 C.ar      1 <0>        -0.1240
      4 C4          2.3821    0.0795   -0.0361 C.ar      1 <0>         0.0946
      5 C5          1.1801   -0.6512   -0.0285 C.ar      1 <0>        -0.1014
      6 C6         -0.0438    0.0208   -0.0209 C.ar      1 <0>        -0.0808
      7 C7          1.5656   -2.0645   -0.0315 C.2       1 <0>        -0.1948
      8 C8          2.9073   -2.1052   -0.0402 C.2       1 <0>         0.0761
      9 N1          3.4126   -0.8336   -0.0430 N.pl3     1 <0>        -0.5902
     10 H1          4.3562   -0.6089   -0.0488 H         1 <0>         0.4214
     11 C9          0.6328   -3.2481   -0.0254 C.3       1 <0>        -0.0423
     12 C10         0.2086   -3.5705   -1.4596 C.3       1 <0>         0.0828
     13 N2         -0.6981   -4.7212   -1.4537 N.pl3     1 <0>        -0.6606
     14 C11        -1.2132   -5.1966   -2.6364 C.cat     1 <0>         0.7366
     15 N3         -0.9846   -4.5591   -3.7494 N.pl3     1 <0>        -0.7669
     16 N4         -1.9714   -6.3475   -2.6446 N.pl3     1 <0>        -0.6131
     17 C12        -2.3101   -6.9638   -1.4483 C.ar      1 <0>         0.5359
     18 N5         -1.8050   -6.4985   -0.3158 N.ar      1 <0>        -0.5678
     19 C13        -2.1078   -7.0624    0.8418 C.ar      1 <0>         0.1977
     20 C14        -2.9643   -8.1520    0.8595 C.ar      1 <0>        -0.2261
     21 C15        -3.4746   -8.6130   -0.3440 C.ar      1 <0>         0.2070
     22 N6         -3.1351   -7.9998   -1.4658 N.ar      1 <0>        -0.5218
     23 H2         -1.0143    1.9062   -0.0097 H         1 <0>         0.1253
     24 H3          1.0811    3.1921   -0.0266 H         1 <0>         0.1298
     25 H4          3.2494    2.0435   -0.0414 H         1 <0>         0.1240
     26 H5         -0.9684   -0.5372   -0.0151 H         1 <0>         0.1179
     27 H6          3.5002   -3.0079   -0.0446 H         1 <0>         0.1718
     28 H7          1.1424   -4.1101    0.4053 H         1 <0>         0.0852
     29 H8         -0.2492   -3.0126    0.5702 H         1 <0>         0.0853
     30 H9         -0.3010   -2.7086   -1.8902 H         1 <0>         0.0913
     31 H10         1.0906   -3.8061   -2.0551 H         1 <0>         0.0916
     32 H11        -0.9351   -5.1476   -0.6153 H         1 <0>         0.4441
     33 H12        -2.2682   -6.7267   -3.4866 H         1 <0>         0.4554
     34 H13        -1.6924   -6.6786    1.7619 H         1 <0>         0.1936
     35 H14        -3.2279   -8.6317    1.7905 H         1 <0>         0.1718
     36 H15        -4.1445   -9.4598   -0.3652 H         1 <0>         0.1938
     37 H16        -1.4070   -4.8524   -4.5718 H         1 <0>         0.4418
     38 H17        -0.3919   -3.7912   -3.7556 H         1 <0>         0.4461
@<TRIPOS>BOND
     1    1    6 ar
     2    1    2 ar
     3    1   23 1
     4    2    3 ar
     5    2   24 1
     6    3    4 ar
     7    3   25 1
     8    4    9 1
     9    4    5 ar
    10    5    6 ar
    11    5    7 1
    12    6   26 1
    13    7    8 2
    14    7   11 1
    15    8    9 1
    16    8   27 1
    17    9   10 1
    18   11   12 1
    19   11   28 1
    20   11   29 1
    21   12   13 1
    22   12   30 1
    23   12   31 1
    24   13   14 1
    25   13   32 1
    26   14   15 2
    27   14   16 1
    28   15   37 1
    29   15   38 1
    30   16   17 1
    31   16   33 1
    32   17   22 ar
    33   17   18 ar
    34   18   19 ar
    35   19   20 ar
    36   19   34 1
    37   20   21 ar
    38   20   35 1
    39   21   22 ar
    40   21   36 1
@<TRIPOS>MOLECULE
ZINC00005258
   41    44     0     0     0
SMALL
USER_CHARGES

@<TRIPOS>ATOM
      1 C1         -0.0162    1.3434    0.0094 C.2       1 <0>        -0.2218
      2 C2          1.3251    1.7745   -0.0011 C.2       1 <0>        -0.0887
      3 C3          2.0961    0.6548   -0.0144 C.2       1 <0>        -0.0062
      4 O1          1.2796   -0.4166   -0.0124 O.3       1 <0>        -0.1583
      5 C4          0.0021   -0.0041    0.0020 C.2       1 <0>         0.0256
      6 C5          3.5734    0.6193   -0.0287 C.2       1 <0>         0.4157
      7 N1          4.3742    1.6925   -0.0248 N.2       1 <0>        -0.4645
      8 C6          5.6386    1.3040   -0.0409 C.2       1 <0>         0.5441
      9 N2          6.8046    1.9657   -0.0448 N.2       1 <0>        -0.5016
     10 C7          7.9464    1.2979   -0.0627 C.2       1 <0>         0.6561
     11 N3          7.9670   -0.0378   -0.0777 N.pl3     1 <0>        -0.5981
     12 C8          6.8416   -0.7289   -0.0744 C.cat     1 <0>         0.7695
     13 N4          5.6489   -0.0664   -0.0556 N.pl3     1 <0>        -0.4039
     14 N5          4.3107   -0.4751   -0.0417 N.2       1 <0>        -0.2939
     15 N6          6.8714   -2.0989   -0.0903 N.pl3     1 <0>        -0.7459
     16 N7          9.1377    1.9935   -0.0665 N.pl3     1 <0>        -0.6525
     17 C9          9.1306    3.4584   -0.0508 C.3       1 <0>         0.1217
     18 C10        10.5705    3.9755   -0.0588 C.3       1 <0>        -0.0898
     19 C11        10.5632    5.4824   -0.0426 C.ar      1 <0>        -0.1082
     20 C12        10.5428    6.1853   -1.2331 C.ar      1 <0>        -0.0920
     21 C13        10.5366    7.5667   -1.2210 C.ar      1 <0>        -0.1431
     22 C14        10.5502    8.2486   -0.0129 C.ar      1 <0>         0.1179
     23 C15        10.5702    7.5411    1.1802 C.ar      1 <0>        -0.1430
     24 C16        10.5712    6.1597    1.1628 C.ar      1 <0>        -0.0920
     25 O2         10.5445    9.6076    0.0017 O.3       1 <0>        -0.4985
     26 H1         -0.8931    1.9737    0.0252 H         1 <0>         0.1685
     27 H2          1.6734    2.7967    0.0008 H         1 <0>         0.1702
     28 H3         -0.8667   -0.6456    0.0069 H         1 <0>         0.2226
     29 H4          7.7217   -2.5654   -0.1039 H         1 <0>         0.4476
     30 H5          6.0421   -2.6021   -0.0878 H         1 <0>         0.4601
     31 H6          9.9800    1.5127   -0.0796 H         1 <0>         0.4298
     32 H7          8.6066    3.8287   -0.9319 H         1 <0>         0.0992
     33 H8          8.6234    3.8096    0.8478 H         1 <0>         0.0992
     34 H9         11.0945    3.6052    0.8223 H         1 <0>         0.0876
     35 H10        11.0777    3.6243   -0.9574 H         1 <0>         0.0877
     36 H11        10.5322    5.6540   -2.1733 H         1 <0>         0.1282
     37 H12        10.5214    8.1153   -2.1511 H         1 <0>         0.1332
     38 H13        10.5809    8.0697    2.1220 H         1 <0>         0.1332
     39 H14        10.5822    5.6084    2.0914 H         1 <0>         0.1282
     40 H15         9.6596    9.9970    0.0181 H         1 <0>         0.3968
     41 H16         8.8171   -0.5047   -0.0913 H         1 <0>         0.4591
@<TRIPOS>BOND
     1    1    5 2
     2    1    2 1
     3    1   26 1
     4    2    3 2
     5    2   27 1
     6    3    4 1
     7    3    6 1
     8    4    5 1
     9    5   28 1
    10    6   14 2
    11    6    7 1
    12    7    8 2
    13    8   13 1
    14    8    9 1
    15    9   10 2
    16   10   11 1
    17   10   16 1
    18   11   12 2
    19   11   41 1
    20   12   13 1
    21   12   15 1
    22   13   14 1
    23   15   29 1
    24   15   30 1
    25   16   17 1
    26   16   31 1
    27   17   18 1
    28   17   32 1
    29   17   33 1
    30   18   19 1
    31   18   34 1
    32   18   35 1
    33   19   24 ar
    34   19   20 ar
    35   20   21 ar
    36   20   36 1
    37   21   22 ar
    38   21   37 1
    39   22   23 ar
    40   22   25 1
    41   23   24 ar
    42   23   38 1
    43   24   39 1
    44   25   40 1
@<TRIPOS>MOLECULE
ZINC03811810
   48    51     0     0     0
SMALL
USER_CHARGES

@<TRIPOS>ATOM
      1 C1         -0.0178    1.4608    0.0101 C.3       1 <0>         0.0858
      2 N1          0.0021   -0.0041    0.0020 N.am      1 <0>        -0.7308
      3 C2         -1.1558   -0.6938    0.0094 C.2       1 <0>         0.5149
      4 O1         -2.2142   -0.1017    0.0227 O.2       1 <0>        -0.5024
      5 C3         -1.1354   -2.2006    0.0011 C.3       1 <0>         0.0320
      6 H1         -0.5471   -2.5799    0.8366 H         1 <0>         0.1225
      7 C4         -0.5782   -2.7315   -1.3443 C.3       1 <0>         0.0506
      8 H2         -0.9118   -2.1105   -2.1757 H         1 <0>         0.0948
      9 C5         -1.2083   -4.1435   -1.4217 C.3       1 <0>         0.0832
     10 H3         -1.5347   -4.3603   -2.4388 H         1 <0>         0.0899
     11 C6         -2.4187   -4.0695   -0.4709 C.3       1 <0>         0.3144
     12 H4         -2.2882   -4.7738    0.3507 H         1 <0>         0.1316
     13 O2         -2.4789   -2.7275    0.0446 O.3       1 <0>        -0.3270
     14 N2         -3.6479   -4.3821   -1.2041 N.pl3     1 <0>        -0.4753
     15 C7         -4.4978   -3.4819   -1.7747 C.2       1 <0>         0.2660
     16 N3         -5.4881   -4.1049   -2.3448 N.2       1 <0>        -0.4586
     17 C8         -5.3371   -5.4406   -2.1768 C.ar      1 <0>        -0.1040
     18 C9         -4.1517   -5.6348   -1.4476 C.ar      1 <0>         0.3101
     19 N4         -3.7707   -6.8732   -1.1522 N.ar      1 <0>        -0.5538
     20 C10        -4.4895   -7.9064   -1.5380 C.ar      1 <0>         0.3661
     21 N5         -5.6079   -7.7739   -2.2273 N.ar      1 <0>        -0.5871
     22 C11        -6.0726   -6.5743   -2.5614 C.ar      1 <0>         0.5073
     23 N6         -7.2452   -6.4456   -3.2850 N.pl3     1 <0>        -0.6904
     24 C12        -7.9987   -7.6392   -3.6772 C.3       1 <0>         0.1703
     25 C13        -9.2253   -7.2276   -4.4499 C.ar      1 <0>        -0.1092
     26 C14       -10.4099   -6.9750   -3.7831 C.ar      1 <0>        -0.0788
     27 C15       -11.5351   -6.5975   -4.4915 C.ar      1 <0>        -0.1155
     28 C16       -11.4764   -6.4722   -5.8670 C.ar      1 <0>        -0.0754
     29 C17       -10.2918   -6.7247   -6.5341 C.ar      1 <0>        -0.1026
     30 C18        -9.1645   -7.0970   -5.8244 C.ar      1 <0>        -0.0641
     31 I1        -10.2026   -6.5356   -8.6187 I         1 <0>        -0.0379
     32 O3         -0.2777   -5.1316   -0.9750 O.3       1 <0>        -0.5314
     33 O4          0.8483   -2.8101   -1.3100 O.3       1 <0>        -0.5362
     34 H5          1.0048    1.8381    0.0023 H         1 <0>         0.0830
     35 H6         -0.5450    1.8219   -0.8730 H         1 <0>         0.0653
     36 H7         -0.5280    1.8123    0.9069 H         1 <0>         0.0657
     37 H8          0.8486   -0.4776   -0.0086 H         1 <0>         0.3996
     38 H9         -4.3686   -2.4098   -1.7561 H         1 <0>         0.2242
     39 H10        -4.1517   -8.8996   -1.2813 H         1 <0>         0.2060
     40 H11        -7.5682   -5.5651   -3.5326 H         1 <0>         0.4195
     41 H12        -7.3721   -8.2754   -4.3023 H         1 <0>         0.0825
     42 H13        -8.2988   -8.1888   -2.7851 H         1 <0>         0.0840
     43 H14       -10.4561   -7.0732   -2.7086 H         1 <0>         0.1321
     44 H15       -12.4604   -6.4006   -3.9704 H         1 <0>         0.1349
     45 H16       -12.3557   -6.1775   -6.4205 H         1 <0>         0.1316
     46 H17        -8.2379   -7.2896   -6.3447 H         1 <0>         0.1313
     47 H18         0.5294   -5.1801   -1.5054 H         1 <0>         0.3970
     48 H19         1.2858   -1.9588   -1.1720 H         1 <0>         0.3844
@<TRIPOS>BOND
     1    1    2 1
     2    1   34 1
     3    1   35 1
     4    1   36 1
     5    2    3 am
     6    2   37 1
     7    3    4 2
     8    3    5 1
     9    5    6 1
    10    5   13 1
    11    5    7 1
    12    7    8 1
    13    7    9 1
    14    7   33 1
    15    9   10 1
    16    9   11 1
    17    9   32 1
    18   11   12 1
    19   11   13 1
    20   11   14 1
    21   14   18 1
    22   14   15 1
    23   15   16 2
    24   15   38 1
    25   16   17 1
    26   17   22 ar
    27   17   18 ar
    28   18   19 ar
    29   19   20 ar
    30   20   21 ar
    31   20   39 1
    32   21   22 ar
    33   22   23 1
    34   23   24 1
    35   23   40 1
    36   24   25 1
    37   24   41 1
    38   24   42 1
    39   25   30 ar
    40   25   26 ar
    41   26   27 ar
    42   26   43 1
    43   27   28 ar
    44   27   44 1
    45   28   29 ar
    46   28   45 1
    47   29   30 ar
    48   29   31 1
    49   30   46 1
    50   32   47 1
    51   33   48 1
@<TRIPOS>MOLECULE
ZINC03918045
   64    67     0     0     0
SMALL
USER_CHARGES

@<TRIPOS>ATOM
      1 C1         -0.0187    1.5258    0.0104 C.3       1 <0>        -0.1674
      2 C2          0.0021   -0.0041    0.0020 C.3       1 <0>         0.1138
      3 N1         -1.3723   -0.5112    0.0124 N.am      1 <0>        -0.7285
      4 C3         -1.6006   -1.8394    0.0075 C.2       1 <0>         0.5161
      5 O1         -0.6682   -2.6149   -0.0056 O.2       1 <0>        -0.5030
      6 C4         -3.0144   -2.3611    0.0182 C.3       1 <0>         0.0322
      7 H1         -3.5805   -1.9494   -0.8174 H         1 <0>         0.1204
      8 C5         -3.7084   -2.0293    1.3638 C.3       1 <0>         0.0505
      9 H2         -3.0081   -2.1165    2.1945 H         1 <0>         0.0942
     10 C6         -4.8001   -3.1239    1.4442 C.3       1 <0>         0.0831
     11 H3         -4.8843   -3.5048    2.4620 H         1 <0>         0.0903
     12 C7         -4.2978   -4.2288    0.4946 C.3       1 <0>         0.3175
     13 H4         -5.0029   -4.3610   -0.3260 H         1 <0>         0.1284
     14 O2         -3.0242   -3.8042   -0.0230 O.3       1 <0>        -0.3269
     15 N2         -4.1477   -5.4871    1.2297 N.pl3     1 <0>        -0.4802
     16 C8         -3.0008   -5.9569    1.8003 C.2       1 <0>         0.2432
     17 N3         -3.2267   -7.1034    2.3721 N.2       1 <0>        -0.4481
     18 C9         -4.5290   -7.4419    2.2057 C.ar      1 <0>        -0.1569
     19 C10        -5.1358   -6.4064    1.4757 C.ar      1 <0>         0.3582
     20 N4         -6.4289   -6.4937    1.1805 N.ar      1 <0>        -0.6111
     21 C11        -7.1392   -7.5399    1.5700 C.ar      1 <0>         0.6334
     22 N5         -6.6075   -8.5385    2.2633 N.ar      1 <0>        -0.6206
     23 C12        -5.3210   -8.5359    2.5945 C.ar      1 <0>         0.5455
     24 N6         -4.7758   -9.5810    3.3191 N.pl3     1 <0>        -0.8154
     25 N7         -8.4842   -7.5943    1.2433 N.pl3     1 <0>        -0.6931
     26 C13        -9.2940   -8.7410    1.6621 C.3       1 <0>         0.1436
     27 C14       -10.7329   -8.5537    1.1769 C.3       1 <0>        -0.0856
     28 C15       -11.5659   -9.7334    1.6077 C.ar      1 <0>        -0.1035
     29 C16       -11.6726  -10.8406    0.7871 C.ar      1 <0>        -0.1102
     30 C17       -12.4367  -11.9227    1.1822 C.ar      1 <0>        -0.1197
     31 C18       -13.0937  -11.8977    2.3982 C.ar      1 <0>        -0.0611
     32 C19       -12.9862  -10.7908    3.2192 C.ar      1 <0>        -0.1198
     33 C20       -12.2187   -9.7105    2.8260 C.ar      1 <0>        -0.1103
     34 C21       -13.9275  -13.0770    2.8286 C.3       1 <0>        -0.0621
     35 C22       -13.0545  -14.0606    3.6104 C.3       1 <0>        -0.1744
     36 C23       -13.8883  -15.2399    4.0407 C.2       1 <0>         0.4893
     37 O3        -15.0711  -15.2890    3.7491 O.co2     1 <0>        -0.6989
     38 O4        -13.3800  -16.1448    4.6804 O.co2     1 <0>        -0.7061
     39 O5         -6.0569   -2.6106    0.9981 O.3       1 <0>        -0.5315
     40 O6         -4.2936   -0.7261    1.3280 O.3       1 <0>        -0.5367
     41 H5          1.0039    1.9031    0.0027 H         1 <0>         0.0782
     42 H6         -0.5459    1.8868   -0.8726 H         1 <0>         0.0641
     43 H7         -0.5289    1.8773    0.9072 H         1 <0>         0.0635
     44 H8          0.5123   -0.3556   -0.8948 H         1 <0>         0.0723
     45 H9          0.5293   -0.3651    0.8851 H         1 <0>         0.0723
     46 H10        -2.1181    0.1091    0.0229 H         1 <0>         0.3976
     47 H11        -2.0464   -5.4520    1.7797 H         1 <0>         0.2192
     48 H12        -3.8374   -9.5637    3.5640 H         1 <0>         0.4192
     49 H13        -5.3319  -10.3310    3.5820 H         1 <0>         0.4113
     50 H14        -8.8899   -6.8730    0.7372 H         1 <0>         0.4139
     51 H15        -8.8814   -9.6536    1.2319 H         1 <0>         0.0706
     52 H16        -9.2840   -8.8152    2.7495 H         1 <0>         0.0705
     53 H17       -11.1455   -7.6411    1.6071 H         1 <0>         0.0758
     54 H18       -10.7429   -8.4796    0.0895 H         1 <0>         0.0759
     55 H19       -11.1593  -10.8602   -0.1629 H         1 <0>         0.1169
     56 H20       -12.5206  -12.7875    0.5408 H         1 <0>         0.1208
     57 H21       -13.4998  -10.7711    4.1691 H         1 <0>         0.1207
     58 H22       -12.1317   -8.8472    3.4691 H         1 <0>         0.1168
     59 H23       -14.7441  -12.7324    3.4630 H         1 <0>         0.0703
     60 H24       -14.3358  -13.5737    1.9485 H         1 <0>         0.0703
     61 H25       -12.2379  -14.4052    2.9760 H         1 <0>         0.0570
     62 H26       -12.6461  -13.5639    4.4905 H         1 <0>         0.0569
     63 H27        -6.3912   -1.8738    1.5276 H         1 <0>         0.3949
     64 H28        -3.6563   -0.0124    1.1882 H         1 <0>         0.3823
@<TRIPOS>BOND
     1    1    2 1
     2    1   41 1
     3    1   42 1
     4    1   43 1
     5    2    3 1
     6    2   44 1
     7    2   45 1
     8    3    4 am
     9    3   46 1
    10    4    5 2
    11    4    6 1
    12    6    7 1
    13    6   14 1
    14    6    8 1
    15    8    9 1
    16    8   10 1
    17    8   40 1
    18   10   11 1
    19   10   12 1
    20   10   39 1
    21   12   13 1
    22   12   14 1
    23   12   15 1
    24   15   19 1
    25   15   16 1
    26   16   17 2
    27   16   47 1
    28   17   18 1
    29   18   23 ar
    30   18   19 ar
    31   19   20 ar
    32   20   21 ar
    33   21   22 ar
    34   21   25 1
    35   22   23 ar
    36   23   24 1
    37   24   48 1
    38   24   49 1
    39   25   26 1
    40   25   50 1
    41   26   27 1
    42   26   51 1
    43   26   52 1
    44   27   28 1
    45   27   53 1
    46   27   54 1
    47   28   33 ar
    48   28   29 ar
    49   29   30 ar
    50   29   55 1
    51   30   31 ar
    52   30   56 1
    53   31   32 ar
    54   31   34 1
    55   32   33 ar
    56   32   57 1
    57   33   58 1
    58   34   35 1
    59   34   59 1
    60   34   60 1
    61   35   36 1
    62   35   61 1
    63   35   62 1
    64   36   37 2
    65   36   38 1
    66   39   63 1
    67   40   64 1
@<TRIPOS>MOLECULE
ZINC29563822
   64    67     0     0     0
SMALL
USER_CHARGES
3-[4-[2-[[6-amino-9-[(2S,3R,4S,5S)-5-(ethylcarbamoyl)-3,4-dihydroxy-tetrahydrofuran-2-yl]purin-2-yl]amino]ethyl]phenyl]propanoic acid
@<TRIPOS>ATOM
      1 C1         -0.2393   -3.8868    2.9933 C.3       1 <0>        -0.1661
      2 C2         -0.1714   -2.3585    3.0155 C.3       1 <0>         0.1143
      3 N1         -0.1177   -1.8520    1.6419 N.am      1 <0>        -0.7366
      4 C3         -0.0531   -0.5251    1.4150 C.2       1 <0>         0.4933
      5 O1         -0.0394    0.2497    2.3480 O.2       1 <0>        -0.5196
      6 C4          0.0021   -0.0041    0.0020 C.3       1 <0>         0.0797
      7 H1         -0.8921   -0.3496   -0.5375 H         1 <0>         0.1444
      8 C5          1.3184   -0.4407   -0.6698 C.3       1 <0>         0.1123
      9 H2          1.9093   -1.1627   -0.0870 H         1 <0>         0.0943
     10 C6          2.0444    0.8904   -0.9828 C.3       1 <0>         0.0552
     11 H3          3.1432    0.8590   -0.9421 H         1 <0>         0.0919
     12 C7          1.3576    1.8735   -0.0008 C.3       1 <0>         0.2828
     13 H4          1.7686    1.9068    1.0190 H         1 <0>         0.1194
     14 O2         -0.0174    1.4332    0.0099 O.3       1 <0>        -0.3314
     15 N2          1.4550    3.2490   -0.4956 N.pl3     1 <0>        -0.4786
     16 C8          0.5559    3.8820   -1.3034 C.2       1 <0>         0.2453
     17 N3          0.9543    5.0966   -1.5450 N.2       1 <0>        -0.4534
     18 C9          2.1353    5.3176   -0.9167 C.ar      1 <0>        -0.1599
     19 C10         2.4699    4.1350   -0.2365 C.ar      1 <0>         0.3497
     20 N4          3.5969    4.0889    0.4667 N.ar      1 <0>        -0.6251
     21 C11         4.3960    5.1419    0.5274 C.ar      1 <0>         0.6364
     22 N5          4.1190    6.2782   -0.0992 N.ar      1 <0>        -0.6296
     23 C12         3.0137    6.4108   -0.8241 C.ar      1 <0>         0.5497
     24 N6          2.7335    7.5996   -1.4743 N.pl3     1 <0>        -0.8398
     25 N7          5.5617    5.0549    1.2705 N.pl3     1 <0>        -0.7057
     26 C13         6.4644    6.2057    1.3546 C.3       1 <0>         0.1485
     27 C14         7.6672    5.8475    2.2297 C.3       1 <0>        -0.0867
     28 C15         8.5958    7.0313    2.3162 C.ar      1 <0>        -0.1015
     29 C16         9.6127    7.1811    1.3919 C.ar      1 <0>        -0.1106
     30 C17        10.4614    8.2695    1.4684 C.ar      1 <0>        -0.1187
     31 C18        10.2997    9.2026    2.4754 C.ar      1 <0>        -0.0617
     32 C19         9.2861    9.0501    3.4028 C.ar      1 <0>        -0.1185
     33 C20         8.4341    7.9644    3.3232 C.ar      1 <0>        -0.1105
     34 C21        11.2289   10.3859    2.5625 C.3       1 <0>        -0.0680
     35 C22        12.4314   10.0268    3.4377 C.3       1 <0>        -0.1495
     36 C23        13.3605   11.2101    3.5247 C.2       1 <0>         0.4587
     37 O3         13.0888   12.2355    2.9462 O.co2     1 <0>        -0.6413
     38 O4         14.4899   11.1251    4.2451 O.co2     1 <0>        -0.7761
     39 O5          1.8237    1.2851   -2.3383 O.3       1 <0>        -0.5683
     40 O6          1.0503   -1.1596   -1.8752 O.3       1 <0>        -0.5769
     41 H5         -0.2796   -4.2670    4.0247 H         1 <0>         0.0755
     42 H6          0.6535   -4.2862    2.4899 H         1 <0>         0.0632
     43 H7         -1.1406   -4.2059    2.4494 H         1 <0>         0.0634
     44 H8         -1.0642   -1.9591    3.5189 H         1 <0>         0.0679
     45 H9          0.7298   -2.0394    3.5595 H         1 <0>         0.0681
     46 H10        -0.1301   -2.5547    0.7957 H         1 <0>         0.4251
     47 H11        -0.3533    3.4407   -1.6843 H         1 <0>         0.2158
     48 H12         3.4293    8.4478   -1.3938 H         1 <0>         0.4314
     49 H13         1.8150    7.6965   -2.0717 H         1 <0>         0.4421
     50 H14         5.8096    4.1217    1.7975 H         1 <0>         0.4350
     51 H15         6.8117    6.4737    0.3459 H         1 <0>         0.0675
     52 H16         5.9301    7.0593    1.7973 H         1 <0>         0.0674
     53 H17         7.3199    5.5795    3.2384 H         1 <0>         0.0765
     54 H18         8.2015    4.9939    1.7870 H         1 <0>         0.0762
     55 H19         9.7418    6.4497    0.6078 H         1 <0>         0.1168
     56 H20        11.2536    8.3885    0.7441 H         1 <0>         0.1212
     57 H21         9.1600    9.7789    4.1898 H         1 <0>         0.1213
     58 H22         7.6423    7.8450    4.0480 H         1 <0>         0.1171
     59 H23        11.5765   10.6541    1.5539 H         1 <0>         0.0723
     60 H24        10.6950   11.2396    3.0054 H         1 <0>         0.0723
     61 H25        12.0838    9.7586    4.4463 H         1 <0>         0.0640
     62 H26        12.9653    9.1731    2.9948 H         1 <0>         0.0640
     63 H27         2.2732    2.2133   -2.7210 H         1 <0>         0.4120
     64 H28         1.8826   -1.5453   -2.4822 H         1 <0>         0.4223
@<TRIPOS>BOND
     1    1    2 1
     2    1   41 1
     3    1   42 1
     4    1   43 1
     5    2    3 1
     6    2   44 1
     7    2   45 1
     8    3    4 am
     9    3   46 1
    10    4    5 2
    11    4    6 1
    12    6    7 1
    13    6   14 1
    14    6    8 1
    15    8    9 1
    16    8   10 1
    17    8   40 1
    18   10   11 1
    19   10   12 1
    20   10   39 1
    21   12   13 1
    22   12   14 1
    23   12   15 1
    24   15   19 1
    25   15   16 1
    26   16   17 2
    27   16   47 1
    28   17   18 1
    29   18   23 ar
    30   18   19 ar
    31   19   20 ar
    32   20   21 ar
    33   21   22 ar
    34   21   25 1
    35   22   23 ar
    36   23   24 1
    37   24   48 1
    38   24   49 1
    39   25   26 1
    40   25   50 1
    41   26   27 1
    42   26   51 1
    43   26   52 1
    44   27   28 1
    45   27   53 1
    46   27   54 1
    47   28   33 ar
    48   28   29 ar
    49   29   30 ar
    50   29   55 1
    51   30   31 ar
    52   30   56 1
    53   31   32 ar
    54   31   34 1
    55   32   33 ar
    56   32   57 1
    57   33   58 1
    58   34   35 1
    59   34   59 1
    60   34   60 1
    61   35   36 1
    62   35   61 1
    63   35   62 1
    64   36   37 2
    65   36   38 1
    66   39   63 1
    67   40   64 1
@<TRIPOS>MOLECULE
ZINC00192156
   38    40     0     0     0
SMALL
USER_CHARGES

@<TRIPOS>ATOM
      1 C1          0.0044    1.4814    0.4806 C.3       1 <0>        -0.1533
      2 C2          0.0119   -0.0230    0.2019 C.3       1 <0>         0.0634
      3 O1         -1.3279   -0.5192    0.2295 O.3       1 <0>        -0.3516
      4 C3         -1.4975   -1.8387    0.0007 C.2       1 <0>         0.5610
      5 O2         -0.5324   -2.5477   -0.2162 O.2       1 <0>        -0.4866
      6 C4         -2.7978   -2.3977    0.0132 C.2       1 <0>        -0.3345
      7 C5         -3.1967   -3.7376   -0.0757 C.2       1 <0>         0.2471
      8 N1         -4.4952   -3.9544   -0.0362 N.2       1 <0>        -0.5505
      9 C6         -5.3560   -2.9630    0.0801 C.2       1 <0>         0.2614
     10 S1         -4.3847   -1.5913    0.1545 S.3       1 <0>         0.3281
     11 N2         -6.7353   -3.0342    0.1343 N.am      1 <0>        -0.5996
     12 C7         -7.4640   -1.9069    0.2557 C.2       1 <0>         0.6117
     13 O3         -6.9076   -0.8264    0.3176 O.2       1 <0>        -0.4741
     14 C8         -8.9267   -1.9824    0.3132 C.2       1 <0>        -0.0958
     15 C9         -9.7812   -0.9231    0.4292 C.2       1 <0>        -0.0886
     16 C10       -11.0807   -1.4529    0.4457 C.2       1 <0>        -0.2264
     17 C11       -10.9644   -2.7953    0.3405 C.2       1 <0>         0.0180
     18 O4         -9.6653   -3.1100    0.2550 O.3       1 <0>        -0.1643
     19 C12        -2.2187   -4.8422   -0.2066 C.ar      1 <0>        -0.0439
     20 C13        -1.0837   -4.8722    0.6036 C.ar      1 <0>        -0.0489
     21 C14        -0.1765   -5.9041    0.4773 C.ar      1 <0>        -0.1261
     22 C15        -0.3908   -6.9076   -0.4506 C.ar      1 <0>        -0.1002
     23 C16        -1.5144   -6.8832   -1.2574 C.ar      1 <0>        -0.1314
     24 C17        -2.4318   -5.8597   -1.1365 C.ar      1 <0>        -0.0762
     25 H1          1.0264    1.8599    0.4595 H         1 <0>         0.0812
     26 H2         -0.5868    1.9891   -0.2815 H         1 <0>         0.0673
     27 H3         -0.4316    1.6669    1.4622 H         1 <0>         0.0673
     28 H4          0.4480   -0.2085   -0.7797 H         1 <0>         0.0699
     29 H5          0.6032   -0.5308    0.9639 H         1 <0>         0.0698
     30 H6         -7.1788   -3.8954    0.0850 H         1 <0>         0.4340
     31 H7         -9.5095    0.1201    0.4956 H         1 <0>         0.1681
     32 H8        -12.0007   -0.8932    0.5277 H         1 <0>         0.1645
     33 H9        -11.7842   -3.4981    0.3238 H         1 <0>         0.2179
     34 H10        -0.9151   -4.0891    1.3280 H         1 <0>         0.1212
     35 H11         0.7029   -5.9282    1.1038 H         1 <0>         0.1260
     36 H12         0.3222   -7.7132   -0.5458 H         1 <0>         0.1242
     37 H13        -1.6759   -7.6691   -1.9804 H         1 <0>         0.1258
     38 H14        -3.3111   -5.8442   -1.7635 H         1 <0>         0.1241
@<TRIPOS>BOND
     1    1    2 1
     2    1   25 1
     3    1   26 1
     4    1   27 1
     5    2    3 1
     6    2   28 1
     7    2   29 1
     8    3    4 1
     9    4    5 2
    10    4    6 1
    11    6   10 1
    12    6    7 2
    13    7    8 1
    14    7   19 1
    15    8    9 2
    16    9   10 1
    17    9   11 1
    18   11   12 am
    19   11   30 1
    20   12   13 2
    21   12   14 1
    22   14   18 1
    23   14   15 2
    24   15   16 1
    25   15   31 1
    26   16   17 2
    27   16   32 1
    28   17   18 1
    29   17   33 1
    30   19   24 ar
    31   19   20 ar
    32   20   21 ar
    33   20   34 1
    34   21   22 ar
    35   21   35 1
    36   22   23 ar
    37   22   36 1
    38   23   24 ar
    39   23   37 1
    40   24   38 1
@<TRIPOS>MOLECULE
ZINC27195995
   37    39     0     0     0
SMALL
USER_CHARGES
2-amino-4-(4-hydroxyphenyl)-6-(1H-imidazol-2-ylmethylsulfanyl)pyridine-3,5-dicarbonitrile
@<TRIPOS>ATOM
      1 C1         -2.1592    2.0697   -1.0740 C.ar      1 <0>        -0.0416
      2 C2         -3.3512    2.7607   -1.0589 C.ar      1 <0>        -0.1604
      3 C3         -3.6890    3.5427    0.0386 C.ar      1 <0>         0.1793
      4 C4         -2.8292    3.6278    1.1265 C.ar      1 <0>        -0.2142
      5 C5         -1.6377    2.9360    1.1210 C.ar      1 <0>        -0.0430
      6 C6         -1.2948    2.1485    0.0199 C.ar      1 <0>        -0.1358
      7 C7         -0.0170    1.4050    0.0098 C.ar      1 <0>         0.1689
      8 C8          1.2181    2.0849    0.0016 C.ar      1 <0>        -0.1628
      9 C9          2.4085    1.3352   -0.0138 C.ar      1 <0>         0.5036
     10 N1          2.3794    0.0120   -0.0206 N.ar      1 <0>        -0.5535
     11 C10         1.2431   -0.6686   -0.0134 C.ar      1 <0>         0.2398
     12 C11         0.0021   -0.0041    0.0020 C.ar      1 <0>        -0.1246
     13 C12        -1.2214   -0.7482    0.0102 C.1       1 <0>         0.2580
     14 N2         -2.1920   -1.3385    0.0166 N.1       1 <0>        -0.3941
     15 S1          1.2853   -2.4300   -0.0227 S.3       1 <0>         0.0070
     16 C13         3.0747   -2.7014   -0.0414 C.3       1 <0>        -0.0239
     17 C14         3.3582   -4.1815   -0.0517 C.2       1 <0>         0.1888
     18 N3          3.5223   -4.9590    1.0402 N.pl3     1 <0>        -0.5707
     19 H1          3.4541   -4.5172    2.0453 H         1 <0>         0.4499
     20 C15         3.7568   -6.2332    0.5985 C.2       1 <0>        -0.0259
     21 C16         3.7371   -6.1887   -0.7474 C.2       1 <0>        -0.0289
     22 N4          3.4915   -4.9231   -1.1172 N.2       1 <0>        -0.4704
     23 N5          3.6244    1.9891   -0.0223 N.pl3     1 <0>        -0.8447
     24 C17         1.2603    3.5163    0.0089 C.1       1 <0>         0.2605
     25 N6          1.2937    4.6518    0.0147 N.1       1 <0>        -0.4068
     26 O1         -4.8625    4.2261    0.0477 O.3       1 <0>        -0.5052
     27 H2         -1.8954    1.4653   -1.9292 H         1 <0>         0.1345
     28 H3         -4.0221    2.6970   -1.9028 H         1 <0>         0.1365
     29 H4         -3.0953    4.2368    1.9779 H         1 <0>         0.1338
     30 H5         -0.9697    3.0029    1.9669 H         1 <0>         0.1285
     31 H6          3.5063   -2.2391   -0.9414 H         1 <0>         0.1313
     32 H7          3.5237   -2.2483    0.8547 H         1 <0>         0.1158
     33 H8          3.9287   -7.1056    1.2113 H         1 <0>         0.1801
     34 H9          3.8922   -7.0255   -1.4123 H         1 <0>         0.1744
     35 H10         4.5599    1.4106   -0.0343 H         1 <0>         0.4397
     36 H11         3.6576    3.0886   -0.0170 H         1 <0>         0.4382
     37 H12        -5.1314    4.8457    0.9159 H         1 <0>         0.4381
@<TRIPOS>BOND
     1    1    6 ar
     2    1    2 ar
     3    1   27 1
     4    2    3 ar
     5    2   28 1
     6    3    4 ar
     7    3   26 1
     8    4    5 ar
     9    4   29 1
    10    5    6 ar
    11    5   30 1
    12    6    7 1
    13    7   12 ar
    14    7    8 ar
    15    8    9 ar
    16    8   24 1
    17    9   10 ar
    18    9   23 1
    19   10   11 ar
    20   11   12 ar
    21   11   15 1
    22   12   13 1
    23   13   14 3
    24   15   16 1
    25   16   17 1
    26   16   31 1
    27   16   32 1
    28   17   22 2
    29   17   18 1
    30   18   19 1
    31   18   20 1
    32   20   21 2
    33   20   33 1
    34   21   22 1
    35   21   34 1
    36   23   35 1
    37   23   36 1
    38   24   25 3
    39   26   37 1
@<TRIPOS>MOLECULE
ZINC02022527
   54    55     0     0     0
SMALL
USER_CHARGES

@<TRIPOS>ATOM
      1 C1         -3.0730    2.2881   -4.2693 C.3       1 <0>        -0.1569
      2 C2         -2.3049    1.5870   -3.1471 C.3       1 <0>        -0.1270
      3 C3         -2.8110    2.0874   -1.7927 C.3       1 <0>        -0.1231
      4 C4         -2.0429    1.3862   -0.6705 C.3       1 <0>        -0.1174
      5 C5         -2.5490    1.8867    0.6839 C.3       1 <0>        -0.1006
      6 C6         -2.2117    3.3722    0.8391 C.3       1 <0>        -0.1451
      7 C7         -2.6658    3.8518    2.2196 C.3       1 <0>        -0.0114
      8 C8         -2.3347    1.6429    3.1595 C.3       1 <0>        -0.0001
      9 C9         -1.8707    1.0973    1.8070 C.3       1 <0>        -0.1442
     10 C10        -2.2939    3.5901    4.5974 C.3       1 <0>        -0.0052
     11 C11        -2.1583    5.1140    4.5919 C.3       1 <0>        -0.1459
     12 C12        -2.4764    5.6593    5.9856 C.3       1 <0>        -0.1543
     13 C13        -2.3428    7.1604    5.9803 C.2       1 <0>         0.3987
     14 O1         -2.0245    7.7371    4.9623 O.2       1 <0>        -0.4456
     15 C14        -2.5986    7.9263    7.2106 C.ar      1 <0>        -0.1885
     16 C15        -3.0878    7.2813    8.3513 C.ar      1 <0>        -0.0705
     17 C16        -3.3195    8.0047    9.5018 C.ar      1 <0>        -0.1389
     18 C17        -3.0801    9.3679    9.5265 C.ar      1 <0>        -0.0729
     19 C18        -2.6016   10.0143    8.4004 C.ar      1 <0>        -0.1345
     20 C19        -2.3594    9.3036    7.2436 C.ar      1 <0>        -0.0178
     21 C20        -1.8387   10.0095    6.0182 C.3       1 <0>        -0.1264
     22 H1         -4.1363    2.0676   -4.1746 H         1 <0>         0.0549
     23 H2         -2.9175    3.3647   -4.1985 H         1 <0>         0.0540
     24 H3         -2.7125    1.9316   -5.2342 H         1 <0>         0.0581
     25 H4         -1.2417    1.8075   -3.2417 H         1 <0>         0.0621
     26 H5         -2.4605    0.5104   -3.2179 H         1 <0>         0.0631
     27 H6         -3.8743    1.8669   -1.6981 H         1 <0>         0.0644
     28 H7         -2.6555    3.1639   -1.7219 H         1 <0>         0.0632
     29 H8         -2.1984    0.3097   -0.7413 H         1 <0>         0.0733
     30 H9         -0.9796    1.6067   -0.7651 H         1 <0>         0.0688
     31 H10        -3.6287    1.7492    0.7427 H         1 <0>         0.0884
     32 H11        -1.1354    3.5132    0.7407 H         1 <0>         0.0881
     33 H12        -2.7264    3.9447    0.0675 H         1 <0>         0.1133
     34 H13        -3.7442    3.7233    2.3122 H         1 <0>         0.1295
     35 H14        -2.4142    4.9057    2.3388 H         1 <0>         0.1342
     36 H15        -3.4146    1.5248    3.2476 H         1 <0>         0.1293
     37 H16        -1.8426    1.0924    3.9613 H         1 <0>         0.1282
     38 H17        -2.1418    0.0446    1.7270 H         1 <0>         0.1118
     39 H18        -0.7890    1.2025    1.7239 H         1 <0>         0.0880
     40 H19        -3.3133    3.3170    4.8704 H         1 <0>         0.1315
     41 H20        -1.5979    3.1659    5.3211 H         1 <0>         0.1302
     42 H21        -1.1389    5.3871    4.3190 H         1 <0>         0.0944
     43 H22        -2.8542    5.5382    3.8682 H         1 <0>         0.0968
     44 H23        -3.4115    5.4088    6.2361 H         1 <0>         0.0981
     45 H24        -1.7805    5.2352    6.7093 H         1 <0>         0.1100
     46 H25        -3.2793    6.2186    8.3321 H         1 <0>         0.1290
     47 H26        -3.6933    7.5074   10.3846 H         1 <0>         0.1322
     48 H27        -3.2682    9.9300   10.4293 H         1 <0>         0.1326
     49 H28        -2.4176   11.0782    8.4274 H         1 <0>         0.1332
     50 H29        -2.6709   10.2515    5.3572 H         1 <0>         0.0784
     51 H30        -1.3321   10.9277    6.3156 H         1 <0>         0.0652
     52 H31        -1.1365    9.3600    5.4956 H         1 <0>         0.0893
     53 N1         -1.9588    3.0696    3.2558 N.4       1 <0>        -0.3931
     54 H32        -0.9467    3.1581    3.1071 H         1 <0>         0.4272
@<TRIPOS>BOND
     1    1    2 1
     2    1   22 1
     3    1   23 1
     4    1   24 1
     5    2    3 1
     6    2   25 1
     7    2   26 1
     8    3    4 1
     9    3   27 1
    10    3   28 1
    11    4    5 1
    12    4   29 1
    13    4   30 1
    14    5    9 1
    15    5    6 1
    16    5   31 1
    17    6    7 1
    18    6   32 1
    19    6   33 1
    20    7   34 1
    21    7   35 1
    22    7   53 1
    23    8    9 1
    24    8   36 1
    25    8   37 1
    26    8   53 1
    27    9   38 1
    28    9   39 1
    29   10   11 1
    30   10   40 1
    31   10   41 1
    32   10   53 1
    33   11   12 1
    34   11   42 1
    35   11   43 1
    36   12   13 1
    37   12   44 1
    38   12   45 1
    39   13   14 2
    40   13   15 1
    41   15   20 ar
    42   15   16 ar
    43   16   17 ar
    44   16   46 1
    45   17   18 ar
    46   17   47 1
    47   18   19 ar
    48   18   48 1
    49   19   20 ar
    50   19   49 1
    51   20   21 1
    52   21   50 1
    53   21   51 1
    54   21   52 1
    55   53   54 1
@<TRIPOS>MOLECULE
ZINC13517144
   18    19     0     0     0
SMALL
USER_CHARGES

@<TRIPOS>ATOM
      1 C1         -0.0127    1.0858    0.0080 C.3       1 <0>         0.0811
      2 N1         -0.7213    1.5711   -1.1789 N.am      1 <0>        -0.5505
      3 C2         -0.8540    2.8992   -1.3768 C.2       1 <0>         0.5933
      4 O1         -0.3888    3.6909   -0.5766 O.2       1 <0>        -0.5088
      5 C3         -1.5378    3.3603   -2.5224 C.2       1 <0>        -0.1520
      6 C4         -2.0577    2.4349   -3.4185 C.2       1 <0>         0.3174
      7 N2         -2.6471    3.1223   -4.4001 N.2       1 <0>        -0.5006
      8 H1         -1.6266    5.4627   -2.6323 H         1 <0>         0.4394
      9 C5         -2.5289    4.4061   -4.1753 C.2       1 <0>         0.2794
     10 N3         -1.8516    4.6060   -3.0278 N.pl3     1 <0>        -0.5173
     11 N4         -1.8883    1.0845   -3.1590 N.am      1 <0>        -0.6108
     12 H2         -2.2446    0.4246   -3.7742 H         1 <0>         0.4399
     13 C6         -1.2246    0.6867   -2.0571 C.2       1 <0>         0.7128
     14 O2         -1.0815   -0.5027   -1.8484 O.2       1 <0>        -0.5318
     15 H3          0.0021   -0.0041    0.0020 H         1 <0>         0.1069
     16 H4          1.0099    1.4631    0.0003 H         1 <0>         0.0827
     17 H5         -0.5229    1.4373    0.9048 H         1 <0>         0.0828
     18 H6         -2.9152    5.1872   -4.8133 H         1 <0>         0.2363
@<TRIPOS>BOND
     1    1   15 1
     2    1   16 1
     3    1   17 1
     4    1    2 1
     5    2   13 am
     6    2    3 am
     7    3    4 2
     8    3    5 1
     9    5   10 1
    10    5    6 2
    11    6    7 1
    12    6   11 1
    13    7    9 2
    14    8   10 1
    15    9   10 1
    16    9   18 1
    17   11   12 1
    18   11   13 am
    19   13   14 2
@<TRIPOS>MOLECULE
ZINC13517144
   17    18     0     0     0
SMALL
USER_CHARGES

@<TRIPOS>ATOM
      1 C1         -0.0127    1.0858    0.0080 C.3       1 <0>         0.0896
      2 N1         -0.7213    1.5711   -1.1789 N.am      1 <0>        -0.5382
      3 C2         -0.8540    2.9126   -1.3766 C.2       1 <0>         0.5517
      4 O1         -0.3393    3.7848   -0.4912 O.3       1 <0>        -0.6043
      5 C3         -1.5299    3.3720   -2.5089 C.2       1 <0>        -0.1655
      6 C4         -2.0578    2.4286   -3.4188 C.2       1 <0>         0.2144
      7 N2         -2.6381    3.1209   -4.3836 N.2       1 <0>        -0.5572
      8 C5         -2.5013    4.4189   -4.1262 C.2       1 <0>         0.1218
      9 N3         -1.8390    4.5925   -3.0054 N.2       1 <0>        -0.4745
     10 N4         -1.8874    1.0794   -3.1590 N.am      1 <0>        -0.6054
     11 H1         -2.2435    0.4184   -3.7731 H         1 <0>         0.4198
     12 C6         -1.2236    0.6851   -2.0554 C.2       1 <0>         0.7095
     13 O2         -1.0791   -0.5038   -1.8444 O.2       1 <0>        -0.5806
     14 H2          0.0021   -0.0041    0.0020 H         1 <0>         0.0950
     15 H3          1.0099    1.4631    0.0003 H         1 <0>         0.0723
     16 H4         -0.5229    1.4373    0.9048 H         1 <0>         0.0723
     17 H5         -2.8800    5.2154   -4.7495 H         1 <0>         0.1793
@<TRIPOS>BOND
     1    1   14 1
     2    1   15 1
     3    1   16 1
     4    1    2 1
     5    2   12 am
     6    2    3 1
     7    3    4 1
     8    3    5 2
     9    5    9 1
    10    5    6 1
    11    6    7 2
    12    6   10 1
    13    7    8 1
    14    8    9 2
    15    8   17 1
    16   10   11 1
    17   10   12 am
    18   12   13 2
@<TRIPOS>MOLECULE
ZINC00602847
   48    52     0     0     0
SMALL
USER_CHARGES

@<TRIPOS>ATOM
      1 C1         -0.0173    1.4248    0.0099 C.3       1 <0>         0.0269
      2 O1          0.0021   -0.0041    0.0020 O.3       1 <0>        -0.3182
      3 C2          0.6258   -0.6184    1.0415 C.ar      1 <0>         0.1243
      4 C3          1.2022    0.1384    2.0513 C.ar      1 <0>        -0.2068
      5 C4          1.8353   -0.4884    3.1070 C.ar      1 <0>        -0.0750
      6 C5          1.8951   -1.8688    3.1577 C.ar      1 <0>        -0.1214
      7 C6          1.3218   -2.6253    2.1523 C.ar      1 <0>        -0.0748
      8 C7          0.6822   -2.0034    1.0976 C.ar      1 <0>        -0.1496
      9 C8          2.5867   -2.5500    4.3104 C.3       1 <0>        -0.0706
     10 C9          1.5771   -2.8076    5.4307 C.3       1 <0>        -0.1307
     11 C10         2.2793   -3.4992    6.6010 C.3       1 <0>         0.1366
     12 N1          1.3125   -3.7459    7.6738 N.pl3     1 <0>        -0.3534
     13 C11         1.0184   -2.8933    8.6954 C.2       1 <0>         0.3698
     14 C12         0.0463   -3.5315    9.4806 C.2       1 <0>        -0.2674
     15 C13        -0.2172   -4.7794    8.8878 C.2       1 <0>         0.1302
     16 N2          0.5272   -4.8958    7.8225 N.2       1 <0>        -0.2626
     17 C14        -0.4546   -2.8267   10.6611 C.2       1 <0>         0.4067
     18 N3         -1.3368   -3.1079   11.5974 N.2       1 <0>        -0.5163
     19 C15        -1.4144   -2.0890   12.4629 C.2       1 <0>         0.3505
     20 N4         -0.5791   -1.1375   12.0907 N.2       1 <0>        -0.3000
     21 N5          0.0588   -1.5837   10.9262 N.pl3     1 <0>        -0.3765
     22 C16         1.0032   -1.0458   10.1009 C.2       1 <0>         0.6913
     23 N6          1.4538   -1.6744    9.0431 N.2       1 <0>        -0.5609
     24 N7          1.5011    0.2031   10.3906 N.pl3     1 <0>        -0.8026
     25 C17        -2.2961   -2.0382   13.6479 C.2       1 <0>         0.0425
     26 C18        -2.3879   -1.0082   14.5304 C.2       1 <0>        -0.1373
     27 C19        -3.3441   -1.3838   15.4947 C.2       1 <0>        -0.2200
     28 C20        -3.7842   -2.6118   15.1567 C.2       1 <0>        -0.0041
     29 O2         -3.1527   -3.0019   14.0378 O.3       1 <0>        -0.1521
     30 H1          1.0053    1.8021    0.0021 H         1 <0>         0.0559
     31 H2         -0.5445    1.7859   -0.8732 H         1 <0>         0.1012
     32 H3         -0.5275    1.7763    0.9067 H         1 <0>         0.0554
     33 H4          1.1564    1.2167    2.0118 H         1 <0>         0.1276
     34 H5          2.2842    0.1003    3.8934 H         1 <0>         0.1242
     35 H6          1.3701   -3.7035    2.1940 H         1 <0>         0.1301
     36 H7          0.2307   -2.5948    0.3148 H         1 <0>         0.1312
     37 H8          3.0056   -3.4983    3.9736 H         1 <0>         0.0778
     38 H9          3.3874   -1.9109    4.6827 H         1 <0>         0.0761
     39 H10         1.1582   -1.8593    5.7675 H         1 <0>         0.0709
     40 H11         0.7764   -3.4467    5.0584 H         1 <0>         0.0759
     41 H12         2.6982   -4.4475    6.2643 H         1 <0>         0.1031
     42 H13         3.0799   -2.8601    6.9733 H         1 <0>         0.1002
     43 H14        -0.9200   -5.5149    9.2505 H         1 <0>         0.2021
     44 H15         1.1805    0.6844   11.1693 H         1 <0>         0.4262
     45 H16         2.1729    0.6026    9.8161 H         1 <0>         0.4302
     46 H17        -1.8346   -0.0812   14.4987 H         1 <0>         0.1599
     47 H18        -3.6636   -0.7985   16.3442 H         1 <0>         0.1594
     48 H19        -4.5248   -3.1853   15.6942 H         1 <0>         0.2142
@<TRIPOS>BOND
     1    1    2 1
     2    1   30 1
     3    1   31 1
     4    1   32 1
     5    2    3 1
     6    3    8 ar
     7    3    4 ar
     8    4    5 ar
     9    4   33 1
    10    5    6 ar
    11    5   34 1
    12    6    7 ar
    13    6    9 1
    14    7    8 ar
    15    7   35 1
    16    8   36 1
    17    9   10 1
    18    9   37 1
    19    9   38 1
    20   10   11 1
    21   10   39 1
    22   10   40 1
    23   11   12 1
    24   11   41 1
    25   11   42 1
    26   12   16 1
    27   12   13 1
    28   13   23 1
    29   13   14 2
    30   14   15 1
    31   14   17 1
    32   15   16 2
    33   15   43 1
    34   17   21 1
    35   17   18 2
    36   18   19 1
    37   19   20 2
    38   19   25 1
    39   20   21 1
    40   21   22 1
    41   22   23 2
    42   22   24 1
    43   24   44 1
    44   24   45 1
    45   25   29 1
    46   25   26 2
    47   26   27 1
    48   26   46 1
    49   27   28 2
    50   27   47 1
    51   28   29 1
    52   28   48 1
@<TRIPOS>MOLECULE
ZINC04475322
   51    54     0     0     0
SMALL
USER_CHARGES

@<TRIPOS>ATOM
      1 C1         -0.0187    1.5258    0.0104 C.3       1 <0>        -0.1631
      2 C2          0.0021   -0.0041    0.0020 C.3       1 <0>         0.1538
      3 H1          0.5293   -0.3651    0.8851 H         1 <0>         0.0970
      4 C3          0.7182   -0.4975   -1.2568 C.3       1 <0>        -0.0915
      5 C4          0.8473   -1.9981   -1.2057 C.ar      1 <0>        -0.0833
      6 C5          1.9579   -2.5768   -0.6205 C.ar      1 <0>        -0.1153
      7 C6          2.0763   -3.9532   -0.5737 C.ar      1 <0>        -0.1179
      8 C7          1.0839   -4.7510   -1.1116 C.ar      1 <0>        -0.1236
      9 C8         -0.0272   -4.1724   -1.6960 C.ar      1 <0>        -0.1166
     10 C9         -0.1477   -2.7959   -1.7390 C.ar      1 <0>        -0.1114
     11 N1         -1.3723   -0.5112    0.0124 N.pl3     1 <0>        -0.6847
     12 C10        -2.0462   -0.6591    1.2121 C.ar      1 <0>         0.5114
     13 C11        -3.3630   -1.1495    1.2414 C.ar      1 <0>        -0.1076
     14 C12        -3.9954   -1.2776    2.4893 C.ar      1 <0>         0.3133
     15 N2         -3.3315   -0.9338    3.5883 N.ar      1 <0>        -0.5521
     16 C13        -2.0986   -0.4792    3.5127 C.ar      1 <0>         0.3641
     17 N3         -1.4615   -0.3459    2.3635 N.ar      1 <0>        -0.5871
     18 N4         -5.2495   -1.7694    2.2292 N.pl3     1 <0>        -0.4716
     19 C14        -5.3550   -1.9261    0.8792 C.2       1 <0>         0.2599
     20 N5         -4.2472   -1.5619    0.3015 N.2       1 <0>        -0.4591
     21 C15        -6.2852   -2.0711    3.2205 C.3       1 <0>         0.3143
     22 H2         -5.8341   -2.4623    4.1324 H         1 <0>         0.1224
     23 C16        -7.1166   -0.8068    3.5314 C.3       1 <0>         0.0799
     24 H3         -7.0713   -0.1054    2.6982 H         1 <0>         0.0849
     25 C17        -8.5557   -1.3392    3.7133 C.3       1 <0>         0.0472
     26 H4         -9.2218   -0.9010    2.9700 H         1 <0>         0.0868
     27 C18        -8.4234   -2.8621    3.4907 C.3       1 <0>         0.0504
     28 H5         -8.3019   -3.3758    4.4444 H         1 <0>         0.1000
     29 O1         -7.2349   -3.0173    2.6833 O.3       1 <0>        -0.3469
     30 C19        -9.6487   -3.4004    2.7493 C.3       1 <0>         0.0822
     31 O2         -9.5620   -4.8238    2.6564 O.3       1 <0>        -0.5634
     32 O3         -9.0288   -1.0625    5.0330 O.3       1 <0>        -0.5387
     33 O4         -6.6539   -0.1861    4.7325 O.3       1 <0>        -0.5251
     34 H6          1.0039    1.9031    0.0027 H         1 <0>         0.0681
     35 H7         -0.5459    1.8868   -0.8726 H         1 <0>         0.0555
     36 H8         -0.5289    1.8773    0.9072 H         1 <0>         0.0645
     37 H9          0.1430   -0.2121   -2.1375 H         1 <0>         0.0786
     38 H10         1.7103   -0.0491   -1.3098 H         1 <0>         0.0924
     39 H11         2.7333   -1.9534   -0.2002 H         1 <0>         0.1218
     40 H12         2.9444   -4.4053   -0.1171 H         1 <0>         0.1212
     41 H13         1.1767   -5.8264   -1.0757 H         1 <0>         0.1199
     42 H14        -0.8025   -4.7957   -2.1166 H         1 <0>         0.1203
     43 H15        -1.0175   -2.3439   -2.1923 H         1 <0>         0.1175
     44 H16        -1.8100   -0.7432   -0.8215 H         1 <0>         0.4144
     45 H17        -1.5876   -0.2084    4.4248 H         1 <0>         0.2035
     46 H18        -6.2290   -2.2977    0.3649 H         1 <0>         0.2215
     47 H19       -10.5523   -3.1263    3.2938 H         1 <0>         0.0670
     48 H20        -9.6843   -2.9724    1.7475 H         1 <0>         0.0609
     49 H21       -10.3074   -5.2341    2.1971 H         1 <0>         0.3867
     50 H22        -9.9281   -1.3753    5.2020 H         1 <0>         0.3872
     51 H23        -7.1412    0.6131    4.9751 H         1 <0>         0.3903
@<TRIPOS>BOND
     1    1    2 1
     2    1   34 1
     3    1   35 1
     4    1   36 1
     5    2    3 1
     6    2    4 1
     7    2   11 1
     8    4    5 1
     9    4   37 1
    10    4   38 1
    11    5   10 ar
    12    5    6 ar
    13    6    7 ar
    14    6   39 1
    15    7    8 ar
    16    7   40 1
    17    8    9 ar
    18    8   41 1
    19    9   10 ar
    20    9   42 1
    21   10   43 1
    22   11   12 1
    23   11   44 1
    24   12   17 ar
    25   12   13 ar
    26   13   20 1
    27   13   14 ar
    28   14   15 ar
    29   14   18 1
    30   15   16 ar
    31   16   17 ar
    32   16   45 1
    33   18   19 1
    34   18   21 1
    35   19   20 2
    36   19   46 1
    37   21   22 1
    38   21   29 1
    39   21   23 1
    40   23   24 1
    41   23   25 1
    42   23   33 1
    43   25   26 1
    44   25   27 1
    45   25   32 1
    46   27   28 1
    47   27   29 1
    48   27   30 1
    49   30   31 1
    50   30   47 1
    51   30   48 1
    52   31   49 1
    53   32   50 1
    54   33   51 1
@<TRIPOS>MOLECULE
ZINC04654890
   33    34     0     0     0
SMALL
USER_CHARGES
1,3-dipropyl-7H-purine-2,6-dione
@<TRIPOS>ATOM
      1 C1          4.8600    4.3313   -1.4654 C.3       1 <0>        -0.1475
      2 C2          3.3301    4.3321   -1.4508 C.3       1 <0>        -0.1381
      3 C3          2.8338    4.3259   -0.0036 C.3       1 <0>         0.1189
      4 N1          1.3689    4.3267    0.0104 N.am      1 <0>        -0.5084
      5 C4          0.6765    3.1266    0.0116 C.2       1 <0>         0.3217
      6 C5         -0.7124    3.1538    0.0245 C.2       1 <0>        -0.1544
      7 C6         -1.3758    4.3997    0.0363 C.2       1 <0>         0.5935
      8 O1         -2.5926    4.4497    0.0477 O.2       1 <0>        -0.5123
      9 N2         -0.6460    5.5347    0.0341 N.am      1 <0>        -0.5489
     10 C7          0.6974    5.4937    0.0215 C.2       1 <0>         0.7070
     11 O2          1.3222    6.5369    0.0207 O.2       1 <0>        -0.5292
     12 C8         -1.3282    6.8311    0.0459 C.3       1 <0>         0.1135
     13 C9         -1.5790    7.2886   -1.3924 C.3       1 <0>        -0.1376
     14 C10        -2.2914    8.6425   -1.3801 C.3       1 <0>        -0.1474
     15 N3         -1.1247    1.8363    0.0168 N.pl3     1 <0>        -0.5215
     16 H1         -2.0695    1.5086    0.0176 H         1 <0>         0.4452
     17 C11        -0.0126    1.0758    0.0080 C.2       1 <0>         0.2766
     18 N4          1.0472    1.8436    0.0020 N.2       1 <0>        -0.4997
     19 H2          5.2135    4.3357   -2.4965 H         1 <0>         0.0608
     20 H3          5.2287    5.2188   -0.9511 H         1 <0>         0.0590
     21 H4          5.2277    3.4388   -0.9590 H         1 <0>         0.0591
     22 H5          2.9613    3.4446   -1.9652 H         1 <0>         0.0678
     23 H6          2.9624    5.2246   -1.9572 H         1 <0>         0.0676
     24 H7          3.2025    5.2134    0.5108 H         1 <0>         0.1001
     25 H8          3.2015    3.4334    0.5028 H         1 <0>         0.0990
     26 H9         -2.2803    6.7359    0.5681 H         1 <0>         0.1015
     27 H10        -0.7051    7.5649    0.5572 H         1 <0>         0.1034
     28 H11        -0.6269    7.3837   -1.9146 H         1 <0>         0.0691
     29 H12        -2.2021    6.5548   -1.9037 H         1 <0>         0.0670
     30 H13        -2.4700    8.9685   -2.4047 H         1 <0>         0.0615
     31 H14        -3.2435    8.5474   -0.8579 H         1 <0>         0.0590
     32 H15        -1.6683    9.3763   -0.8688 H         1 <0>         0.0599
     33 H16         0.0021   -0.0041    0.0020 H         1 <0>         0.2343
@<TRIPOS>BOND
     1    1    2 1
     2    1   19 1
     3    1   20 1
     4    1   21 1
     5    2    3 1
     6    2   22 1
     7    2   23 1
     8    3    4 1
     9    3   24 1
    10    3   25 1
    11    4   10 am
    12    4    5 1
    13    5   18 1
    14    5    6 2
    15    6    7 1
    16    6   15 1
    17    7    8 2
    18    7    9 am
    19    9   10 am
    20    9   12 1
    21   10   11 2
    22   12   13 1
    23   12   26 1
    24   12   27 1
    25   13   14 1
    26   13   28 1
    27   13   29 1
    28   14   30 1
    29   14   31 1
    30   14   32 1
    31   15   16 1
    32   15   17 1
    33   17   18 2
    34   17   33 1
@<TRIPOS>MOLECULE
ZINC03995438
   43    45     0     0     0
SMALL
USER_CHARGES

@<TRIPOS>ATOM
      1 C1         -0.0187    1.5258    0.0104 C.3       1 <0>        -0.1472
      2 C2          0.0021   -0.0041    0.0020 C.3       1 <0>        -0.1385
      3 C3         -1.4333   -0.5336    0.0129 C.3       1 <0>         0.1187
      4 N1         -1.4134   -1.9985    0.0048 N.am      1 <0>        -0.5081
      5 C4         -1.3926   -2.6970    1.2023 C.2       1 <0>         0.3288
      6 C5         -1.3740   -4.0877    1.1665 C.2       1 <0>        -0.1455
      7 C6         -1.3765   -4.7432   -0.0830 C.2       1 <0>         0.5937
      8 O1         -1.3609   -5.9599   -0.1403 O.2       1 <0>        -0.5103
      9 N2         -1.3969   -4.0072   -1.2136 N.am      1 <0>        -0.5482
     10 C7         -1.4210   -2.6642   -1.1652 C.2       1 <0>         0.7077
     11 O2         -1.4444   -2.0343   -2.2051 O.2       1 <0>        -0.5279
     12 C8         -1.3996   -4.6823   -2.5137 C.3       1 <0>         0.1137
     13 C9         -2.8428   -4.9369   -2.9532 C.3       1 <0>        -0.1381
     14 C10        -2.8456   -5.6420   -4.3111 C.3       1 <0>        -0.1473
     15 N3         -1.3558   -4.5129    2.4806 N.pl3     1 <0>        -0.5143
     16 C11        -1.3636   -3.3942    3.2564 C.2       1 <0>         0.3419
     17 N4         -1.3855   -2.3272    2.4824 N.2       1 <0>        -0.4816
     18 H1         -1.3408   -5.4318    2.7909 H         1 <0>         0.4365
     19 C12        -1.3506   -3.3783    4.7345 C.ar      1 <0>        -0.0386
     20 C13        -1.3225   -4.5776    5.4481 C.ar      1 <0>        -0.0983
     21 C14        -1.3099   -4.5557    6.8275 C.ar      1 <0>        -0.1167
     22 C15        -1.3257   -3.3486    7.5035 C.ar      1 <0>        -0.0959
     23 C16        -1.3536   -2.1562    6.8021 C.ar      1 <0>        -0.1189
     24 C17        -1.3605   -2.1639    5.4226 C.ar      1 <0>        -0.0636
     25 H2          1.0039    1.9031    0.0027 H         1 <0>         0.0609
     26 H3         -0.5459    1.8868   -0.8726 H         1 <0>         0.0590
     27 H4         -0.5289    1.8773    0.9072 H         1 <0>         0.0589
     28 H5          0.5123   -0.3556   -0.8948 H         1 <0>         0.0682
     29 H6          0.5293   -0.3651    0.8851 H         1 <0>         0.0680
     30 H7         -1.9435   -0.1821    0.9097 H         1 <0>         0.0988
     31 H8         -1.9605   -0.1726   -0.8702 H         1 <0>         0.1010
     32 H9         -0.9010   -4.0530   -3.2509 H         1 <0>         0.1037
     33 H10        -0.8720   -5.6325   -2.4309 H         1 <0>         0.1018
     34 H11        -3.3414   -5.5663   -2.2160 H         1 <0>         0.0672
     35 H12        -3.3704   -3.9867   -3.0361 H         1 <0>         0.0695
     36 H13        -3.8738   -5.8234   -4.6241 H         1 <0>         0.0616
     37 H14        -2.3470   -5.0126   -5.0482 H         1 <0>         0.0599
     38 H15        -2.3180   -6.5922   -4.2282 H         1 <0>         0.0589
     39 H16        -1.3109   -5.5205    4.9217 H         1 <0>         0.1224
     40 H17        -1.2882   -5.4829    7.3809 H         1 <0>         0.1324
     41 H18        -1.3165   -3.3370    8.5834 H         1 <0>         0.1304
     42 H19        -1.3657   -1.2174    7.3358 H         1 <0>         0.1340
     43 H20        -1.3782   -1.2324    4.8763 H         1 <0>         0.1414
@<TRIPOS>BOND
     1    1    2 1
     2    1   25 1
     3    1   26 1
     4    1   27 1
     5    2    3 1
     6    2   28 1
     7    2   29 1
     8    3   30 1
     9    3   31 1
    10    3    4 1
    11    4    5 1
    12    4   10 am
    13    5   17 1
    14    5    6 2
    15    6    7 1
    16    6   15 1
    17    7    9 am
    18    7    8 2
    19    9   10 am
    20    9   12 1
    21   10   11 2
    22   12   13 1
    23   12   32 1
    24   12   33 1
    25   13   14 1
    26   13   34 1
    27   13   35 1
    28   14   36 1
    29   14   37 1
    30   14   38 1
    31   15   18 1
    32   15   16 1
    33   16   19 1
    34   16   17 2
    35   19   24 ar
    36   19   20 ar
    37   20   21 ar
    38   20   39 1
    39   21   22 ar
    40   21   40 1
    41   22   23 ar
    42   22   41 1
    43   23   24 ar
    44   23   42 1
    45   24   43 1
@<TRIPOS>MOLECULE
ZINC03872013
   28    31     0     0     0
SMALL
USER_CHARGES

@<TRIPOS>ATOM
      1 C1         -0.0162    1.3433    0.0094 C.2       1 <0>        -0.2195
      2 C2          1.3252    1.7744   -0.0011 C.2       1 <0>        -0.1351
      3 C3          2.0962    0.6548   -0.0144 C.2       1 <0>         0.0399
      4 O1          1.2797   -0.4166   -0.0124 O.3       1 <0>        -0.1525
      5 C4          0.0021   -0.0041    0.0020 C.2       1 <0>        -0.0023
      6 C5          3.5737    0.6193   -0.0292 C.2       1 <0>         0.3445
      7 N1          4.3226   -0.4905   -0.0476 N.2       1 <0>        -0.5018
      8 C6          5.5962   -0.1641   -0.0567 C.2       1 <0>         0.3614
      9 C7          6.8502   -0.9263   -0.0770 C.ar      1 <0>        -0.1117
     10 C8          6.8690   -2.3192   -0.0918 C.ar      1 <0>        -0.0298
     11 C9          8.0788   -2.9807   -0.1111 C.ar      1 <0>        -0.0604
     12 C10         9.2722   -2.2687   -0.1153 C.ar      1 <0>        -0.0566
     13 C11         9.2751   -0.9026   -0.1006 C.ar      1 <0>        -0.1000
     14 C12         8.0651   -0.2038   -0.0819 C.ar      1 <0>         0.1923
     15 N2          8.0311    1.1508   -0.0678 N.2       1 <0>        -0.5514
     16 C13         6.9051    1.8155   -0.0498 C.2       1 <0>         0.6594
     17 N3          5.6826    1.2027   -0.0438 N.pl3     1 <0>        -0.3685
     18 N4          4.3637    1.6764   -0.0320 N.2       1 <0>        -0.2877
     19 N5          6.9524    3.1898   -0.0360 N.pl3     1 <0>        -0.8086
     20 Cl1         8.1113   -4.7163   -0.1296 Cl        1 <0>        -0.0542
     21 H1         -0.8931    1.9736    0.0252 H         1 <0>         0.1603
     22 H2          1.6736    2.7966    0.0008 H         1 <0>         0.1603
     23 H3         -0.8667   -0.6456    0.0074 H         1 <0>         0.2151
     24 H4          5.9438   -2.8764   -0.0879 H         1 <0>         0.1517
     25 H5         10.2107   -2.8029   -0.1301 H         1 <0>         0.1482
     26 H6         10.2110   -0.3636   -0.1038 H         1 <0>         0.1535
     27 H7          7.8086    3.6457   -0.0396 H         1 <0>         0.4305
     28 H8          6.1295    3.7032   -0.0225 H         1 <0>         0.4230
@<TRIPOS>BOND
     1    1    5 2
     2    1    2 1
     3    1   21 1
     4    2    3 2
     5    2   22 1
     6    3    4 1
     7    3    6 1
     8    4    5 1
     9    5   23 1
    10    6   18 2
    11    6    7 1
    12    7    8 2
    13    8   17 1
    14    8    9 1
    15    9   14 ar
    16    9   10 ar
    17   10   11 ar
    18   10   24 1
    19   11   12 ar
    20   11   20 1
    21   12   13 ar
    22   12   25 1
    23   13   14 ar
    24   13   26 1
    25   14   15 1
    26   15   16 2
    27   16   17 1
    28   16   19 1
    29   17   18 1
    30   19   27 1
    31   19   28 1
@<TRIPOS>MOLECULE
ZINC13589620
   29    31     0     0     0
SMALL
USER_CHARGES

@<TRIPOS>ATOM
      1 C1         -0.0167    1.3792    0.0096 C.ar      1 <0>        -0.0971
      2 C2          1.1684    2.0929    0.0021 C.ar      1 <0>        -0.1198
      3 C3          2.3774    1.4281   -0.0134 C.ar      1 <0>        -0.0644
      4 C4          2.4030    0.0334   -0.0211 C.ar      1 <0>        -0.0383
      5 C5          1.2046   -0.6805   -0.0130 C.ar      1 <0>        -0.0977
      6 C6          0.0021   -0.0041    0.0020 C.ar      1 <0>        -0.1181
      7 C7          3.6962   -0.6859   -0.0382 C.2       1 <0>         0.3309
      8 N1          3.8589   -2.0292   -0.0525 N.pl3     1 <0>        -0.4780
      9 H1          3.1575   -2.6993   -0.0534 H         1 <0>         0.4421
     10 N2          5.2437   -2.2615   -0.0662 N.2       1 <0>        -0.2767
     11 C8          5.8295   -1.0831   -0.0596 C.2       1 <0>         0.2704
     12 N3          4.8898   -0.1312   -0.0480 N.2       1 <0>        -0.5208
     13 C9          7.2943   -0.8484   -0.0690 C.ar      1 <0>        -0.0474
     14 C10         7.7946    0.4515   -0.0544 C.ar      1 <0>        -0.0603
     15 C11         9.1581    0.6647   -0.0633 C.ar      1 <0>        -0.1339
     16 C12        10.0311   -0.4088   -0.0871 C.ar      1 <0>        -0.0861
     17 C13         9.5454   -1.7023   -0.1018 C.ar      1 <0>        -0.1512
     18 C14         8.1786   -1.9308   -0.0868 C.ar      1 <0>         0.1409
     19 O1          7.6999   -3.2020   -0.0955 O.3       1 <0>        -0.4818
     20 H2         -0.9604    1.9041    0.0260 H         1 <0>         0.1300
     21 H3          1.1473    3.1727    0.0081 H         1 <0>         0.1333
     22 H4          3.3019    1.9863   -0.0199 H         1 <0>         0.1402
     23 H5          1.2180   -1.7604   -0.0192 H         1 <0>         0.1219
     24 H6         -0.9264   -0.5556    0.0079 H         1 <0>         0.1318
     25 H7          7.1162    1.2917   -0.0365 H         1 <0>         0.1395
     26 H8          9.5451    1.6729   -0.0519 H         1 <0>         0.1327
     27 H9         11.0970   -0.2347   -0.0946 H         1 <0>         0.1315
     28 H10        10.2316   -2.5361   -0.1203 H         1 <0>         0.1350
     29 H11         7.5542   -3.5614   -0.9814 H         1 <0>         0.3915
@<TRIPOS>BOND
     1    1    6 ar
     2    1    2 ar
     3    1   20 1
     4    2    3 ar
     5    2   21 1
     6    3    4 ar
     7    3   22 1
     8    4    5 ar
     9    4    7 1
    10    5    6 ar
    11    5   23 1
    12    6   24 1
    13    7   12 2
    14    7    8 1
    15    8    9 1
    16    8   10 1
    17   10   11 2
    18   11   12 1
    19   11   13 1
    20   13   18 ar
    21   13   14 ar
    22   14   15 ar
    23   14   25 1
    24   15   16 ar
    25   15   26 1
    26   16   17 ar
    27   16   27 1
    28   17   18 ar
    29   17   28 1
    30   18   19 1
    31   19   29 1
@<TRIPOS>MOLECULE
ZINC00079360
   39    41     0     0     0
SMALL
USER_CHARGES
2-methyl-N-[4-(thiazol-2-ylcarbamoyl)phenyl]-benzamide
@<TRIPOS>ATOM
      1 C1         -1.9104    1.0133    0.2944 C.3       1 <0>        -0.1325
      2 C2         -1.2101   -0.3164    0.1826 C.ar      1 <0>        -0.0149
      3 C3         -1.3000   -1.0493   -0.9829 C.ar      1 <0>        -0.1313
      4 C4         -0.6538   -2.2679   -1.0889 C.ar      1 <0>        -0.0818
      5 C5          0.0780   -2.7650   -0.0247 C.ar      1 <0>        -0.1344
      6 C6          0.1717   -2.0449    1.1480 C.ar      1 <0>        -0.0800
      7 C7         -0.4737   -0.8119    1.2598 C.ar      1 <0>        -0.1494
      8 C8         -0.3780   -0.0350    2.5135 C.2       1 <0>         0.5641
      9 O1         -0.9987    1.0031    2.6341 O.2       1 <0>        -0.5055
     10 N1          0.3975   -0.4776    3.5230 N.am      1 <0>        -0.6714
     11 C9          0.4080    0.1984    4.7416 C.ar      1 <0>         0.1796
     12 C10         0.2948    1.5851    4.7672 C.ar      1 <0>        -0.1272
     13 C11         0.2999    2.2555    5.9695 C.ar      1 <0>        -0.0646
     14 C12         0.4291    1.5426    7.1648 C.ar      1 <0>        -0.1527
     15 C13         0.5479    0.1502    7.1352 C.ar      1 <0>        -0.0309
     16 C14         0.5373   -0.5144    5.9298 C.ar      1 <0>        -0.1512
     17 C15         0.4407    2.2583    8.4550 C.2       1 <0>         0.5589
     18 O2          0.5536    1.6369    9.4940 O.2       1 <0>        -0.4656
     19 N2          0.3260    3.6009    8.4818 N.am      1 <0>        -0.6181
     20 C16         0.3369    4.2747    9.6964 C.2       1 <0>         0.3064
     21 N3          0.4429    3.7833   10.9158 N.2       1 <0>        -0.5146
     22 C17         0.4394    4.5717   11.9728 C.2       1 <0>         0.0578
     23 C18         0.3132    5.9077   11.7817 C.2       1 <0>        -0.2293
     24 S1          0.2066    5.9796    9.9995 S.3       1 <0>         0.0529
     25 H1         -1.2013    1.8157    0.0910 H         1 <0>         0.0757
     26 H2         -2.7253    1.0566   -0.4282 H         1 <0>         0.0616
     27 H3         -2.3112    1.1292    1.3014 H         1 <0>         0.1029
     28 H4         -1.8732   -0.6692   -1.8156 H         1 <0>         0.1323
     29 H5         -0.7243   -2.8360   -2.0048 H         1 <0>         0.1304
     30 H6          0.5764   -3.7190   -0.1124 H         1 <0>         0.1314
     31 H7          0.7428   -2.4340    1.9779 H         1 <0>         0.1258
     32 H8          0.9484   -1.2666    3.4014 H         1 <0>         0.4137
     33 H9          0.1991    2.1357    3.8431 H         1 <0>         0.1494
     34 H10         0.2075    3.3314    5.9890 H         1 <0>         0.1296
     35 H11         0.6476   -0.4036    8.0570 H         1 <0>         0.1444
     36 H12         0.6290   -1.5902    5.9062 H         1 <0>         0.1373
     37 H13         0.2359    4.0967    7.6530 H         1 <0>         0.4258
     38 H14         0.5308    4.1622   12.9679 H         1 <0>         0.1745
     39 H15         0.2843    6.7078   12.5066 H         1 <0>         0.2010
@<TRIPOS>BOND
     1    1    2 1
     2    1   25 1
     3    1   26 1
     4    1   27 1
     5    2    7 ar
     6    2    3 ar
     7    3    4 ar
     8    3   28 1
     9    4    5 ar
    10    4   29 1
    11    5    6 ar
    12    5   30 1
    13    6    7 ar
    14    6   31 1
    15    7    8 1
    16    8    9 2
    17    8   10 am
    18   10   11 1
    19   10   32 1
    20   11   16 ar
    21   11   12 ar
    22   12   13 ar
    23   12   33 1
    24   13   14 ar
    25   13   34 1
    26   14   15 ar
    27   14   17 1
    28   15   16 ar
    29   15   35 1
    30   16   36 1
    31   17   18 2
    32   17   19 am
    33   19   20 1
    34   19   37 1
    35   20   24 1
    36   20   21 2
    37   21   22 1
    38   22   23 2
    39   22   38 1
    40   23   24 1
    41   23   39 1
@<TRIPOS>MOLECULE
ZINC04676212
   38    39     0     0     0
SMALL
USER_CHARGES
4-pentanoylamino-N-thiazol-2-yl-benzamide
@<TRIPOS>ATOM
      1 C1          5.6844    1.9473    2.3311 C.3       1 <0>        -0.1544
      2 C2          4.6863    1.0424    1.6058 C.3       1 <0>        -0.1252
      3 C3          3.3449    1.7663    1.4729 C.3       1 <0>        -0.1071
      4 C4          2.3468    0.8614    0.7477 C.3       1 <0>        -0.1400
      5 C5          1.0256    1.5744    0.6168 C.2       1 <0>         0.5133
      6 O1          0.8951    2.6958    1.0599 O.2       1 <0>        -0.5134
      7 N1         -0.0111    0.9658    0.0074 N.am      1 <0>        -0.6770
      8 C6         -1.2581    1.5884   -0.0350 C.ar      1 <0>         0.1779
      9 C7         -1.3393    2.9724   -0.1520 C.ar      1 <0>        -0.1290
     10 C8         -2.5688    3.5899   -0.1990 C.ar      1 <0>        -0.0648
     11 C9         -3.7363    2.8257   -0.1187 C.ar      1 <0>        -0.1536
     12 C10        -3.6510    1.4360    0.0041 C.ar      1 <0>        -0.0313
     13 C11        -2.4183    0.8246    0.0456 C.ar      1 <0>        -0.1522
     14 C12        -5.0558    3.4845   -0.1631 C.2       1 <0>         0.5589
     15 O2         -6.0706    2.8183   -0.0927 O.2       1 <0>        -0.4659
     16 N2         -5.1363    4.8246   -0.2816 N.am      1 <0>        -0.6182
     17 C13        -6.3784    5.4447   -0.3233 C.2       1 <0>         0.3064
     18 N3         -7.5786    4.9006   -0.2677 N.2       1 <0>        -0.5146
     19 C14        -8.6678    5.6423   -0.3169 C.2       1 <0>         0.0577
     20 C15        -8.5300    6.9853   -0.4378 C.2       1 <0>        -0.2292
     21 S1         -6.7497    7.1348   -0.4698 S.3       1 <0>         0.0528
     22 H1          5.3020    2.1886    3.3228 H         1 <0>         0.0552
     23 H2          6.6400    1.4316    2.4257 H         1 <0>         0.0555
     24 H3          5.8223    2.8662    1.7613 H         1 <0>         0.0552
     25 H4          4.5484    0.1235    2.1756 H         1 <0>         0.0627
     26 H5          5.0687    0.8011    0.6141 H         1 <0>         0.0628
     27 H6          3.4828    2.6852    0.9032 H         1 <0>         0.0714
     28 H7          2.9625    2.0076    2.4647 H         1 <0>         0.0714
     29 H8          2.2089   -0.0575    1.3175 H         1 <0>         0.0994
     30 H9          2.7292    0.6201   -0.2440 H         1 <0>         0.0992
     31 H10         0.1113    0.0966   -0.4053 H         1 <0>         0.4156
     32 H11        -0.4367    3.5627   -0.2103 H         1 <0>         0.1486
     33 H12        -2.6311    4.6639   -0.2940 H         1 <0>         0.1292
     34 H13        -4.5512    0.8425    0.0660 H         1 <0>         0.1441
     35 H14        -2.3516   -0.2491    0.1405 H         1 <0>         0.1373
     36 H15        -4.3267    5.3560   -0.3377 H         1 <0>         0.4258
     37 H16        -9.6471    5.1897   -0.2667 H         1 <0>         0.1745
     38 H17        -9.2872    7.7530   -0.4985 H         1 <0>         0.2010
@<TRIPOS>BOND
     1    1    2 1
     2    1   22 1
     3    1   23 1
     4    1   24 1
     5    2    3 1
     6    2   25 1
     7    2   26 1
     8    3    4 1
     9    3   27 1
    10    3   28 1
    11    4    5 1
    12    4   29 1
    13    4   30 1
    14    5    6 2
    15    5    7 am
    16    7    8 1
    17    7   31 1
    18    8   13 ar
    19    8    9 ar
    20    9   10 ar
    21    9   32 1
    22   10   11 ar
    23   10   33 1
    24   11   12 ar
    25   11   14 1
    26   12   13 ar
    27   12   34 1
    28   13   35 1
    29   14   15 2
    30   14   16 am
    31   16   17 1
    32   16   36 1
    33   17   21 1
    34   17   18 2
    35   18   19 1
    36   19   20 2
    37   19   37 1
    38   20   21 1
    39   20   38 1
@<TRIPOS>MOLECULE
ZINC00455032
   35    36     0     0     0
SMALL
USER_CHARGES
4-butanoylamino-N-thiazol-2-yl-benzamide
@<TRIPOS>ATOM
      1 C1          4.6863    1.0424    1.6058 C.3       1 <0>        -0.1546
      2 C2          3.3449    1.7663    1.4729 C.3       1 <0>        -0.1111
      3 C3          2.3468    0.8614    0.7477 C.3       1 <0>        -0.1399
      4 C4          1.0256    1.5744    0.6168 C.2       1 <0>         0.5130
      5 O1          0.8951    2.6958    1.0599 O.2       1 <0>        -0.5137
      6 N1         -0.0111    0.9658    0.0074 N.am      1 <0>        -0.6769
      7 C5         -1.2581    1.5884   -0.0350 C.ar      1 <0>         0.1778
      8 C6         -1.3393    2.9724   -0.1520 C.ar      1 <0>        -0.1291
      9 C7         -2.5688    3.5899   -0.1990 C.ar      1 <0>        -0.0648
     10 C8         -3.7363    2.8257   -0.1187 C.ar      1 <0>        -0.1536
     11 C9         -3.6510    1.4360    0.0041 C.ar      1 <0>        -0.0313
     12 C10        -2.4183    0.8246    0.0456 C.ar      1 <0>        -0.1522
     13 C11        -5.0558    3.4845   -0.1631 C.2       1 <0>         0.5589
     14 O2         -6.0706    2.8183   -0.0927 O.2       1 <0>        -0.4659
     15 N2         -5.1363    4.8246   -0.2816 N.am      1 <0>        -0.6182
     16 C12        -6.3784    5.4447   -0.3233 C.2       1 <0>         0.3064
     17 N3         -7.5786    4.9006   -0.2677 N.2       1 <0>        -0.5146
     18 C13        -8.6678    5.6423   -0.3169 C.2       1 <0>         0.0577
     19 C14        -8.5300    6.9853   -0.4378 C.2       1 <0>        -0.2292
     20 S1         -6.7497    7.1348   -0.4698 S.3       1 <0>         0.0528
     21 H1          4.5484    0.1235    2.1756 H         1 <0>         0.0557
     22 H2          5.0687    0.8011    0.6141 H         1 <0>         0.0557
     23 H3          5.3974    1.6870    2.1225 H         1 <0>         0.0603
     24 H4          3.4828    2.6852    0.9032 H         1 <0>         0.0709
     25 H5          2.9625    2.0076    2.4647 H         1 <0>         0.0709
     26 H6          2.2089   -0.0575    1.3175 H         1 <0>         0.0994
     27 H7          2.7292    0.6201   -0.2440 H         1 <0>         0.0992
     28 H8          0.1113    0.0966   -0.4053 H         1 <0>         0.4157
     29 H9         -0.4367    3.5627   -0.2103 H         1 <0>         0.1486
     30 H10        -2.6311    4.6639   -0.2940 H         1 <0>         0.1292
     31 H11        -4.5512    0.8425    0.0660 H         1 <0>         0.1441
     32 H12        -2.3516   -0.2491    0.1405 H         1 <0>         0.1373
     33 H13        -4.3267    5.3560   -0.3377 H         1 <0>         0.4258
     34 H14        -9.6471    5.1897   -0.2667 H         1 <0>         0.1746
     35 H15        -9.2872    7.7530   -0.4985 H         1 <0>         0.2010
@<TRIPOS>BOND
     1    1    2 1
     2    1   21 1
     3    1   22 1
     4    1   23 1
     5    2    3 1
     6    2   24 1
     7    2   25 1
     8    3    4 1
     9    3   26 1
    10    3   27 1
    11    4    5 2
    12    4    6 am
    13    6    7 1
    14    6   28 1
    15    7   12 ar
    16    7    8 ar
    17    8    9 ar
    18    8   29 1
    19    9   10 ar
    20    9   30 1
    21   10   11 ar
    22   10   13 1
    23   11   12 ar
    24   11   31 1
    25   12   32 1
    26   13   14 2
    27   13   15 am
    28   15   16 1
    29   15   33 1
    30   16   20 1
    31   16   17 2
    32   17   18 1
    33   18   19 2
    34   18   34 1
    35   19   20 1
    36   19   35 1
@<TRIPOS>MOLECULE
ZINC05416951
   32    33     0     0     0
SMALL
USER_CHARGES
4-propanoylamino-N-thiazol-2-yl-benzamide
@<TRIPOS>ATOM
      1 C1          3.3449    1.7663    1.4729 C.3       1 <0>        -0.1404
      2 C2          2.3468    0.8614    0.7477 C.3       1 <0>        -0.1428
      3 C3          1.0256    1.5744    0.6168 C.2       1 <0>         0.5119
      4 O1          0.8951    2.6958    1.0599 O.2       1 <0>        -0.5138
      5 N1         -0.0111    0.9658    0.0074 N.am      1 <0>        -0.6769
      6 C4         -1.2581    1.5884   -0.0350 C.ar      1 <0>         0.1776
      7 C5         -1.3393    2.9724   -0.1520 C.ar      1 <0>        -0.1292
      8 C6         -2.5688    3.5899   -0.1990 C.ar      1 <0>        -0.0648
      9 C7         -3.7363    2.8257   -0.1187 C.ar      1 <0>        -0.1536
     10 C8         -3.6510    1.4360    0.0041 C.ar      1 <0>        -0.0313
     11 C9         -2.4183    0.8246    0.0456 C.ar      1 <0>        -0.1522
     12 C10        -5.0558    3.4845   -0.1631 C.2       1 <0>         0.5589
     13 O2         -6.0706    2.8183   -0.0927 O.2       1 <0>        -0.4659
     14 N2         -5.1363    4.8246   -0.2816 N.am      1 <0>        -0.6182
     15 C11        -6.3784    5.4447   -0.3233 C.2       1 <0>         0.3064
     16 N3         -7.5786    4.9006   -0.2677 N.2       1 <0>        -0.5146
     17 C12        -8.6678    5.6423   -0.3169 C.2       1 <0>         0.0577
     18 C13        -8.5300    6.9853   -0.4378 C.2       1 <0>        -0.2292
     19 S1         -6.7497    7.1348   -0.4698 S.3       1 <0>         0.0528
     20 H1          4.3005    1.2506    1.5676 H         1 <0>         0.0660
     21 H2          3.4828    2.6852    0.9032 H         1 <0>         0.0634
     22 H3          2.9625    2.0076    2.4647 H         1 <0>         0.0634
     23 H4          2.2089   -0.0575    1.3175 H         1 <0>         0.0992
     24 H5          2.7292    0.6201   -0.2440 H         1 <0>         0.0990
     25 H6          0.1113    0.0966   -0.4053 H         1 <0>         0.4158
     26 H7         -0.4367    3.5627   -0.2103 H         1 <0>         0.1485
     27 H8         -2.6311    4.6639   -0.2940 H         1 <0>         0.1293
     28 H9         -4.5512    0.8425    0.0660 H         1 <0>         0.1442
     29 H10        -2.3516   -0.2491    0.1405 H         1 <0>         0.1374
     30 H11        -4.3267    5.3560   -0.3377 H         1 <0>         0.4258
     31 H12        -9.6471    5.1897   -0.2667 H         1 <0>         0.1746
     32 H13        -9.2872    7.7530   -0.4985 H         1 <0>         0.2010
@<TRIPOS>BOND
     1    1    2 1
     2    1   20 1
     3    1   21 1
     4    1   22 1
     5    2    3 1
     6    2   23 1
     7    2   24 1
     8    3    4 2
     9    3    5 am
    10    5    6 1
    11    5   25 1
    12    6   11 ar
    13    6    7 ar
    14    7    8 ar
    15    7   26 1
    16    8    9 ar
    17    8   27 1
    18    9   10 ar
    19    9   12 1
    20   10   11 ar
    21   10   28 1
    22   11   29 1
    23   12   13 2
    24   12   14 am
    25   14   15 1
    26   14   30 1
    27   15   19 1
    28   15   16 2
    29   16   17 1
    30   17   18 2
    31   17   31 1
    32   18   19 1
    33   18   32 1
@<TRIPOS>MOLECULE
ZINC00380686
   35    36     0     0     0
SMALL
USER_CHARGES
4-(2-methylpropanoylamino)-N-thiazol-2-yl-benzamide
@<TRIPOS>ATOM
      1 C1          0.9027   -0.4641   -1.6427 C.3       1 <0>        -0.1361
      2 C2         -0.2311    0.0097   -0.7312 C.3       1 <0>        -0.1130
      3 C3          0.0056   -0.5087    0.6887 C.3       1 <0>        -0.1473
      4 C4         -0.2674    1.5162   -0.7163 C.2       1 <0>         0.5172
      5 O1          0.5345    2.1486   -1.3704 O.2       1 <0>        -0.5108
      6 N1         -1.1946    2.1607    0.0195 N.am      1 <0>        -0.6753
      7 C5         -1.1624    3.5512    0.1192 C.ar      1 <0>         0.1821
      8 C6          0.0581    4.2193    0.1148 C.ar      1 <0>        -0.1295
      9 C7          0.0933    5.5923    0.2082 C.ar      1 <0>        -0.0626
     10 C8         -1.0983    6.3145    0.3178 C.ar      1 <0>        -0.1550
     11 C9         -2.3224    5.6397    0.3272 C.ar      1 <0>        -0.0292
     12 C10        -2.3505    4.2669    0.2285 C.ar      1 <0>        -0.1538
     13 C11        -1.0642    7.7858    0.4238 C.2       1 <0>         0.5592
     14 O2         -2.1017    8.4126    0.5194 O.2       1 <0>        -0.4658
     15 N2          0.1169    8.4349    0.4146 N.am      1 <0>        -0.6183
     16 C12         0.1490    9.8199    0.5143 C.2       1 <0>         0.3064
     17 N3         -0.8568   10.6667    0.6187 N.2       1 <0>        -0.5146
     18 C13        -0.6494   11.9658    0.7097 C.2       1 <0>         0.0578
     19 C14         0.6276   12.4197    0.6816 C.2       1 <0>        -0.2292
     20 S1          1.5233   10.8813    0.5260 S.3       1 <0>         0.0527
     21 H1          1.8528   -0.0814   -1.2699 H         1 <0>         0.0641
     22 H2          0.9290   -1.5538   -1.6534 H         1 <0>         0.0664
     23 H3          0.7341   -0.0948   -2.6543 H         1 <0>         0.0639
     24 H4         -1.1811   -0.3730   -1.1040 H         1 <0>         0.1026
     25 H5         -0.8021   -0.1711    1.3382 H         1 <0>         0.0605
     26 H6          0.0319   -1.5983    0.6780 H         1 <0>         0.0738
     27 H7          0.9557   -0.1260    1.0616 H         1 <0>         0.0633
     28 H8         -1.8843    1.6573    0.4797 H         1 <0>         0.4151
     29 H9          0.9787    3.6604    0.0339 H         1 <0>         0.1430
     30 H10         1.0408    6.1106    0.2007 H         1 <0>         0.1293
     31 H11        -3.2450    6.1947    0.4113 H         1 <0>         0.1443
     32 H12        -3.2959    3.7449    0.2357 H         1 <0>         0.1374
     33 H13         0.9445    7.9348    0.3383 H         1 <0>         0.4257
     34 H14        -1.4780   12.6527    0.7994 H         1 <0>         0.1746
     35 H15         1.0006   13.4316    0.7374 H         1 <0>         0.2010
@<TRIPOS>BOND
     1    1    2 1
     2    1   21 1
     3    1   22 1
     4    1   23 1
     5    2    3 1
     6    2    4 1
     7    2   24 1
     8    3   25 1
     9    3   26 1
    10    3   27 1
    11    4    5 2
    12    4    6 am
    13    6    7 1
    14    6   28 1
    15    7   12 ar
    16    7    8 ar
    17    8    9 ar
    18    8   29 1
    19    9   10 ar
    20    9   30 1
    21   10   11 ar
    22   10   13 1
    23   11   12 ar
    24   11   31 1
    25   12   32 1
    26   13   14 2
    27   13   15 am
    28   15   16 1
    29   15   33 1
    30   16   20 1
    31   16   17 2
    32   17   18 1
    33   18   19 2
    34   18   34 1
    35   19   20 1
    36   19   35 1
@<TRIPOS>MOLECULE
ZINC04676959
   38    39     0     0     0
SMALL
USER_CHARGES
4-(3-methylbutanoylamino)-N-thiazol-2-yl-benzamide
@<TRIPOS>ATOM
      1 C1          2.8692    2.0036    2.9076 C.3       1 <0>        -0.1561
      2 C2          3.3449    1.7663    1.4729 C.3       1 <0>        -0.0813
      3 C3          4.7192    1.0942    1.4960 C.3       1 <0>        -0.1498
      4 C4          2.3468    0.8614    0.7477 C.3       1 <0>        -0.1370
      5 C5          1.0256    1.5744    0.6168 C.2       1 <0>         0.5141
      6 O1          0.8951    2.6958    1.0599 O.2       1 <0>        -0.5094
      7 N1         -0.0111    0.9658    0.0074 N.am      1 <0>        -0.6772
      8 C6         -1.2581    1.5884   -0.0350 C.ar      1 <0>         0.1785
      9 C7         -1.3393    2.9724   -0.1520 C.ar      1 <0>        -0.1289
     10 C8         -2.5688    3.5899   -0.1990 C.ar      1 <0>        -0.0649
     11 C9         -3.7363    2.8257   -0.1187 C.ar      1 <0>        -0.1538
     12 C10        -3.6510    1.4360    0.0041 C.ar      1 <0>        -0.0313
     13 C11        -2.4183    0.8246    0.0456 C.ar      1 <0>        -0.1525
     14 C12        -5.0558    3.4845   -0.1631 C.2       1 <0>         0.5588
     15 O2         -6.0706    2.8183   -0.0927 O.2       1 <0>        -0.4659
     16 N2         -5.1363    4.8246   -0.2816 N.am      1 <0>        -0.6182
     17 C13        -6.3784    5.4447   -0.3233 C.2       1 <0>         0.3064
     18 N3         -7.5786    4.9006   -0.2677 N.2       1 <0>        -0.5146
     19 C14        -8.6678    5.6423   -0.3169 C.2       1 <0>         0.0577
     20 C15        -8.5300    6.9853   -0.4378 C.2       1 <0>        -0.2292
     21 S1         -6.7497    7.1348   -0.4698 S.3       1 <0>         0.0527
     22 H1          1.8901    2.4824    2.8912 H         1 <0>         0.0721
     23 H2          2.7982    1.0493    3.4294 H         1 <0>         0.0490
     24 H3          3.5802    2.6482    3.4243 H         1 <0>         0.0553
     25 H4          3.4159    2.7206    0.9511 H         1 <0>         0.0792
     26 H5          5.0581    0.9251    0.4739 H         1 <0>         0.0557
     27 H6          5.4303    1.7388    2.0126 H         1 <0>         0.0604
     28 H7          4.6483    0.1398    2.0178 H         1 <0>         0.0562
     29 H8          2.2089   -0.0575    1.3175 H         1 <0>         0.0994
     30 H9          2.7292    0.6201   -0.2440 H         1 <0>         0.0991
     31 H10         0.1113    0.0966   -0.4053 H         1 <0>         0.4153
     32 H11        -0.4367    3.5627   -0.2103 H         1 <0>         0.1489
     33 H12        -2.6311    4.6639   -0.2940 H         1 <0>         0.1290
     34 H13        -4.5512    0.8425    0.0660 H         1 <0>         0.1439
     35 H14        -2.3516   -0.2491    0.1405 H         1 <0>         0.1371
     36 H15        -4.3267    5.3560   -0.3377 H         1 <0>         0.4258
     37 H16        -9.6471    5.1897   -0.2667 H         1 <0>         0.1746
     38 H17        -9.2872    7.7530   -0.4985 H         1 <0>         0.2010
@<TRIPOS>BOND
     1    1    2 1
     2    1   22 1
     3    1   23 1
     4    1   24 1
     5    2    3 1
     6    2    4 1
     7    2   25 1
     8    3   26 1
     9    3   27 1
    10    3   28 1
    11    4    5 1
    12    4   29 1
    13    4   30 1
    14    5    6 2
    15    5    7 am
    16    7    8 1
    17    7   31 1
    18    8   13 ar
    19    8    9 ar
    20    9   10 ar
    21    9   32 1
    22   10   11 ar
    23   10   33 1
    24   11   12 ar
    25   11   14 1
    26   12   13 ar
    27   12   34 1
    28   13   35 1
    29   14   15 2
    30   14   16 am
    31   16   17 1
    32   16   36 1
    33   17   21 1
    34   17   18 2
    35   18   19 1
    36   19   20 2
    37   19   37 1
    38   20   21 1
    39   20   38 1
@<TRIPOS>MOLECULE
ZINC35308313
   41    42     0     0     0
SMALL
USER_CHARGES

@<TRIPOS>ATOM
      1 C1          1.2942   -2.5148    0.8226 C.3       1 <0>        -0.1555
      2 C2          0.8770   -2.9052   -0.5967 C.3       1 <0>        -0.0519
      3 C3          1.7292   -4.0833   -1.0730 C.3       1 <0>        -0.1551
      4 C4         -0.5989   -3.3083   -0.6018 C.3       1 <0>        -0.1432
      5 C5          1.0836   -1.7143   -1.5348 C.3       1 <0>        -0.1293
      6 C6          2.5374   -1.3172   -1.5298 C.2       1 <0>         0.5219
      7 O1          3.3302   -1.9267   -0.8435 O.2       1 <0>        -0.5060
      8 N1          2.9565   -0.2847   -2.2879 N.am      1 <0>        -0.6889
      9 C7          4.2815    0.1493   -2.2058 C.ar      1 <0>         0.0957
     10 C8          4.6406    1.1114   -1.2655 C.ar      1 <0>         0.1383
     11 C9          5.9480    1.5417   -1.1821 C.ar      1 <0>        -0.0943
     12 C10         6.9132    1.0109   -2.0423 C.ar      1 <0>        -0.0691
     13 C11         6.5500    0.0450   -2.9849 C.ar      1 <0>        -0.1290
     14 C12         5.2420   -0.3852   -3.0605 C.ar      1 <0>         0.1392
     15 F1          4.8913   -1.3226   -3.9679 F         1 <0>        -0.1149
     16 C13         8.3129    1.4697   -1.9559 C.2       1 <0>         0.5593
     17 O2          8.6276    2.3104   -1.1357 O.2       1 <0>        -0.4498
     18 N2          9.2426    0.9569   -2.7860 N.am      1 <0>        -0.6170
     19 C14        10.5602    1.3889   -2.7046 C.2       1 <0>         0.2661
     20 N3         11.0804    2.2768   -1.8849 N.2       1 <0>        -0.5194
     21 C15        12.3642    2.5808   -1.9339 C.2       1 <0>         0.0620
     22 C16        13.1145    1.9386   -2.8626 C.2       1 <0>        -0.2392
     23 S1         11.8805    0.8981   -3.6258 S.3       1 <0>         0.1178
     24 F2          3.7071    1.6241   -0.4342 F         1 <0>        -0.1137
     25 H1          2.3457   -2.2276    0.8262 H         1 <0>         0.0802
     26 H2          0.6871   -1.6755    1.1619 H         1 <0>         0.0479
     27 H3          1.1470   -3.3633    1.4909 H         1 <0>         0.0542
     28 H4          1.5820   -4.9318   -0.4047 H         1 <0>         0.0541
     29 H5          1.4319   -4.3614   -2.0841 H         1 <0>         0.0477
     30 H6          2.7806   -3.7961   -1.0693 H         1 <0>         0.0802
     31 H7         -1.2060   -2.4690   -0.2625 H         1 <0>         0.0559
     32 H8         -0.8961   -3.5864   -1.6130 H         1 <0>         0.0558
     33 H9         -0.7461   -4.1568    0.0665 H         1 <0>         0.0604
     34 H10         0.7864   -1.9923   -2.5459 H         1 <0>         0.0990
     35 H11         0.4766   -0.8749   -1.1955 H         1 <0>         0.0999
     36 H12         2.3380    0.1570   -2.8906 H         1 <0>         0.4168
     37 H13         6.2259    2.2885   -0.4531 H         1 <0>         0.1657
     38 H14         7.2938   -0.3669   -3.6508 H         1 <0>         0.1515
     39 H15         8.9916    0.2863   -3.4403 H         1 <0>         0.4264
     40 H16        12.7973    3.3090   -1.2641 H         1 <0>         0.1785
     41 H17        14.1689    2.0284   -3.0784 H         1 <0>         0.2016
@<TRIPOS>BOND
     1    1    2 1
     2    1   25 1
     3    1   26 1
     4    1   27 1
     5    2    3 1
     6    2    4 1
     7    2    5 1
     8    3   28 1
     9    3   29 1
    10    3   30 1
    11    4   31 1
    12    4   32 1
    13    4   33 1
    14    5    6 1
    15    5   34 1
    16    5   35 1
    17    6    7 2
    18    6    8 am
    19    8    9 1
    20    8   36 1
    21    9   14 ar
    22    9   10 ar
    23   10   11 ar
    24   10   24 1
    25   11   12 ar
    26   11   37 1
    27   12   13 ar
    28   12   16 1
    29   13   14 ar
    30   13   38 1
    31   14   15 1
    32   16   17 2
    33   16   18 am
    34   18   19 1
    35   18   39 1
    36   19   23 1
    37   19   20 2
    38   20   21 1
    39   21   22 2
    40   21   40 1
    41   22   23 1
    42   22   41 1
@<TRIPOS>MOLECULE
ZINC00006170
   41    45     0     0     0
SMALL
USER_CHARGES

@<TRIPOS>ATOM
      1 C1         -0.0167    1.3781    0.0096 C.ar      1 <0>        -0.1193
      2 C2          1.1709    2.0855    0.0021 C.ar      1 <0>        -0.1177
      3 C3          2.3773    1.4107   -0.0130 C.ar      1 <0>        -0.1123
      4 C4          2.3960    0.0285   -0.0201 C.ar      1 <0>        -0.0863
      5 C5          1.2084   -0.6789   -0.0117 C.ar      1 <0>        -0.1124
      6 C6          0.0021   -0.0041    0.0020 C.ar      1 <0>        -0.1183
      7 C7          3.7112   -0.7071   -0.0376 C.3       1 <0>        -0.0949
      8 C8          4.1714   -0.9633    1.3989 C.3       1 <0>         0.1442
      9 N1          5.4498   -1.6784    1.3820 N.pl3     1 <0>        -0.3547
     10 C9          5.6077   -3.0319    1.3681 C.2       1 <0>         0.3701
     11 C10         6.9900   -3.2725    1.3542 C.2       1 <0>        -0.2670
     12 C11         7.6325   -2.0214    1.3604 C.2       1 <0>         0.1312
     13 N2          6.7200   -1.0888    1.3711 N.2       1 <0>        -0.2630
     14 C12         7.4452   -4.6631    1.3378 C.2       1 <0>         0.4065
     15 N3          8.6257   -5.2466    1.3226 N.2       1 <0>        -0.5161
     16 C13         8.4699   -6.5766    1.3120 C.2       1 <0>         0.3506
     17 N4          7.1818   -6.8637    1.3203 N.2       1 <0>        -0.2997
     18 N5          6.4899   -5.6460    1.3371 N.pl3     1 <0>        -0.3763
     19 C14         5.1670   -5.3111    1.3510 C.2       1 <0>         0.6919
     20 N6          4.7561   -4.0669    1.3656 N.2       1 <0>        -0.5613
     21 N7          4.2296   -6.3175    1.3499 N.pl3     1 <0>        -0.8022
     22 C15         9.5672   -7.5665    1.2938 C.2       1 <0>         0.0423
     23 C16         9.4221   -8.9181    1.2774 C.2       1 <0>        -0.1371
     24 C17        10.7203   -9.4655    1.2629 C.2       1 <0>        -0.2200
     25 C18        11.5847   -8.4318    1.2711 C.2       1 <0>        -0.0041
     26 O1         10.8847   -7.2861    1.2846 O.3       1 <0>        -0.1521
     27 H1         -0.9591    1.9053    0.0259 H         1 <0>         0.1226
     28 H2          1.1563    3.1654    0.0076 H         1 <0>         0.1238
     29 H3          3.3051    1.9634   -0.0196 H         1 <0>         0.1240
     30 H4          1.2231   -1.7588   -0.0176 H         1 <0>         0.1230
     31 H5         -0.9258   -0.5567    0.0082 H         1 <0>         0.1232
     32 H6          3.5884   -1.6586   -0.5549 H         1 <0>         0.0796
     33 H7          4.4573   -0.1052   -0.5563 H         1 <0>         0.0839
     34 H8          4.2941   -0.0118    1.9163 H         1 <0>         0.1036
     35 H9          3.4252   -1.5652    1.9176 H         1 <0>         0.1014
     36 H10         8.7003   -1.8600    1.3531 H         1 <0>         0.2026
     37 H11         4.5137   -7.2449    1.3395 H         1 <0>         0.4264
     38 H12         3.2844   -6.0999    1.3596 H         1 <0>         0.4303
     39 H13         8.4916   -9.4663    1.2762 H         1 <0>         0.1599
     40 H14        10.9745  -10.5151    1.2484 H         1 <0>         0.1594
     41 H15        12.6618   -8.5115    1.2638 H         1 <0>         0.2142
@<TRIPOS>BOND
     1    1    6 ar
     2    1    2 ar
     3    1   27 1
     4    2    3 ar
     5    2   28 1
     6    3    4 ar
     7    3   29 1
     8    4    5 ar
     9    4    7 1
    10    5    6 ar
    11    5   30 1
    12    6   31 1
    13    7    8 1
    14    7   32 1
    15    7   33 1
    16    8    9 1
    17    8   34 1
    18    8   35 1
    19    9   13 1
    20    9   10 1
    21   10   20 1
    22   10   11 2
    23   11   12 1
    24   11   14 1
    25   12   13 2
    26   12   36 1
    27   14   18 1
    28   14   15 2
    29   15   16 1
    30   16   17 2
    31   16   22 1
    32   17   18 1
    33   18   19 1
    34   19   20 2
    35   19   21 1
    36   21   37 1
    37   21   38 1
    38   22   26 1
    39   22   23 2
    40   23   24 1
    41   23   39 1
    42   24   25 2
    43   24   40 1
    44   25   26 1
    45   25   41 1
@<TRIPOS>MOLECULE
ZINC00897085
   43    45     0     0     0
SMALL
USER_CHARGES

@<TRIPOS>ATOM
      1 C1         -0.0168    1.3889    0.0097 C.ar      1 <0>        -0.0823
      2 C2          1.1424    2.1034    0.0024 C.ar      1 <0>        -0.0939
      3 C3          2.3733    1.4284   -0.0129 C.ar      1 <0>        -0.0685
      4 C4          3.5939    2.1297   -0.0202 C.ar      1 <0>        -0.0634
      5 C5          4.7524    1.4066   -0.0348 C.ar      1 <0>        -0.1163
      6 C6          4.7030    0.0141   -0.0421 C.ar      1 <0>         0.0954
      7 N1          3.5646   -0.6358   -0.0352 N.ar      1 <0>        -0.4052
      8 C7          2.3949    0.0115   -0.0208 C.ar      1 <0>         0.1644
      9 C8          1.1773   -0.6905   -0.0134 C.ar      1 <0>        -0.1407
     10 C9          0.0021   -0.0041    0.0020 C.ar      1 <0>        -0.0344
     11 C10         1.1730   -2.1975   -0.0224 C.3       1 <0>         0.5150
     12 F1         -0.1473   -2.6601   -0.0125 F         1 <0>        -0.1722
     13 F2          1.8201   -2.6588   -1.1737 F         1 <0>        -0.1625
     14 F3          1.8420   -2.6725    1.1107 F         1 <0>        -0.1644
     15 C11         5.9925   -0.7655   -0.0587 C.3       1 <0>         0.5198
     16 F4          6.4042   -1.0140    1.2550 F         1 <0>        -0.1626
     17 F5          5.7943   -1.9806   -0.7231 F         1 <0>        -0.1519
     18 F6          6.9762   -0.0255   -0.7236 F         1 <0>        -0.1649
     19 C12         3.6215    3.6365   -0.0127 C.3       1 <0>         0.1370
     20 H1          2.7812    4.0181   -0.5926 H         1 <0>         0.1450
     21 C13         3.5180    4.1412    1.4280 C.3       1 <0>        -0.0084
     22 H2          2.6287    3.7202    1.8970 H         1 <0>         0.1529
     23 C14         4.7599    3.7080    2.2100 C.3       1 <0>        -0.1533
     24 C15         4.6517    4.2152    3.6509 C.3       1 <0>        -0.1344
     25 C16         4.4776    5.7365    3.6345 C.3       1 <0>        -0.1492
     26 C17         3.2461    6.0945    2.7997 C.3       1 <0>        -0.0072
     27 N2          3.4230    5.6059    1.4269 N.4       1 <0>        -0.4984
     28 O1          4.8459    4.0934   -0.5907 O.3       1 <0>        -0.5350
     29 H3         -0.9632    1.9089    0.0261 H         1 <0>         0.1552
     30 H4          1.1150    3.1831    0.0081 H         1 <0>         0.1397
     31 H5          5.7060    1.9136   -0.0411 H         1 <0>         0.1579
     32 H6         -0.9309   -0.5481    0.0084 H         1 <0>         0.1618
     33 H7          4.8282    2.6202    2.2111 H         1 <0>         0.1133
     34 H8          5.6498    4.1288    1.7419 H         1 <0>         0.0951
     35 H9          3.7906    3.7549    4.1356 H         1 <0>         0.0846
     36 H10         5.5593    3.9580    4.1969 H         1 <0>         0.1003
     37 H11         4.3440    6.0986    4.6539 H         1 <0>         0.1163
     38 H12         5.3616    6.1994    3.1960 H         1 <0>         0.0912
     39 H13         2.3626    5.6314    3.2392 H         1 <0>         0.1319
     40 H14         3.1191    7.1770    2.7861 H         1 <0>         0.1388
     41 H15         4.2680    5.9965    1.0378 H         1 <0>         0.4323
     42 H16         5.6376    3.7911   -0.1249 H         1 <0>         0.3908
     43 H17         2.6340    5.8904    0.8659 H         1 <0>         0.4307
@<TRIPOS>BOND
     1    1   10 ar
     2    1    2 ar
     3    1   29 1
     4    2    3 ar
     5    2   30 1
     6    3    8 ar
     7    3    4 ar
     8    4    5 ar
     9    4   19 1
    10    5    6 ar
    11    5   31 1
    12    6    7 ar
    13    6   15 1
    14    7    8 ar
    15    8    9 ar
    16    9   10 ar
    17    9   11 1
    18   10   32 1
    19   11   12 1
    20   11   13 1
    21   11   14 1
    22   15   16 1
    23   15   17 1
    24   15   18 1
    25   19   20 1
    26   19   21 1
    27   19   28 1
    28   21   22 1
    29   21   27 1
    30   21   23 1
    31   23   24 1
    32   23   33 1
    33   23   34 1
    34   24   25 1
    35   24   35 1
    36   24   36 1
    37   25   26 1
    38   25   37 1
    39   25   38 1
    40   26   27 1
    41   26   39 1
    42   26   40 1
    43   27   41 1
    44   27   43 1
    45   28   42 1
@<TRIPOS>MOLECULE
ZINC03977757
   46    48     0     0     0
SMALL
USER_CHARGES

@<TRIPOS>ATOM
      1 C1         -0.0187    1.5258    0.0104 C.3       1 <0>        -0.1472
      2 C2          0.0021   -0.0041    0.0020 C.3       1 <0>        -0.1381
      3 C3          0.7182   -0.4975   -1.2568 C.3       1 <0>         0.1189
      4 N1          0.7381   -1.9623   -1.2648 N.am      1 <0>        -0.5078
      5 C4         -0.2978   -2.6649   -1.8590 C.2       1 <0>         0.3255
      6 C5         -0.2556   -4.0535   -1.8540 C.2       1 <0>        -0.1555
      7 C6          0.8381   -4.7062   -1.2456 C.2       1 <0>         0.5940
      8 O1          0.8979   -5.9226   -1.2287 O.2       1 <0>        -0.5124
      9 N2          1.8167   -3.9668   -0.6832 N.am      1 <0>        -0.5486
     10 C7          1.7657   -2.6237   -0.6997 C.2       1 <0>         0.7072
     11 O2          2.6683   -1.9900   -0.1875 O.2       1 <0>        -0.5292
     12 C8          2.9547   -4.6379   -0.0500 C.3       1 <0>         0.1138
     13 C9          4.0598   -4.8545   -1.0857 C.3       1 <0>        -0.1378
     14 C10         5.2482   -5.5554   -0.4244 C.3       1 <0>        -0.1473
     15 N3         -1.3974   -4.4770   -2.5042 N.pl3     1 <0>        -0.5132
     16 C11        -2.0744   -3.3715   -2.8713 C.2       1 <0>         0.3078
     17 N4         -1.4199   -2.3052   -2.4875 N.2       1 <0>        -0.4912
     18 H1         -1.6621   -5.3960   -2.6660 H         1 <0>         0.4346
     19 C12        -3.3868   -3.3639   -3.6120 C.3       1 <0>        -0.0167
     20 C13        -4.2245   -4.5971   -3.2154 C.3       1 <0>        -0.1246
     21 C14        -4.9262   -5.0185   -4.5304 C.3       1 <0>        -0.1243
     22 C15        -3.8330   -4.7644   -5.5978 C.3       1 <0>        -0.1288
     23 C16        -3.1379   -3.4703   -5.1267 C.3       1 <0>        -0.1169
     24 H2          1.0039    1.9031    0.0027 H         1 <0>         0.0589
     25 H3         -0.5459    1.8868   -0.8726 H         1 <0>         0.0589
     26 H4         -0.5289    1.8773    0.9072 H         1 <0>         0.0608
     27 H5          0.5293   -0.3651    0.8851 H         1 <0>         0.0678
     28 H6         -1.0205   -0.3814    0.0098 H         1 <0>         0.0678
     29 H7          0.1910   -0.1364   -2.1398 H         1 <0>         0.0985
     30 H8          1.7408   -0.1202   -1.2645 H         1 <0>         0.1003
     31 H9          3.3348   -4.0193    0.7630 H         1 <0>         0.1032
     32 H10         2.6339   -5.6014    0.3460 H         1 <0>         0.1014
     33 H11         3.6796   -5.4731   -1.8987 H         1 <0>         0.0670
     34 H12         4.3806   -3.8910   -1.4817 H         1 <0>         0.0693
     35 H13         6.0355   -5.7097   -1.1623 H         1 <0>         0.0615
     36 H14         5.6284   -4.9368    0.3886 H         1 <0>         0.0599
     37 H15         4.9274   -6.5189   -0.0284 H         1 <0>         0.0589
     38 H16        -3.9368   -2.4501   -3.3872 H         1 <0>         0.1178
     39 H17        -3.5783   -5.3972   -2.8545 H         1 <0>         0.0623
     40 H18        -4.9618   -4.3300   -2.4582 H         1 <0>         0.0823
     41 H19        -5.2000   -6.0732   -4.5013 H         1 <0>         0.0738
     42 H20        -5.8012   -4.3962   -4.7179 H         1 <0>         0.0762
     43 H21        -3.1235   -5.5916   -5.6216 H         1 <0>         0.0665
     44 H22        -4.2844   -4.6194   -6.5792 H         1 <0>         0.0743
     45 H23        -3.5678   -2.6085   -5.6372 H         1 <0>         0.0823
     46 H24        -2.0678   -3.5274   -5.3261 H         1 <0>         0.0684
@<TRIPOS>BOND
     1    1    2 1
     2    1   24 1
     3    1   25 1
     4    1   26 1
     5    2    3 1
     6    2   27 1
     7    2   28 1
     8    3   29 1
     9    3   30 1
    10    3    4 1
    11    4    5 1
    12    4   10 am
    13    5   17 1
    14    5    6 2
    15    6    7 1
    16    6   15 1
    17    7    9 am
    18    7    8 2
    19    9   10 am
    20    9   12 1
    21   10   11 2
    22   12   13 1
    23   12   31 1
    24   12   32 1
    25   13   14 1
    26   13   33 1
    27   13   34 1
    28   14   35 1
    29   14   36 1
    30   14   37 1
    31   15   18 1
    32   15   16 1
    33   16   19 1
    34   16   17 2
    35   19   23 1
    36   19   20 1
    37   19   38 1
    38   20   21 1
    39   20   39 1
    40   20   40 1
    41   21   22 1
    42   21   41 1
    43   21   42 1
    44   22   23 1
    45   22   43 1
    46   22   44 1
    47   23   45 1
    48   23   46 1
@<TRIPOS>MOLECULE
ZINC18154065
   43    44     0     0     0
SMALL
USER_CHARGES

@<TRIPOS>ATOM
      1 C1          2.5713   -0.6742   -1.2093 C.3       1 <0>        -0.1064
      2 C2          1.2524   -1.0383   -0.5779 C.ar      1 <0>         0.1911
      3 C3          0.0601   -0.7000   -1.2000 C.ar      1 <0>        -0.2638
      4 C4         -1.1333   -1.0528   -0.5880 C.ar      1 <0>         0.1907
      5 N1         -1.1019   -1.6983    0.5650 N.ar      1 <0>        -0.5441
      6 C5          0.0581   -2.0092    1.1377 C.ar      1 <0>         0.5371
      7 N2          1.2191   -1.6886    0.5724 N.ar      1 <0>        -0.5449
      8 N3          0.0571   -2.6742    2.3251 N.2       1 <0>        -0.6154
      9 C6          0.1460   -2.0040    3.4551 C.2       1 <0>         0.6944
     10 N4          0.1270   -0.6353    3.4424 N.pl3     1 <0>        -0.8733
     11 N5          0.2573   -2.6760    4.6425 N.pl3     1 <0>        -0.7109
     12 C7          0.3561   -1.9304    5.8996 C.3       1 <0>         0.1210
     13 C8          0.4698   -2.9124    7.0674 C.3       1 <0>        -0.0836
     14 C9          0.5715   -2.1454    8.3606 C.ar      1 <0>        -0.1253
     15 C10         1.8113   -1.7737    8.8469 C.ar      1 <0>        -0.0719
     16 C11         1.9072   -1.0710   10.0324 C.ar      1 <0>        -0.1501
     17 C12         0.7582   -0.7379   10.7349 C.ar      1 <0>         0.1289
     18 C13        -0.4846   -1.1116   10.2446 C.ar      1 <0>        -0.2068
     19 C14        -0.5755   -1.8098    9.0560 C.ar      1 <0>        -0.0714
     20 O1          0.8500   -0.0470   11.9016 O.3       1 <0>        -0.3175
     21 C15        -0.3743    0.2615   12.5709 C.3       1 <0>         0.0262
     22 C16        -2.4512   -0.7038   -1.2301 C.3       1 <0>        -0.1065
     23 H1          2.8943   -1.4810   -1.8672 H         1 <0>         0.0844
     24 H2          2.4564    0.2424   -1.7879 H         1 <0>         0.0795
     25 H3          3.3173   -0.5205   -0.4295 H         1 <0>         0.0798
     26 H4          0.0609   -0.1720   -2.1421 H         1 <0>         0.1419
     27 H5         -0.0293   -0.1601    2.6114 H         1 <0>         0.4095
     28 H6          0.2700   -0.1407    4.2645 H         1 <0>         0.3991
     29 H7          0.2707   -3.6459    4.6514 H         1 <0>         0.4237
     30 H8          1.2390   -1.2917    5.8748 H         1 <0>         0.0693
     31 H9         -0.5342   -1.3148    6.0279 H         1 <0>         0.0691
     32 H10        -0.4131   -3.5511    7.0922 H         1 <0>         0.0836
     33 H11         1.3601   -3.5280    6.9391 H         1 <0>         0.0846
     34 H12         2.7055   -2.0333    8.2997 H         1 <0>         0.1311
     35 H13         2.8759   -0.7815   10.4122 H         1 <0>         0.1323
     36 H14        -1.3806   -0.8535   10.7896 H         1 <0>         0.1293
     37 H15        -1.5430   -2.0971    8.6716 H         1 <0>         0.1263
     38 H16        -1.0016    0.8695   11.9190 H         1 <0>         0.0564
     39 H17        -0.8961   -0.6630   12.8182 H         1 <0>         0.0566
     40 H18        -0.1591    0.8132   13.4860 H         1 <0>         0.1019
     41 H19        -2.7616   -1.5161   -1.8873 H         1 <0>         0.0845
     42 H20        -3.2042   -0.5547   -0.4562 H         1 <0>         0.0801
     43 H21        -2.3410    0.2118   -1.8111 H         1 <0>         0.0795
@<TRIPOS>BOND
     1    1    2 1
     2    1   23 1
     3    1   24 1
     4    1   25 1
     5    2    7 ar
     6    2    3 ar
     7    3    4 ar
     8    3   26 1
     9    4    5 ar
    10    4   22 1
    11    5    6 ar
    12    6    7 ar
    13    6    8 1
    14    8    9 2
    15    9   10 1
    16    9   11 1
    17   10   27 1
    18   10   28 1
    19   11   12 1
    20   11   29 1
    21   12   13 1
    22   12   30 1
    23   12   31 1
    24   13   14 1
    25   13   32 1
    26   13   33 1
    27   14   19 ar
    28   14   15 ar
    29   15   16 ar
    30   15   34 1
    31   16   17 ar
    32   16   35 1
    33   17   18 ar
    34   17   20 1
    35   18   19 ar
    36   18   36 1
    37   19   37 1
    38   20   21 1
    39   21   38 1
    40   21   39 1
    41   21   40 1
    42   22   41 1
    43   22   42 1
    44   22   43 1
@<TRIPOS>MOLECULE
ZINC18154065
   44    45     0     0     0
SMALL
USER_CHARGES

@<TRIPOS>ATOM
      1 C1         -1.5714    1.4185    0.3601 C.3       1 <0>        -0.1200
      2 C2         -1.2668   -0.0543    0.2643 C.ar      1 <0>         0.2283
      3 C3         -1.4273   -0.7272   -0.9368 C.ar      1 <0>        -0.2324
      4 C4         -1.1354   -2.0815   -0.9814 C.ar      1 <0>         0.2362
      5 N1         -0.7151   -2.6874    0.1167 N.ar      1 <0>        -0.5309
      6 C5         -0.5725   -2.0149    1.2487 C.ar      1 <0>         0.5432
      7 N2         -0.8378   -0.7195    1.3241 N.ar      1 <0>        -0.5753
      8 N3         -0.1298   -2.6826    2.3819 N.pl3     1 <0>        -0.6132
      9 C6          0.1501   -1.9769    3.5322 C.cat     1 <0>         0.7434
     10 N4          0.4323   -2.6126    4.6339 N.pl3     1 <0>        -0.6512
     11 C7          0.7298   -1.8625    5.8567 C.3       1 <0>         0.0870
     12 C8          1.0250   -2.8404    6.9958 C.3       1 <0>        -0.0820
     13 C9          1.3310   -2.0689    8.2536 C.ar      1 <0>        -0.1455
     14 C10         2.6327   -1.6981    8.5363 C.ar      1 <0>        -0.0684
     15 C11         2.9159   -0.9912    9.6889 C.ar      1 <0>        -0.1497
     16 C12         1.8929   -0.6529   10.5628 C.ar      1 <0>         0.1426
     17 C13         0.5876   -1.0257   10.2766 C.ar      1 <0>        -0.2070
     18 C14         0.3089   -1.7281    9.1201 C.ar      1 <0>        -0.0673
     19 O1          2.1690    0.0421   11.6975 O.3       1 <0>        -0.3134
     20 C15         1.0663    0.3558   12.5507 C.3       1 <0>         0.0241
     21 N5          0.1315   -0.6024    3.5171 N.pl3     1 <0>        -0.7817
     22 C16        -1.2955   -2.8543   -2.2653 C.3       1 <0>        -0.1187
     23 H1         -0.6738    1.9911    0.1266 H         1 <0>         0.1008
     24 H2         -2.3595    1.6733   -0.3485 H         1 <0>         0.0988
     25 H3         -1.9013    1.6562    1.3714 H         1 <0>         0.0895
     26 H4         -1.7725   -0.2078   -1.8185 H         1 <0>         0.1681
     27 H5          1.5987   -1.2259    5.6901 H         1 <0>         0.1040
     28 H6         -0.1281   -1.2445    6.1216 H         1 <0>         0.1030
     29 H7          0.1561   -3.4771    7.1624 H         1 <0>         0.0907
     30 H8          1.8828   -3.4585    6.7309 H         1 <0>         0.0917
     31 H9          3.4287   -1.9617    7.8557 H         1 <0>         0.1312
     32 H10         3.9329   -0.7025    9.9097 H         1 <0>         0.1365
     33 H11        -0.2105   -0.7636   10.9553 H         1 <0>         0.1334
     34 H12        -0.7077   -2.0147    8.8946 H         1 <0>         0.1265
     35 H13         1.4243    0.9104   13.4180 H         1 <0>         0.1067
     36 H14         0.3449    0.9628   12.0037 H         1 <0>         0.0584
     37 H15         0.5887   -0.5666   12.8811 H         1 <0>         0.0593
     38 H16        -0.0245   -0.1286    2.6852 H         1 <0>         0.4441
     39 H17         0.2745   -0.1064    4.3384 H         1 <0>         0.4258
     40 H18        -0.3619   -2.8228   -2.8271 H         1 <0>         0.1007
     41 H19        -1.5473   -3.8900   -2.0370 H         1 <0>         0.0929
     42 H20        -2.0928   -2.4092   -2.8603 H         1 <0>         0.0961
     43 H21         0.4454   -3.5824    4.6446 H         1 <0>         0.4389
     44 H22        -0.0173   -3.6459    2.3643 H         1 <0>         0.4548
@<TRIPOS>BOND
     1    1    2 1
     2    1   23 1
     3    1   24 1
     4    1   25 1
     5    2    7 ar
     6    2    3 ar
     7    3    4 ar
     8    3   26 1
     9    4    5 ar
    10    4   22 1
    11    5    6 ar
    12    6    7 ar
    13    6    8 1
    14    8    9 1
    15    8   44 1
    16    9   10 2
    17    9   21 1
    18   10   11 1
    19   10   43 1
    20   11   12 1
    21   11   27 1
    22   11   28 1
    23   12   13 1
    24   12   29 1
    25   12   30 1
    26   13   18 ar
    27   13   14 ar
    28   14   15 ar
    29   14   31 1
    30   15   16 ar
    31   15   32 1
    32   16   17 ar
    33   16   19 1
    34   17   18 ar
    35   17   33 1
    36   18   34 1
    37   19   20 1
    38   20   35 1
    39   20   36 1
    40   20   37 1
    41   21   38 1
    42   21   39 1
    43   22   40 1
    44   22   41 1
    45   22   42 1
@<TRIPOS>MOLECULE
ZINC13818943
   46    49     0     0     0
SMALL
USER_CHARGES
1-[6-amino-9-[(2R,3R,4S,5R)-3,4-dihydroxy-5-(hydroxymethyl)tetrahydrofuran-2-yl]purin-2-yl]-N-methyl-pyrazole-4-carboxamide
@<TRIPOS>ATOM
      1 C1          7.0694   -2.9032  -10.0595 C.3       1 <0>         0.0889
      2 N1          6.2717   -2.4043   -8.9366 N.am      1 <0>        -0.7312
      3 C2          6.8778   -2.0354   -7.7907 C.2       1 <0>         0.5966
      4 O1          8.0868   -2.1168   -7.6889 O.2       1 <0>        -0.5415
      5 C3          6.0750   -1.5334   -6.6607 C.2       1 <0>        -0.2832
      6 C4          4.6692   -1.3839   -6.6310 C.2       1 <0>         0.0902
      7 N2          4.3362   -0.9185   -5.4590 N.2       1 <0>        -0.2464
      8 N3          5.4952   -0.7412   -4.6952 N.pl3     1 <0>        -0.3016
      9 C5          6.5549   -1.1219   -5.4343 C.2       1 <0>         0.1643
     10 C6          5.5443   -0.2576   -3.3872 C.ar      1 <0>         0.6021
     11 N4          6.7224   -0.1505   -2.7887 N.ar      1 <0>        -0.5816
     12 C7          6.8221    0.3045   -1.5451 C.ar      1 <0>         0.4816
     13 C8          5.6461    0.6738   -0.8687 C.ar      1 <0>        -0.0719
     14 C9          4.4205    0.5370   -1.5419 C.ar      1 <0>         0.3261
     15 N5          4.4149    0.0778   -2.7889 N.ar      1 <0>        -0.5080
     16 N6          3.4569    0.9668   -0.6647 N.pl3     1 <0>        -0.4684
     17 C10         4.0876    1.3348    0.4870 C.2       1 <0>         0.2795
     18 N7          5.3716    1.1621    0.3651 N.2       1 <0>        -0.4463
     19 C11         2.0146    1.0153   -0.9168 C.3       1 <0>         0.3118
     20 H1          1.8201    1.3123   -1.9474 H         1 <0>         0.1255
     21 C12         1.3706   -0.3575   -0.6221 C.3       1 <0>         0.0785
     22 H2          1.9790   -0.9208    0.0855 H         1 <0>         0.0859
     23 C13         0.0021   -0.0041    0.0020 C.3       1 <0>         0.0474
     24 H3         -0.0661   -0.3925    1.0182 H         1 <0>         0.0885
     25 C14        -0.0189    1.5406    0.0105 C.3       1 <0>         0.0504
     26 H4         -0.5253    1.9181   -0.8778 H         1 <0>         0.1012
     27 O2          1.3722    1.9285   -0.0007 O.3       1 <0>        -0.3457
     28 C15        -0.7057    2.0570    1.2764 C.3       1 <0>         0.0819
     29 O3         -0.8186    3.4800    1.2104 O.3       1 <0>        -0.5635
     30 O4         -1.0642   -0.5149   -0.8005 O.3       1 <0>        -0.5396
     31 O5          1.1932   -1.0974   -1.8317 O.3       1 <0>        -0.5237
     32 N8          8.0561    0.4124   -0.9284 N.pl3     1 <0>        -0.7337
     33 H5          7.7776   -2.1356  -10.3715 H         1 <0>         0.0614
     34 H6          7.6136   -3.7956   -9.7504 H         1 <0>         0.0614
     35 H7          6.4105   -3.1497  -10.8921 H         1 <0>         0.0772
     36 H8          5.3073   -2.3394   -9.0178 H         1 <0>         0.4017
     37 H9          3.9894   -1.6184   -7.4368 H         1 <0>         0.2018
     38 H10         7.5893   -1.1074   -5.1243 H         1 <0>         0.2002
     39 H11         3.5943    1.7134    1.3700 H         1 <0>         0.2308
     40 H12        -1.6997    1.6169    1.3558 H         1 <0>         0.0678
     41 H13        -0.1148    1.7795    2.1493 H         1 <0>         0.0619
     42 H14        -1.2456    3.8769    1.9819 H         1 <0>         0.3874
     43 H15        -1.9453   -0.2710   -0.4854 H         1 <0>         0.3887
     44 H16         0.7383   -1.9425   -1.7128 H         1 <0>         0.3916
     45 H17         8.2201    1.3659   -0.6756 H         1 <0>         0.3759
     46 H18         8.8607    0.1546   -1.4049 H         1 <0>         0.3779
@<TRIPOS>BOND
     1    1    2 1
     2    1   33 1
     3    1   34 1
     4    1   35 1
     5    2    3 am
     6    2   36 1
     7    3    4 2
     8    3    5 1
     9    5    9 2
    10    5    6 1
    11    6    7 2
    12    6   37 1
    13    7    8 1
    14    8    9 1
    15    8   10 1
    16    9   38 1
    17   10   15 ar
    18   10   11 ar
    19   11   12 ar
    20   12   13 ar
    21   12   32 1
    22   13   18 1
    23   13   14 ar
    24   14   15 ar
    25   14   16 1
    26   16   17 1
    27   16   19 1
    28   17   18 2
    29   17   39 1
    30   19   20 1
    31   19   27 1
    32   19   21 1
    33   21   22 1
    34   21   23 1
    35   21   31 1
    36   23   24 1
    37   23   25 1
    38   23   30 1
    39   25   26 1
    40   25   27 1
    41   25   28 1
    42   28   29 1
    43   28   40 1
    44   28   41 1
    45   29   42 1
    46   30   43 1
    47   31   44 1
    48   32   45 1
    49   32   46 1
@<TRIPOS>MOLECULE
ZINC03995845
   48    51     0     0     0
SMALL
USER_CHARGES
5-[2-chloro-6-[(3-iodophenyl)methylamino]purin-9-yl]-3,4-dihydroxy-N-methyl-tetrahydrofuran-2-carboxamide
@<TRIPOS>ATOM
      1 C1         -3.5156   -0.8102    1.9233 C.3       1 <0>         0.0861
      2 N1         -2.6417    0.1999    1.3215 N.am      1 <0>        -0.7300
      3 C2         -1.5096    0.5727    1.9507 C.2       1 <0>         0.5159
      4 O1         -1.2144    0.0718    3.0151 O.2       1 <0>        -0.5022
      5 C3         -0.6107    1.6118    1.3317 C.3       1 <0>         0.0319
      6 H1         -1.1613    2.5364    1.1584 H         1 <0>         0.1217
      7 C4         -0.0127    1.0858    0.0080 C.3       1 <0>         0.0511
      8 H2          0.0021   -0.0041    0.0020 H         1 <0>         0.0923
      9 C5          1.4269    1.6468   -0.0027 C.3       1 <0>         0.0805
     10 H3          2.1534    0.8343   -0.0140 H         1 <0>         0.0905
     11 C6          1.5284    2.4454    1.3158 C.3       1 <0>         0.3123
     12 H4          1.3078    3.4982    1.1397 H         1 <0>         0.1301
     13 O2          0.5316    1.8583    2.1804 O.3       1 <0>        -0.3264
     14 N2          2.8630    2.2959    1.9011 N.pl3     1 <0>        -0.4705
     15 C7          3.2280    1.3965    2.8585 C.2       1 <0>         0.2840
     16 N3          4.4896    1.5386    3.1441 N.2       1 <0>        -0.4479
     17 C8          5.0109    2.5415    2.3970 C.ar      1 <0>        -0.0590
     18 C9          3.9735    3.0393    1.5906 C.ar      1 <0>         0.3145
     19 N4          4.2284    4.0408    0.7548 N.ar      1 <0>        -0.5110
     20 C10         5.4360    4.5628    0.6810 C.ar      1 <0>         0.4116
     21 N5          6.4423    4.1279    1.4192 N.ar      1 <0>        -0.5534
     22 C11         6.2816    3.1303    2.2825 C.ar      1 <0>         0.4581
     23 N6          7.3414    2.6815    3.0508 N.pl3     1 <0>        -0.5899
     24 C12         8.6593    3.3075    2.9179 C.3       1 <0>         0.1056
     25 C13         9.6298    2.6396    3.8576 C.ar      1 <0>        -0.0890
     26 C14        10.3623    1.5466    3.4327 C.ar      1 <0>        -0.0720
     27 C15        11.2531    0.9343    4.2939 C.ar      1 <0>        -0.1148
     28 C16        11.4113    1.4139    5.5808 C.ar      1 <0>        -0.0782
     29 C17        10.6786    2.5066    6.0062 C.ar      1 <0>        -0.0999
     30 C18         9.7917    3.1230    5.1421 C.ar      1 <0>        -0.0750
     31 I1         10.9181    3.2339    7.9562 I         1 <0>        -0.0401
     32 Cl1         5.7156    5.8697   -0.4269 Cl        1 <0>         0.0391
     33 O3          1.6201    2.5086   -1.1262 O.3       1 <0>        -0.5236
     34 O4         -0.7516    1.5814   -1.1102 O.3       1 <0>        -0.5325
     35 H5         -2.9634   -1.7420    2.0457 H         1 <0>         0.0652
     36 H6         -3.8585   -0.4605    2.8971 H         1 <0>         0.0657
     37 H7         -4.3752   -0.9798    1.2749 H         1 <0>         0.0828
     38 H8         -2.8779    0.6005    0.4703 H         1 <0>         0.4001
     39 H9          2.5679    0.6715    3.3114 H         1 <0>         0.2324
     40 H10         7.1195    2.7889    4.0199 H         1 <0>         0.3725
     41 H11         9.0121    3.1974    1.8925 H         1 <0>         0.0987
     42 H12         8.5850    4.3666    3.1648 H         1 <0>         0.0697
     43 H13        10.2386    1.1715    2.4275 H         1 <0>         0.1318
     44 H14        11.8255    0.0808    3.9616 H         1 <0>         0.1339
     45 H15        12.1075    0.9354    6.2537 H         1 <0>         0.1305
     46 H16         9.2225    3.9793    5.4726 H         1 <0>         0.1288
     47 H17         1.5077    2.0712   -1.9813 H         1 <0>         0.3936
     48 H18        -1.6713    1.2840   -1.1370 H         1 <0>         0.3843
@<TRIPOS>BOND
     1    1    2 1
     2    1   35 1
     3    1   36 1
     4    1   37 1
     5    2    3 am
     6    2   38 1
     7    3    4 2
     8    3    5 1
     9    5    6 1
    10    5   13 1
    11    5    7 1
    12    7    8 1
    13    7    9 1
    14    7   34 1
    15    9   10 1
    16    9   11 1
    17    9   33 1
    18   11   12 1
    19   11   13 1
    20   11   14 1
    21   14   18 1
    22   14   15 1
    23   15   16 2
    24   15   39 1
    25   16   17 1
    26   17   22 ar
    27   17   18 ar
    28   18   19 ar
    29   19   20 ar
    30   20   21 ar
    31   20   32 1
    32   21   22 ar
    33   22   23 1
    34   23   24 1
    35   23   40 1
    36   24   25 1
    37   24   41 1
    38   24   42 1
    39   25   30 ar
    40   25   26 ar
    41   26   27 ar
    42   26   43 1
    43   27   28 ar
    44   27   44 1
    45   28   29 ar
    46   28   45 1
    47   29   30 ar
    48   29   31 1
    49   30   46 1
    50   33   47 1
    51   34   48 1
@<TRIPOS>MOLECULE
ZINC18043251
   21    22     0     0     0
SMALL
USER_CHARGES

@<TRIPOS>ATOM
      1 C1         -0.0178    1.4608    0.0101 C.3       1 <0>         0.0852
      2 N1          0.0021   -0.0041    0.0020 N.am      1 <0>        -0.5114
      3 C2         -1.1889   -0.7120    0.0039 C.2       1 <0>         0.3216
      4 C3         -1.1437   -2.1005   -0.0039 C.2       1 <0>        -0.1538
      5 C4          0.1107   -2.7476   -0.0134 C.2       1 <0>         0.5936
      6 O1          0.1765   -3.9638   -0.0207 O.2       1 <0>        -0.5134
      7 N2          1.2361   -2.0032   -0.0148 N.am      1 <0>        -0.5513
      8 C5          1.1776   -0.6603   -0.0127 C.2       1 <0>         0.7076
      9 O2          2.2126   -0.0219   -0.0196 O.2       1 <0>        -0.5305
     10 C6          2.5413   -2.6685   -0.0246 C.3       1 <0>         0.0826
     11 N3         -2.4557   -2.5297    0.0001 N.pl3     1 <0>        -0.5179
     12 H1         -2.7618   -3.4502   -0.0030 H         1 <0>         0.4389
     13 C7         -3.2306   -1.4275    0.0098 C.2       1 <0>         0.2785
     14 N4         -2.4766   -0.3579    0.0120 N.2       1 <0>        -0.4991
     15 H2          1.0048    1.8381    0.0023 H         1 <0>         0.1033
     16 H3         -0.5450    1.8219   -0.8730 H         1 <0>         0.0800
     17 H4         -0.5280    1.8123    0.9069 H         1 <0>         0.0801
     18 H5          2.3982   -3.7491   -0.0298 H         1 <0>         0.1039
     19 H6          3.0941   -2.3709   -0.9157 H         1 <0>         0.0832
     20 H7          3.1026   -2.3806    0.8643 H         1 <0>         0.0832
     21 H8         -4.3106   -1.4268    0.0144 H         1 <0>         0.2358
@<TRIPOS>BOND
     1    1    2 1
     2    1   15 1
     3    1   16 1
     4    1   17 1
     5    2    8 am
     6    2    3 1
     7    3   14 1
     8    3    4 2
     9    4    5 1
    10    4   11 1
    11    5    6 2
    12    5    7 am
    13    7    8 am
    14    7   10 1
    15    8    9 2
    16   10   18 1
    17   10   19 1
    18   10   20 1
    19   11   12 1
    20   11   13 1
    21   13   14 2
    22   13   21 1
@<TRIPOS>MOLECULE
ZINC28526372
   34    36     0     0     0
SMALL
USER_CHARGES
5-azido-6-benzyl-2-methyl-1,8-naphthyridine
@<TRIPOS>ATOM
      1 C1         -0.0358    0.9537    0.0488 C.3       1 <0>        -0.1124
      2 C2         -0.7351    1.4742    1.2780 C.ar      1 <0>         0.1862
      3 C3          0.0049    1.6997    2.4335 C.ar      1 <0>        -0.1570
      4 C4         -0.6301    2.1778    3.5671 C.ar      1 <0>        -0.0628
      5 C5         -2.0008    2.4147    3.4976 C.ar      1 <0>        -0.1792
      6 C6         -2.7596    2.9248    4.6565 C.ar      1 <0>         0.1598
      7 C7         -4.1553    3.1295    4.4687 C.ar      1 <0>        -0.1060
      8 C8         -4.7135    2.8458    3.2377 C.ar      1 <0>         0.1861
      9 N1         -4.0119    2.3930    2.2244 N.ar      1 <0>        -0.4644
     10 C9         -2.6954    2.1647    2.2913 C.ar      1 <0>         0.3341
     11 N2         -2.0254    1.7079    1.2282 N.ar      1 <0>        -0.4589
     12 C10        -5.0110    3.6483    5.5955 C.3       1 <0>        -0.0326
     13 C11        -4.9454    5.1536    5.6241 C.ar      1 <0>        -0.0833
     14 C12        -3.9787    5.7891    6.3808 C.ar      1 <0>        -0.1028
     15 C13        -3.9155    7.1698    6.4032 C.ar      1 <0>        -0.1212
     16 C14        -4.8252    7.9152    5.6768 C.ar      1 <0>        -0.1196
     17 C15        -5.7954    7.2798    4.9245 C.ar      1 <0>        -0.1201
     18 C16        -5.8553    5.8991    4.8980 C.ar      1 <0>        -0.1126
     19 N3         -2.1729    3.1781    5.8096 N.2       1 <0>        -0.3156
     20 N4         -1.4837    2.4179    6.2684 N.1       1 <0>         0.2802
     21 N5         -0.7945    1.6577    6.7272 N.1       1 <0>        -0.1097
     22 H1          1.0336    0.8153    0.2663 H         1 <0>         0.0822
     23 H2         -0.1524    1.6758   -0.7728 H         1 <0>         0.0886
     24 H3         -0.4781   -0.0099   -0.2443 H         1 <0>         0.0885
     25 H4          1.0668    1.5029    2.4468 H         1 <0>         0.1506
     26 H5         -0.0792    2.3619    4.4776 H         1 <0>         0.1274
     27 H6         -5.7734    3.0036    3.1025 H         1 <0>         0.1759
     28 H7         -6.0525    3.3295    5.4417 H         1 <0>         0.0969
     29 H8         -4.6420    3.2470    6.5509 H         1 <0>         0.0887
     30 H9         -3.2706    5.2067    6.9516 H         1 <0>         0.1251
     31 H10        -3.1577    7.6662    6.9912 H         1 <0>         0.1208
     32 H11        -4.7781    8.9940    5.6972 H         1 <0>         0.1208
     33 H12        -6.5063    7.8622    4.3572 H         1 <0>         0.1227
     34 H13        -6.6133    5.4027    4.3102 H         1 <0>         0.1235
@<TRIPOS>BOND
     1    1    2 1
     2    1   22 1
     3    1   23 1
     4    1   24 1
     5    2   11 ar
     6    2    3 ar
     7    3    4 ar
     8    3   25 1
     9    4    5 ar
    10    4   26 1
    11    5   10 ar
    12    5    6 ar
    13    6    7 ar
    14    6   19 1
    15    7    8 ar
    16    7   12 1
    17    8    9 ar
    18    8   27 1
    19    9   10 ar
    20   10   11 ar
    21   12   13 1
    22   12   28 1
    23   12   29 1
    24   13   18 ar
    25   13   14 ar
    26   14   15 ar
    27   14   30 1
    28   15   16 ar
    29   15   31 1
    30   16   17 ar
    31   16   32 1
    32   17   18 ar
    33   17   33 1
    34   18   34 1
    35   19   20 2
    36   20   21 2
@<TRIPOS>MOLECULE
ZINC01554291
   36    38     0     0     0
SMALL
USER_CHARGES
2-butyl-9-methyl-8-triazol-2-yl-purin-6-amine
@<TRIPOS>ATOM
      1 C1          5.0295   -5.2453   -2.9625 C.3       1 <0>        -0.1541
      2 C2          4.8180   -4.7963   -1.5153 C.3       1 <0>        -0.1221
      3 C3          4.1401   -3.4247   -1.5007 C.3       1 <0>        -0.1121
      4 C4          3.9286   -2.9757   -0.0534 C.3       1 <0>        -0.0472
      5 C5          3.2609   -1.6248   -0.0391 C.ar      1 <0>         0.3782
      6 N1          4.0170   -0.5420   -0.0401 N.ar      1 <0>        -0.5377
      7 C6          3.4790    0.6730   -0.0278 C.ar      1 <0>         0.4636
      8 C7          2.0779    0.7851   -0.0136 C.ar      1 <0>        -0.0917
      9 C8          1.3181   -0.3969   -0.0127 C.ar      1 <0>         0.3111
     10 N2          1.9457   -1.5682   -0.0256 N.ar      1 <0>        -0.5307
     11 N3          0.0021   -0.0041    0.0020 N.pl3     1 <0>        -0.4650
     12 C9         -0.0165    1.3630    0.0095 C.2       1 <0>         0.5441
     13 N4          1.2073    1.8226    0.0003 N.2       1 <0>        -0.4462
     14 N5         -1.1667    2.1483    0.0195 N.pl3     1 <0>        -0.2406
     15 N6         -2.4935    1.6914    0.0174 N.2       1 <0>        -0.2369
     16 C10        -3.2736    2.7445    0.0331 C.2       1 <0>         0.0367
     17 C11        -2.4893    3.8932    0.0355 C.2       1 <0>         0.0177
     18 N7         -1.2244    3.5504    0.0274 N.2       1 <0>        -0.1851
     19 C12        -1.1667   -0.8873    0.0092 C.3       1 <0>         0.0753
     20 N8          4.2798    1.8022   -0.0285 N.pl3     1 <0>        -0.7480
     21 H1          5.5125   -6.2224   -2.9729 H         1 <0>         0.0554
     22 H2          4.0656   -5.3111   -3.4671 H         1 <0>         0.0531
     23 H3          5.6612   -4.5223   -3.4786 H         1 <0>         0.0544
     24 H4          5.7820   -4.7305   -1.0107 H         1 <0>         0.0656
     25 H5          4.1864   -5.5193   -0.9992 H         1 <0>         0.0642
     26 H6          3.1762   -3.4905   -2.0053 H         1 <0>         0.0652
     27 H7          4.7718   -2.7017   -2.0168 H         1 <0>         0.0684
     28 H8          4.8925   -2.9100    0.4511 H         1 <0>         0.0973
     29 H9          3.2969   -3.6987    0.4627 H         1 <0>         0.0938
     30 H10        -4.3533    2.7237    0.0389 H         1 <0>         0.2186
     31 H11        -2.8632    4.9064    0.0434 H         1 <0>         0.2192
     32 H12        -1.4667   -1.1012   -1.0167 H         1 <0>         0.0815
     33 H13        -0.9149   -1.8190    0.5159 H         1 <0>         0.0967
     34 H14        -1.9880   -0.3990    0.5336 H         1 <0>         0.1035
     35 H15         4.8647    1.7965    0.7826 H         1 <0>         0.3690
     36 H16         3.8752    2.6837   -0.0195 H         1 <0>         0.3846
@<TRIPOS>BOND
     1    1    2 1
     2    1   21 1
     3    1   22 1
     4    1   23 1
     5    2    3 1
     6    2   24 1
     7    2   25 1
     8    3    4 1
     9    3   26 1
    10    3   27 1
    11    4    5 1
    12    4   28 1
    13    4   29 1
    14    5   10 ar
    15    5    6 ar
    16    6    7 ar
    17    7    8 ar
    18    7   20 1
    19    8   13 1
    20    8    9 ar
    21    9   10 ar
    22    9   11 1
    23   11   12 1
    24   11   19 1
    25   12   13 2
    26   12   14 1
    27   14   18 1
    28   14   15 1
    29   15   16 2
    30   16   17 1
    31   16   30 1
    32   17   18 2
    33   17   31 1
    34   19   32 1
    35   19   33 1
    36   19   34 1
    37   20   35 1
    38   20   36 1
@<TRIPOS>MOLECULE
ZINC35923133
   64    68     0     0     0
SMALL
USER_CHARGES

@<TRIPOS>ATOM
      1 C1         -0.0187    1.5258    0.0104 C.3       1 <0>        -0.1479
      2 C2          0.0021   -0.0041    0.0020 C.3       1 <0>        -0.1386
      3 C3          0.7182   -0.4975   -1.2568 C.3       1 <0>         0.1123
      4 N1          0.7381   -1.9623   -1.2648 N.am      1 <0>        -0.5465
      5 C4          1.7667   -2.6158   -0.6861 C.2       1 <0>         0.5939
      6 O1          2.6733   -1.9949   -0.1603 O.2       1 <0>        -0.5037
      7 C5          1.7804   -4.0268   -0.6965 C.2       1 <0>        -0.1325
      8 C6          0.7318   -4.7103   -1.3037 C.2       1 <0>         0.3236
      9 N2         -0.2956   -3.9801   -1.8812 N.am      1 <0>        -0.6111
     10 H1         -1.0352   -4.4395   -2.3088 H         1 <0>         0.4408
     11 C7         -0.2715   -2.6346   -1.8438 C.2       1 <0>         0.7130
     12 O2         -1.1843   -2.0115   -2.3510 O.2       1 <0>        -0.5253
     13 N3          0.9764   -6.0143   -1.1804 N.2       1 <0>        -0.4737
     14 C8          2.1111   -6.1978   -0.5349 C.2       1 <0>         0.3253
     15 N4          2.6470   -4.9882   -0.2138 N.pl3     1 <0>        -0.5076
     16 H2          3.4777   -4.8315    0.2619 H         1 <0>         0.4390
     17 C9          2.7077   -7.5108   -0.2102 C.ar      1 <0>         0.0227
     18 C10         3.9156   -7.5790    0.4859 C.ar      1 <0>        -0.1203
     19 C11         4.4667   -8.8076    0.7861 C.ar      1 <0>        -0.0153
     20 C12         3.8247   -9.9705    0.3988 C.ar      1 <0>        -0.6631
     21 C13         2.6271   -9.9099   -0.2914 C.ar      1 <0>        -0.0173
     22 C14         2.0626   -8.6878   -0.5933 C.ar      1 <0>        -0.0855
     23 S1          4.5358  -11.5355    0.7859 S.o2      1 <0>         2.6879
     24 O3          4.0202  -12.4611   -0.1610 O.2       1 <0>        -0.9462
     25 O4          5.9295  -11.3172    0.9568 O.2       1 <0>        -0.9475
     26 N5          3.9432  -11.9905    2.2637 N.pl3     1 <0>        -0.9964
     27 C15         4.6374  -11.6130    3.5042 C.3       1 <0>         0.1252
     28 C16         3.6224  -10.9657    4.4524 C.3       1 <0>         0.0399
     29 N6          2.4785  -11.8698    4.6312 N.3       1 <0>        -0.5284
     30 C17         1.7697  -12.0895    3.3635 C.3       1 <0>         0.0346
     31 C18         2.7054  -12.7777    2.3709 C.3       1 <0>         0.1253
     32 C19         1.5647  -11.3645    5.6645 C.3       1 <0>         0.0947
     33 C20         0.5446  -12.4235    5.9945 C.ar      1 <0>        -0.0816
     34 C21        -0.6441  -12.4811    5.2913 C.ar      1 <0>        -0.1164
     35 C22        -1.5798  -13.4526    5.5939 C.ar      1 <0>        -0.1201
     36 C23        -1.3266  -14.3667    6.5995 C.ar      1 <0>        -0.1181
     37 C24        -0.1375  -14.3097    7.3021 C.ar      1 <0>        -0.1198
     38 C25         0.8000  -13.3409    6.9965 C.ar      1 <0>        -0.0969
     39 H3          1.0039    1.9031    0.0027 H         1 <0>         0.0594
     40 H4         -0.5459    1.8868   -0.8726 H         1 <0>         0.0605
     41 H5         -0.5289    1.8773    0.9072 H         1 <0>         0.0622
     42 H6          0.5293   -0.3651    0.8851 H         1 <0>         0.0676
     43 H7         -1.0205   -0.3814    0.0098 H         1 <0>         0.0701
     44 H8          0.1910   -0.1364   -2.1398 H         1 <0>         0.1058
     45 H9          1.7408   -0.1202   -1.2645 H         1 <0>         0.1034
     46 H10         4.4179   -6.6721    0.7884 H         1 <0>         0.1342
     47 H11         5.4014   -8.8618    1.3244 H         1 <0>         0.1497
     48 H12         2.1311  -10.8213   -0.5908 H         1 <0>         0.1508
     49 H13         1.1255   -8.6419   -1.1282 H         1 <0>         0.1530
     50 H14         5.0604  -12.5020    3.9721 H         1 <0>         0.0878
     51 H15         5.4318  -10.9020    3.2774 H         1 <0>         0.0947
     52 H16         4.0935  -10.7799    5.4176 H         1 <0>         0.0910
     53 H17         3.2780  -10.0228    4.0278 H         1 <0>         0.0401
     54 H18         0.8971  -12.7187    3.5389 H         1 <0>         0.0955
     55 H19         1.4510  -11.1309    2.9540 H         1 <0>         0.0393
     56 H20         2.2231  -12.8363    1.3952 H         1 <0>         0.0948
     57 H21         2.9391  -13.7807    2.7278 H         1 <0>         0.0867
     58 H22         2.1323  -11.1149    6.5610 H         1 <0>         0.0861
     59 H23         1.0569  -10.4731    5.2961 H         1 <0>         0.0437
     60 H24        -0.8420  -11.7669    4.5057 H         1 <0>         0.1175
     61 H25        -2.5089  -13.4972    5.0450 H         1 <0>         0.1216
     62 H26        -2.0580  -15.1253    6.8364 H         1 <0>         0.1213
     63 H27         0.0602  -15.0237    8.0879 H         1 <0>         0.1222
     64 H28         1.7307  -13.2986    7.5429 H         1 <0>         0.1224
@<TRIPOS>BOND
     1    1    2 1
     2    1   39 1
     3    1   40 1
     4    1   41 1
     5    2    3 1
     6    2   42 1
     7    2   43 1
     8    3    4 1
     9    3   44 1
    10    3   45 1
    11    4   11 am
    12    4    5 am
    13    5    6 2
    14    5    7 1
    15    7   15 1
    16    7    8 2
    17    8    9 1
    18    8   13 1
    19    9   10 1
    20    9   11 am
    21   11   12 2
    22   13   14 2
    23   14   15 1
    24   14   17 1
    25   15   16 1
    26   17   22 ar
    27   17   18 ar
    28   18   19 ar
    29   18   46 1
    30   19   20 ar
    31   19   47 1
    32   20   21 ar
    33   20   23 1
    34   21   22 ar
    35   21   48 1
    36   22   49 1
    37   23   24 2
    38   23   25 2
    39   23   26 1
    40   26   31 1
    41   26   27 1
    42   27   28 1
    43   27   50 1
    44   27   51 1
    45   28   29 1
    46   28   52 1
    47   28   53 1
    48   29   30 1
    49   29   32 1
    50   30   31 1
    51   30   54 1
    52   30   55 1
    53   31   56 1
    54   31   57 1
    55   32   33 1
    56   32   58 1
    57   32   59 1
    58   33   38 ar
    59   33   34 ar
    60   34   35 ar
    61   34   60 1
    62   35   36 ar
    63   35   61 1
    64   36   37 ar
    65   36   62 1
    66   37   38 ar
    67   37   63 1
    68   38   64 1
@<TRIPOS>MOLECULE
ZINC35923133
   63    67     0     0     0
SMALL
USER_CHARGES

@<TRIPOS>ATOM
      1 C1         -0.0187    1.5258    0.0104 C.3       1 <0>        -0.1437
      2 C2          0.0021   -0.0041    0.0020 C.3       1 <0>        -0.1380
      3 C3         -1.4333   -0.5336    0.0129 C.3       1 <0>         0.1179
      4 N1         -1.4134   -1.9985    0.0048 N.am      1 <0>        -0.5339
      5 C4         -1.4101   -2.6605   -1.1861 C.2       1 <0>         0.5565
      6 O1         -1.4245   -1.9767   -2.3446 O.3       1 <0>        -0.5915
      7 C5         -1.3912   -4.0581   -1.1906 C.2       1 <0>        -0.1451
      8 C6         -1.3759   -4.7445    0.0464 C.2       1 <0>         0.2264
      9 N2         -1.3806   -4.0098    1.2200 N.am      1 <0>        -0.6082
     10 H1         -1.3700   -4.4644    2.0768 H         1 <0>         0.4218
     11 C7         -1.3933   -2.6640    1.1719 C.2       1 <0>         0.7117
     12 O2         -1.3916   -2.0345    2.2124 O.2       1 <0>        -0.5707
     13 N3         -1.3602   -6.0339   -0.2354 N.2       1 <0>        -0.5278
     14 C8         -1.3647   -6.1838   -1.5654 C.2       1 <0>         0.1466
     15 N4         -1.3834   -5.0000   -2.1519 N.2       1 <0>        -0.4349
     16 C9         -1.3505   -7.4852   -2.2752 C.ar      1 <0>         0.1077
     17 C10        -1.3506   -7.5221   -3.6689 C.ar      1 <0>        -0.1270
     18 C11        -1.3373   -8.7365   -4.3242 C.ar      1 <0>        -0.0213
     19 C12        -1.3244   -9.9157   -3.6010 C.ar      1 <0>        -0.6980
     20 C13        -1.3242   -9.8853   -2.2180 C.ar      1 <0>        -0.0231
     21 C14        -1.3311   -8.6768   -1.5517 C.ar      1 <0>        -0.1271
     22 S1         -1.3087  -11.4625   -4.4447 S.o2      1 <0>         2.6934
     23 O3         -1.8488  -12.4211   -3.5455 O.2       1 <0>        -0.9606
     24 O4         -1.8629  -11.2285   -5.7321 O.2       1 <0>        -0.9600
     25 N5          0.2776  -11.8756   -4.6803 N.pl3     1 <0>        -1.0003
     26 C15         0.9953  -11.4544   -5.8930 C.3       1 <0>         0.1286
     27 C16         2.3087  -10.7855   -5.4738 C.3       1 <0>         0.0380
     28 N6          3.0567  -11.6920   -4.5926 N.3       1 <0>        -0.5282
     29 C17         2.3190  -11.9566   -3.3501 C.3       1 <0>         0.0331
     30 C18         1.0078  -12.6683   -3.6795 C.3       1 <0>         0.1290
     31 C19         4.3965  -11.1616   -4.3067 C.3       1 <0>         0.0916
     32 C20         5.2170  -12.2175   -3.6117 C.ar      1 <0>        -0.0761
     33 C21         5.2043  -12.3060   -2.2323 C.ar      1 <0>        -0.1147
     34 C22         5.9569  -13.2745   -1.5948 C.ar      1 <0>        -0.1204
     35 C23         6.7219  -14.1549   -2.3369 C.ar      1 <0>        -0.1215
     36 C24         6.7339  -14.0670   -3.7164 C.ar      1 <0>        -0.1223
     37 C25         5.9779  -13.1012   -4.3540 C.ar      1 <0>        -0.0980
     38 H2          1.0039    1.9031    0.0027 H         1 <0>         0.0561
     39 H3         -0.5459    1.8868   -0.8726 H         1 <0>         0.0572
     40 H4         -0.5289    1.8773    0.9072 H         1 <0>         0.0558
     41 H5          0.5123   -0.3556   -0.8948 H         1 <0>         0.0689
     42 H6          0.5293   -0.3651    0.8851 H         1 <0>         0.0655
     43 H7         -1.9435   -0.1821    0.9097 H         1 <0>         0.0935
     44 H8         -1.9605   -0.1726   -0.8702 H         1 <0>         0.0973
     45 H9         -1.3614   -6.6022   -4.2345 H         1 <0>         0.1398
     46 H10        -1.3374   -8.7664   -5.4038 H         1 <0>         0.1341
     47 H11        -1.3144  -10.8090   -1.6586 H         1 <0>         0.1332
     48 H12        -1.3260   -8.6541   -0.4720 H         1 <0>         0.1380
     49 H13         1.2094  -12.3251   -6.5128 H         1 <0>         0.0813
     50 H14         0.3850  -10.7449   -6.4518 H         1 <0>         0.0945
     51 H15         2.9042  -10.5661   -6.3600 H         1 <0>         0.0881
     52 H16         2.0915   -9.8589   -4.9424 H         1 <0>         0.0455
     53 H17         2.9221  -12.5865   -2.6962 H         1 <0>         0.0914
     54 H18         2.1017  -11.0137   -2.8484 H         1 <0>         0.0436
     55 H19         0.4059  -12.7610   -2.7755 H         1 <0>         0.0932
     56 H20         1.2232  -13.6580   -4.0824 H         1 <0>         0.0802
     57 H21         4.8827  -10.8799   -5.2407 H         1 <0>         0.0850
     58 H22         4.3108  -10.2860   -3.6631 H         1 <0>         0.0458
     59 H23         4.6066  -11.6181   -1.6525 H         1 <0>         0.1199
     60 H24         5.9476  -13.3431   -0.5171 H         1 <0>         0.1209
     61 H25         7.3105  -14.9111   -1.8388 H         1 <0>         0.1191
     62 H26         7.3318  -14.7546   -4.2961 H         1 <0>         0.1200
     63 H27         5.9844  -13.0349   -5.4320 H         1 <0>         0.1218
@<TRIPOS>BOND
     1    1    2 1
     2    1   38 1
     3    1   39 1
     4    1   40 1
     5    2    3 1
     6    2   41 1
     7    2   42 1
     8    3    4 1
     9    3   43 1
    10    3   44 1
    11    4   11 am
    12    4    5 1
    13    5    6 1
    14    5    7 2
    15    7   15 1
    16    7    8 1
    17    8    9 1
    18    8   13 2
    19    9   10 1
    20    9   11 am
    21   11   12 2
    22   13   14 1
    23   14   15 2
    24   14   16 1
    25   16   21 ar
    26   16   17 ar
    27   17   18 ar
    28   17   45 1
    29   18   19 ar
    30   18   46 1
    31   19   20 ar
    32   19   22 1
    33   20   21 ar
    34   20   47 1
    35   21   48 1
    36   22   23 2
    37   22   24 2
    38   22   25 1
    39   25   30 1
    40   25   26 1
    41   26   27 1
    42   26   49 1
    43   26   50 1
    44   27   28 1
    45   27   51 1
    46   27   52 1
    47   28   29 1
    48   28   31 1
    49   29   30 1
    50   29   53 1
    51   29   54 1
    52   30   55 1
    53   30   56 1
    54   31   32 1
    55   31   57 1
    56   31   58 1
    57   32   37 ar
    58   32   33 ar
    59   33   34 ar
    60   33   59 1
    61   34   35 ar
    62   34   60 1
    63   35   36 ar
    64   35   61 1
    65   36   37 ar
    66   36   62 1
    67   37   63 1
@<TRIPOS>MOLECULE
ZINC00021914
   45    49     0     0     0
SMALL
USER_CHARGES
cyclopentyl-ethyl-(2-thienyl)BLAH
@<TRIPOS>ATOM
      1 C1          4.1588    4.7213    1.4193 C.3       1 <0>        -0.1458
      2 C2          3.8442    4.3160   -0.0221 C.3       1 <0>        -0.0452
      3 C3          3.0419    3.0403   -0.0215 C.2       1 <0>         0.0931
      4 C4          3.5641    1.7608   -0.0604 C.2       1 <0>        -0.2257
      5 C5          2.4830    0.8752   -0.0248 C.2       1 <0>         0.1440
      6 N1          1.3568    1.6060   -0.0023 N.pl3     1 <0>        -0.3097
      7 N2          1.7311    2.9610    0.0158 N.2       1 <0>        -0.2664
      8 C6         -0.0127    1.0858    0.0080 C.3       1 <0>         0.1470
      9 C7         -0.7629    1.5973    1.2552 C.3       1 <0>        -0.1285
     10 C8         -1.5309    2.8450    0.7505 C.3       1 <0>        -0.1221
     11 C9         -1.9779    2.4205   -0.6705 C.3       1 <0>        -0.1209
     12 C10        -0.7845    1.6092   -1.2159 C.3       1 <0>        -0.1293
     13 C11         2.7660   -0.5642   -0.0313 C.2       1 <0>         0.2474
     14 N3          2.0446   -1.6208   -0.2381 N.2       1 <0>        -0.2534
     15 N4          2.7904   -2.6740   -0.1906 N.2       1 <0>        -0.2697
     16 C12         4.0436   -2.3332    0.0642 C.2       1 <0>         0.2939
     17 N5          4.0709   -0.9806    0.1974 N.pl3     1 <0>        -0.4703
     18 C13         5.1649   -0.0741    0.5245 C.3       1 <0>         0.1059
     19 C14         4.9914    1.2927   -0.1406 C.3       1 <0>        -0.0503
     20 C15         5.1906   -3.2460    0.1817 C.2       1 <0>        -0.1170
     21 C16         5.1988   -4.6194    0.3419 C.2       1 <0>        -0.0870
     22 C17         6.4129   -5.2613    0.4237 C.2       1 <0>        -0.1606
     23 C18         7.5566   -4.5314    0.3571 C.2       1 <0>        -0.1501
     24 S1          6.9356   -2.8692    0.1626 S.3       1 <0>         0.0753
     25 H1          4.7392    5.6440    1.4188 H         1 <0>         0.0649
     26 H2          3.2278    4.8779    1.9641 H         1 <0>         0.0579
     27 H3          4.7336    3.9308    1.9018 H         1 <0>         0.0561
     28 H4          4.7752    4.1594   -0.5669 H         1 <0>         0.0843
     29 H5          3.2695    5.1065   -0.5046 H         1 <0>         0.0823
     30 H6          0.0021   -0.0041    0.0020 H         1 <0>         0.1170
     31 H7         -1.4596    0.8416    1.6179 H         1 <0>         0.0856
     32 H8         -0.0569    1.8738    2.0383 H         1 <0>         0.0735
     33 H9         -0.8713    3.7116    0.7051 H         1 <0>         0.0771
     34 H10        -2.3951    3.0518    1.3816 H         1 <0>         0.0701
     35 H11        -2.1585    3.2978   -1.2916 H         1 <0>         0.0711
     36 H12        -2.8710    1.7977   -0.6193 H         1 <0>         0.0700
     37 H13        -0.1404    2.2509   -1.8171 H         1 <0>         0.0779
     38 H14        -1.1443    0.7734   -1.8159 H         1 <0>         0.0798
     39 H15         6.1036   -0.5152    0.1893 H         1 <0>         0.1002
     40 H16         5.2036    0.0597    1.6056 H         1 <0>         0.0964
     41 H17         5.2850    1.2201   -1.1878 H         1 <0>         0.0839
     42 H18         5.6333    2.0170    0.3608 H         1 <0>         0.1063
     43 H19         4.2745   -5.1752    0.3977 H         1 <0>         0.1492
     44 H20         6.4561   -6.3337    0.5441 H         1 <0>         0.1466
     45 H21         8.5807   -4.8703    0.4090 H         1 <0>         0.1951
@<TRIPOS>BOND
     1    1    2 1
     2    1   25 1
     3    1   26 1
     4    1   27 1
     5    2    3 1
     6    2   28 1
     7    2   29 1
     8    3    7 2
     9    3    4 1
    10    4   19 1
    11    4    5 2
    12    5    6 1
    13    5   13 1
    14    6    7 1
    15    6    8 1
    16    8   12 1
    17    8    9 1
    18    8   30 1
    19    9   10 1
    20    9   31 1
    21    9   32 1
    22   10   11 1
    23   10   33 1
    24   10   34 1
    25   11   12 1
    26   11   35 1
    27   11   36 1
    28   12   37 1
    29   12   38 1
    30   13   17 1
    31   13   14 2
    32   14   15 1
    33   15   16 2
    34   16   17 1
    35   16   20 1
    36   17   18 1
    37   18   19 1
    38   18   39 1
    39   18   40 1
    40   19   41 1
    41   19   42 1
    42   20   24 1
    43   20   21 2
    44   21   22 1
    45   21   43 1
    46   22   23 2
    47   22   44 1
    48   23   24 1
    49   23   45 1
@<TRIPOS>MOLECULE
ZINC19708474
   31    33     0     0     0
SMALL
USER_CHARGES
2-amino-6-cyclopropyl-4-(4-fluorophenyl)pyridine-3-carbonitrile
@<TRIPOS>ATOM
      1 C1          3.4664    1.8429   -0.9499 C.ar      1 <0>        -0.0624
      2 C2          4.6893    1.2052   -0.9578 C.ar      1 <0>        -0.1524
      3 C3          4.9526    0.1953   -0.0459 C.ar      1 <0>         0.1130
      4 C4          3.9919   -0.1743    0.8821 C.ar      1 <0>        -0.1505
      5 C5          2.7681    0.4614    0.9016 C.ar      1 <0>        -0.0652
      6 C6          2.4982    1.4781   -0.0144 C.ar      1 <0>        -0.0806
      7 C7          1.1856    2.1641    0.0024 C.ar      1 <0>         0.0990
      8 C8          1.1039    3.5585    0.0107 C.ar      1 <0>        -0.2373
      9 C9         -0.1357    4.1634    0.0258 C.ar      1 <0>         0.2301
     10 N1         -1.2476    3.4517    0.0330 N.ar      1 <0>        -0.5498
     11 C10        -1.2352    2.1284    0.0194 C.ar      1 <0>         0.4719
     12 C11        -0.0173    1.4278    0.0099 C.ar      1 <0>        -0.1681
     13 C12         0.0021   -0.0041    0.0020 C.1       1 <0>         0.2592
     14 N2          0.0175   -1.1399   -0.0042 N.1       1 <0>        -0.4174
     15 N3         -2.4300    1.4298    0.0207 N.pl3     1 <0>        -0.8588
     16 C13        -0.2226    5.6679    0.0348 C.3       1 <0>        -0.2085
     17 C14         1.0410    6.4463    0.4067 C.3       1 <0>        -0.1193
     18 C15        -0.1302    6.3728    1.3896 C.3       1 <0>        -0.1073
     19 F1          6.1497   -0.4306   -0.0615 F         1 <0>        -0.1343
     20 H1          3.2604    2.6266   -1.6640 H         1 <0>         0.1407
     21 H2          5.4412    1.4900   -1.6788 H         1 <0>         0.1432
     22 H3          4.2017   -0.9617    1.5909 H         1 <0>         0.1411
     23 H4          2.0198    0.1722    1.6247 H         1 <0>         0.1315
     24 H5          2.0027    4.1573    0.0050 H         1 <0>         0.1453
     25 H6         -2.4240    0.3299    0.0094 H         1 <0>         0.4314
     26 H7         -3.3856    1.9745    0.0330 H         1 <0>         0.4348
     27 H8         -0.9301    5.6783   -0.8074 H         1 <0>         0.1407
     28 H9          1.9055    5.7662    0.4011 H         1 <0>         0.1082
     29 H10         1.2037    7.2521   -0.3242 H         1 <0>         0.1105
     30 H11        -0.9353    7.1179    1.4709 H         1 <0>         0.1095
     31 H12        -0.2334    5.6320    2.1962 H         1 <0>         0.1019
@<TRIPOS>BOND
     1    1    6 ar
     2    1    2 ar
     3    1   20 1
     4    2    3 ar
     5    2   21 1
     6    3    4 ar
     7    3   19 1
     8    4    5 ar
     9    4   22 1
    10    5    6 ar
    11    5   23 1
    12    6    7 1
    13    7   12 ar
    14    7    8 ar
    15    8    9 ar
    16    8   24 1
    17    9   10 ar
    18    9   16 1
    19   10   11 ar
    20   11   12 ar
    21   11   15 1
    22   12   13 1
    23   13   14 3
    24   15   25 1
    25   15   26 1
    26   16   18 1
    27   16   17 1
    28   16   27 1
    29   17   18 1
    30   17   28 1
    31   17   29 1
    32   18   30 1
    33   18   31 1
@<TRIPOS>MOLECULE
ZINC04757753
   42    44     0     0     0
SMALL
USER_CHARGES

@<TRIPOS>ATOM
      1 C1         -0.0173    1.4248    0.0099 C.3       1 <0>         0.0255
      2 O1          0.0021   -0.0041    0.0020 O.3       1 <0>        -0.3146
      3 C2         -1.2003   -0.6375    0.0101 C.ar      1 <0>         0.1210
      4 C3         -2.3748    0.1029    0.0196 C.ar      1 <0>        -0.1850
      5 C4         -3.5999   -0.5369    0.0283 C.ar      1 <0>        -0.0825
      6 C5         -3.6627   -1.9161    0.0276 C.ar      1 <0>        -0.1226
      7 C6         -2.4885   -2.6669    0.0177 C.ar      1 <0>        -0.0291
      8 C7         -1.2539   -2.0214    0.0032 C.ar      1 <0>        -0.0989
      9 C8         -2.5531   -4.1486    0.0174 C.ar      1 <0>         0.2803
     10 C9         -3.7826   -4.8051   -0.0838 C.ar      1 <0>        -0.2344
     11 C10        -3.7933   -6.1884   -0.0804 C.ar      1 <0>         0.1418
     12 N1         -2.6479   -6.8447    0.0179 N.ar      1 <0>        -0.5357
     13 C11        -1.4963   -6.1961    0.1125 C.ar      1 <0>         0.5823
     14 N2         -1.4406   -4.8735    0.1079 N.ar      1 <0>        -0.5416
     15 N3         -0.3209   -6.9201    0.2134 N.pl3     1 <0>        -0.6875
     16 C12        -0.3606   -8.3846    0.2147 C.3       1 <0>         0.1780
     17 C13         1.0412   -8.9249    0.3341 C.ar      1 <0>        -0.1264
     18 C14         1.7858   -9.1709   -0.8044 C.ar      1 <0>        -0.0665
     19 C15         3.0715   -9.6660   -0.6962 C.ar      1 <0>        -0.1559
     20 C16         3.6138   -9.9157    0.5531 C.ar      1 <0>         0.1112
     21 C17         2.8670   -9.6689    1.6927 C.ar      1 <0>        -0.1559
     22 C18         1.5834   -9.1688    1.5821 C.ar      1 <0>        -0.0664
     23 F1          4.8704  -10.4001    0.6601 F         1 <0>        -0.1361
     24 C19        -5.0951   -6.9402   -0.1868 C.3       1 <0>         0.5256
     25 F2         -5.3881   -7.1770   -1.5341 F         1 <0>        -0.1646
     26 F3         -4.9852   -8.1608    0.4880 F         1 <0>        -0.1593
     27 F4         -6.1204   -6.1808    0.3869 F         1 <0>        -0.1648
     28 H1          1.0053    1.8021    0.0021 H         1 <0>         0.1029
     29 H2         -0.5445    1.7859   -0.8732 H         1 <0>         0.0573
     30 H3         -0.5275    1.7763    0.9067 H         1 <0>         0.0574
     31 H4         -2.3309    1.1820    0.0205 H         1 <0>         0.1337
     32 H5         -4.5105    0.0436    0.0359 H         1 <0>         0.1350
     33 H6         -4.6215   -2.4131    0.0351 H         1 <0>         0.1337
     34 H7         -0.3412   -2.5986   -0.0090 H         1 <0>         0.1452
     35 H8         -4.7030   -4.2456   -0.1625 H         1 <0>         0.1614
     36 H9          0.5290   -6.4579    0.2833 H         1 <0>         0.4199
     37 H10        -0.9567   -8.7312    1.0589 H         1 <0>         0.0827
     38 H11        -0.8078   -8.7367   -0.7149 H         1 <0>         0.0822
     39 H12         1.3625   -8.9765   -1.7788 H         1 <0>         0.1360
     40 H13         3.6530   -9.8585   -1.5857 H         1 <0>         0.1393
     41 H14         3.2888   -9.8636    2.6676 H         1 <0>         0.1394
     42 H15         1.0023   -8.9721    2.4710 H         1 <0>         0.1360
@<TRIPOS>BOND
     1    1    2 1
     2    1   28 1
     3    1   29 1
     4    1   30 1
     5    2    3 1
     6    3    8 ar
     7    3    4 ar
     8    4    5 ar
     9    4   31 1
    10    5    6 ar
    11    5   32 1
    12    6    7 ar
    13    6   33 1
    14    7    8 ar
    15    7    9 1
    16    8   34 1
    17    9   14 ar
    18    9   10 ar
    19   10   11 ar
    20   10   35 1
    21   11   12 ar
    22   11   24 1
    23   12   13 ar
    24   13   14 ar
    25   13   15 1
    26   15   16 1
    27   15   36 1
    28   16   17 1
    29   16   37 1
    30   16   38 1
    31   17   22 ar
    32   17   18 ar
    33   18   19 ar
    34   18   39 1
    35   19   20 ar
    36   19   40 1
    37   20   21 ar
    38   20   23 1
    39   21   22 ar
    40   21   41 1
    41   22   42 1
    42   24   25 1
    43   24   26 1
    44   24   27 1
@<TRIPOS>MOLECULE
ZINC19707370
   34    36     0     0     0
SMALL
USER_CHARGES
2-amino-4-(2-chlorophenyl)-6-phenyl-pyridine-3-carbonitrile
@<TRIPOS>ATOM
      1 C1          0.1593    8.4181    0.0440 C.ar      1 <0>        -0.1010
      2 C2          1.3372    7.6927    0.0292 C.ar      1 <0>        -0.1288
      3 C3          1.3010    6.3133    0.0226 C.ar      1 <0>        -0.0707
      4 C4          0.0743    5.6508    0.0307 C.ar      1 <0>        -0.0631
      5 C5         -1.1094    6.3872    0.0398 C.ar      1 <0>        -0.0908
      6 C6         -1.0608    7.7663    0.0521 C.ar      1 <0>        -0.1256
      7 C7          0.0288    4.1690    0.0237 C.ar      1 <0>         0.2604
      8 C8         -1.2036    3.5225    0.0315 C.ar      1 <0>        -0.2145
      9 C9         -1.2424    2.1296    0.0194 C.ar      1 <0>         0.0921
     10 C10        -0.0173    1.4278    0.0099 C.ar      1 <0>        -0.1501
     11 C11         1.1828    2.1593    0.0024 C.ar      1 <0>         0.4713
     12 N1          1.1649    3.4811    0.0096 N.ar      1 <0>        -0.5398
     13 N2          2.3941    1.4898   -0.0123 N.pl3     1 <0>        -0.8588
     14 C12         0.0021   -0.0041    0.0020 C.1       1 <0>         0.2588
     15 N3          0.0175   -1.1399   -0.0042 N.1       1 <0>        -0.4125
     16 C13        -2.5344    1.4045    0.0221 C.ar      1 <0>        -0.0614
     17 C14        -3.3998    1.5119   -1.0663 C.ar      1 <0>        -0.0828
     18 C15        -4.6016    0.8345   -1.0582 C.ar      1 <0>        -0.1137
     19 C16        -4.9496    0.0489    0.0266 C.ar      1 <0>        -0.0952
     20 C17        -4.0966   -0.0623    1.1092 C.ar      1 <0>        -0.1093
     21 C18        -2.8879    0.6068    1.1110 C.ar      1 <0>        -0.0165
     22 Cl1        -1.8143    0.4604    2.4674 Cl        1 <0>        -0.0560
     23 H1          0.1925    9.4976    0.0495 H         1 <0>         0.1251
     24 H2          2.2868    8.2070    0.0226 H         1 <0>         0.1268
     25 H3          2.2212    5.7479    0.0115 H         1 <0>         0.1361
     26 H4         -2.0626    5.8794    0.0416 H         1 <0>         0.1296
     27 H5         -1.9771    8.3378    0.0632 H         1 <0>         0.1280
     28 H6         -2.1199    4.0941    0.0430 H         1 <0>         0.1463
     29 H7          3.3363    2.0575   -0.0182 H         1 <0>         0.4346
     30 H8          2.4146    0.3900   -0.0181 H         1 <0>         0.4318
     31 H9         -3.1295    2.1240   -1.9141 H         1 <0>         0.1385
     32 H10        -5.2722    0.9172   -1.9007 H         1 <0>         0.1362
     33 H11        -5.8913   -0.4798    0.0274 H         1 <0>         0.1367
     34 H12        -4.3738   -0.6769    1.9529 H         1 <0>         0.1383
@<TRIPOS>BOND
     1    1    6 ar
     2    1    2 ar
     3    1   23 1
     4    2    3 ar
     5    2   24 1
     6    3    4 ar
     7    3   25 1
     8    4    5 ar
     9    4    7 1
    10    5    6 ar
    11    5   26 1
    12    6   27 1
    13    7   12 ar
    14    7    8 ar
    15    8    9 ar
    16    8   28 1
    17    9   10 ar
    18    9   16 1
    19   10   11 ar
    20   10   14 1
    21   11   12 ar
    22   11   13 1
    23   13   29 1
    24   13   30 1
    25   14   15 3
    26   16   21 ar
    27   16   17 ar
    28   17   18 ar
    29   17   31 1
    30   18   19 ar
    31   18   32 1
    32   19   20 ar
    33   19   33 1
    34   20   21 ar
    35   20   34 1
    36   21   22 1
@<TRIPOS>MOLECULE
ZINC19805507
   31    33     0     0     0
SMALL
USER_CHARGES

@<TRIPOS>ATOM
      1 C1         -0.0168    1.3906    0.0097 C.ar      1 <0>        -0.0664
      2 C2          1.1694    2.0942    0.0021 C.ar      1 <0>        -0.1500
      3 C3          2.3788    1.4176   -0.0135 C.ar      1 <0>         0.1107
      4 C4          2.4028    0.0319   -0.0212 C.ar      1 <0>        -0.1512
      5 C5          1.2219   -0.6805   -0.0133 C.ar      1 <0>        -0.0637
      6 C6          0.0021   -0.0041    0.0020 C.ar      1 <0>        -0.0774
      7 C7         -1.2690   -0.7644    0.0106 C.ar      1 <0>         0.1015
      8 C8         -1.6156   -1.5688    1.1000 C.ar      1 <0>        -0.1968
      9 C9         -2.8066   -2.2653    1.0807 C.ar      1 <0>         0.2091
     10 N1         -3.6241   -2.1795    0.0410 N.ar      1 <0>        -0.5378
     11 C10        -3.3519   -1.4362   -1.0168 C.ar      1 <0>         0.4636
     12 C11        -2.1626   -0.6905   -1.0771 C.ar      1 <0>        -0.1488
     13 C12        -1.8636    0.1220   -2.2178 C.1       1 <0>         0.2579
     14 N2         -1.6265    0.7665   -3.1226 N.1       1 <0>        -0.4102
     15 N3         -4.2468   -1.3886   -2.0717 N.pl3     1 <0>        -0.8363
     16 C13        -2.9524   -3.0567    2.3653 C.3       1 <0>        -0.0761
     17 C14        -1.5335   -3.1137    2.9693 C.3       1 <0>        -0.1191
     18 C15        -0.8776   -1.8412    2.3921 C.3       1 <0>        -0.0701
     19 F1          3.5382    2.1111   -0.0217 F         1 <0>        -0.1351
     20 H1         -0.9588    1.9187    0.0260 H         1 <0>         0.1337
     21 H2          1.1558    3.1741    0.0081 H         1 <0>         0.1410
     22 H3          3.3477   -0.4909   -0.0337 H         1 <0>         0.1423
     23 H4          1.2415   -1.7603   -0.0196 H         1 <0>         0.1386
     24 H5         -5.0702   -1.8998   -2.0326 H         1 <0>         0.4128
     25 H6         -4.0505   -0.8440   -2.8500 H         1 <0>         0.4113
     26 H7         -3.6334   -2.5479    3.0475 H         1 <0>         0.0982
     27 H8         -3.3126   -4.0628    2.1508 H         1 <0>         0.0919
     28 H9         -1.5734   -3.0696    4.0577 H         1 <0>         0.0864
     29 H10        -1.0058   -4.0072    2.6356 H         1 <0>         0.0784
     30 H11         0.1798   -2.0170    2.1941 H         1 <0>         0.0784
     31 H12        -1.0006   -1.0060    3.0815 H         1 <0>         0.0832
@<TRIPOS>BOND
     1    1    6 ar
     2    1    2 ar
     3    1   20 1
     4    2    3 ar
     5    2   21 1
     6    3    4 ar
     7    3   19 1
     8    4    5 ar
     9    4   22 1
    10    5    6 ar
    11    5   23 1
    12    6    7 1
    13    7   12 ar
    14    7    8 ar
    15    8   18 1
    16    8    9 ar
    17    9   10 ar
    18    9   16 1
    19   10   11 ar
    20   11   12 ar
    21   11   15 1
    22   12   13 1
    23   13   14 3
    24   15   24 1
    25   15   25 1
    26   16   17 1
    27   16   26 1
    28   16   27 1
    29   17   18 1
    30   17   28 1
    31   17   29 1
    32   18   30 1
    33   18   31 1
