@<TRIPOS>MOLECULE
ZINC26816145
   50    51     0     0     0
SMALL
USER_CHARGES

@<TRIPOS>ATOM
      1 C1         -1.5727    1.1561    1.0004 C.3       1 <0>        -0.1497
      2 C2         -1.1984   -0.3112    0.7814 C.3       1 <0>         0.0652
      3 O1         -0.2200   -0.7023    1.7467 O.3       1 <0>        -0.3341
      4 C3          0.2199   -1.9749    1.6909 C.2       1 <0>         0.4737
      5 C4          1.1632   -2.4179    2.5920 C.2       1 <0>        -0.3954
      6 C5          1.6280   -1.5463    3.7454 C.3       1 <0>         0.0742
      7 H1          2.0385   -0.6250    3.3321 H         1 <0>         0.0316
      8 C6          2.6707   -2.1613    4.6609 C.2       1 <0>        -0.3789
      9 C7          3.0958   -3.4268    4.3741 C.2       1 <0>         0.2801
     10 N1          2.6324   -4.1149    3.3419 N.2       1 <0>        -0.6482
     11 C8          1.7291   -3.6898    2.4883 C.2       1 <0>         0.3106
     12 C9          1.2968   -4.5962    1.3646 C.3       1 <0>        -0.0927
     13 C10         4.1310   -4.0638    5.2650 C.3       1 <0>        -0.1135
     14 C11         3.1806   -1.4537    5.7635 C.2       1 <0>         0.5267
     15 O2          3.9342   -2.0051    6.5454 O.2       1 <0>        -0.5582
     16 O3          2.8346   -0.1623    5.9558 O.3       1 <0>        -0.3534
     17 C12         3.3899    0.4951    7.0966 C.3       1 <0>         0.0873
     18 C13         2.8878    1.9395    7.1475 C.3       1 <0>        -0.1091
     19 S1          3.5927    2.7741    8.5957 S.3       1 <0>        -0.1006
     20 C14         2.9284    4.4040    8.5137 C.ar      1 <0>        -0.0795
     21 C15         2.0666    4.7538    7.4811 C.ar      1 <0>        -0.1328
     22 C16         1.5479    6.0320    7.4200 C.ar      1 <0>        -0.0991
     23 C17         1.8851    6.9637    8.3849 C.ar      1 <0>        -0.1284
     24 C18         2.7428    6.6193    9.4138 C.ar      1 <0>        -0.1028
     25 C19         3.2604    5.3412    9.4847 C.ar      1 <0>        -0.1018
     26 C20         0.4071   -1.1841    4.5932 C.3       1 <0>        -0.1426
     27 O4         -0.2629   -2.8142    0.7536 O.3       1 <0>        -0.6532
     28 H2         -0.6845    1.7780    0.8900 H         1 <0>         0.0613
     29 H3         -2.3191    1.4544    0.2641 H         1 <0>         0.0693
     30 H4         -1.9814    1.2810    2.0032 H         1 <0>         0.0611
     31 H5         -2.0867   -0.9332    0.8919 H         1 <0>         0.0572
     32 H6         -0.7897   -0.4361   -0.2213 H         1 <0>         0.0573
     33 H7          1.5762   -4.1502    0.4101 H         1 <0>         0.0733
     34 H8          1.7860   -5.5645    1.4703 H         1 <0>         0.0474
     35 H9          0.2156   -4.7294    1.4008 H         1 <0>         0.0869
     36 H10         3.6401   -4.5156    6.1270 H         1 <0>         0.0693
     37 H11         4.6666   -4.8324    4.7077 H         1 <0>         0.0529
     38 H12         4.8351   -3.3042    5.6046 H         1 <0>         0.0951
     39 H13         3.0836   -0.0281    8.0024 H         1 <0>         0.0692
     40 H14         4.4775    0.4909    7.0248 H         1 <0>         0.0691
     41 H15         3.1942    2.4628    6.2417 H         1 <0>         0.0984
     42 H16         1.8002    1.9438    7.2194 H         1 <0>         0.0982
     43 H17         1.8031    4.0268    6.7271 H         1 <0>         0.1266
     44 H18         0.8784    6.3047    6.6176 H         1 <0>         0.1259
     45 H19         1.4779    7.9628    8.3347 H         1 <0>         0.1236
     46 H20         3.0042    7.3496   10.1653 H         1 <0>         0.1266
     47 H21         3.9260    5.0714   10.2913 H         1 <0>         0.1276
     48 H22        -0.0538   -2.0954    4.9744 H         1 <0>         0.0337
     49 H23         0.7181   -0.5572    5.4289 H         1 <0>         0.0463
     50 H24        -0.3129   -0.6417    3.9804 H         1 <0>         0.0484
@<TRIPOS>BOND
     1    1    2 1
     2    1   28 1
     3    1   29 1
     4    1   30 1
     5    2    3 1
     6    2   31 1
     7    2   32 1
     8    3    4 1
     9    4    5 2
    10    4   27 1
    11    5   11 1
    12    5    6 1
    13    6    7 1
    14    6    8 1
    15    6   26 1
    16    8    9 2
    17    8   14 1
    18    9   10 1
    19    9   13 1
    20   10   11 2
    21   11   12 1
    22   12   33 1
    23   12   34 1
    24   12   35 1
    25   13   36 1
    26   13   37 1
    27   13   38 1
    28   14   15 2
    29   14   16 1
    30   16   17 1
    31   17   18 1
    32   17   39 1
    33   17   40 1
    34   18   19 1
    35   18   41 1
    36   18   42 1
    37   19   20 1
    38   20   25 ar
    39   20   21 ar
    40   21   22 ar
    41   21   43 1
    42   22   23 ar
    43   22   44 1
    44   23   24 ar
    45   23   45 1
    46   24   25 ar
    47   24   46 1
    48   25   47 1
    49   26   48 1
    50   26   49 1
    51   26   50 1
@<TRIPOS>MOLECULE
ZINC26816150
   50    51     0     0     0
SMALL
USER_CHARGES

@<TRIPOS>ATOM
      1 C1         -1.9159    0.9000    1.1230 C.3       1 <0>        -0.1497
      2 C2         -1.2977   -0.4532    0.7658 C.3       1 <0>         0.0653
      3 O1         -0.3626   -0.8317    1.7780 O.3       1 <0>        -0.3342
      4 C3          0.2745   -2.0077    1.6134 C.2       1 <0>         0.4742
      5 C4          1.1890   -2.4330    2.5519 C.2       1 <0>        -0.3955
      6 C5          1.6387   -1.5295    3.6865 C.3       1 <0>         0.0743
      7 H1          0.7580   -1.2360    4.2577 H         1 <0>         0.0300
      8 C6          2.6497   -2.1276    4.6476 C.2       1 <0>        -0.3793
      9 C7          3.0627   -3.4079    4.4141 C.2       1 <0>         0.2801
     10 N1          2.6143   -4.1241    3.3944 N.2       1 <0>        -0.6482
     11 C8          1.7384   -3.7155    2.5049 C.2       1 <0>         0.3100
     12 C9          1.3200   -4.6534    1.4020 C.3       1 <0>        -0.0910
     13 C10         4.0665   -4.0288    5.3511 C.3       1 <0>        -0.1139
     14 C11         3.1431   -1.3902    5.7382 C.2       1 <0>         0.5262
     15 O2          3.8655   -1.9265    6.5590 O.2       1 <0>        -0.5580
     16 O3          2.8160   -0.0869    5.8756 O.3       1 <0>        -0.3519
     17 C12         3.3529    0.6009    7.0072 C.3       1 <0>         0.0860
     18 C13         2.8762    2.0547    6.9938 C.3       1 <0>        -0.1091
     19 S1          3.5578    2.9278    8.4303 S.3       1 <0>        -0.1006
     20 C14         2.9259    4.5651    8.2732 C.ar      1 <0>        -0.0795
     21 C15         2.0983    4.8929    7.2060 C.ar      1 <0>        -0.1328
     22 C16         1.6051    6.1771    7.0861 C.ar      1 <0>        -0.0992
     23 C17         1.9337    7.1365    8.0265 C.ar      1 <0>        -0.1284
     24 C18         2.7573    6.8140    9.0896 C.ar      1 <0>        -0.1028
     25 C19         3.2493    5.5303    9.2194 C.ar      1 <0>        -0.1018
     26 C20         2.2525   -0.2671    3.0777 C.3       1 <0>        -0.1449
     27 O4          0.0172   -2.7677    0.5307 O.3       1 <0>        -0.6528
     28 H2         -1.1298    1.6520    1.1909 H         1 <0>         0.0611
     29 H3         -2.6291    1.1887    0.3509 H         1 <0>         0.0693
     30 H4         -2.4292    0.8233    2.0815 H         1 <0>         0.0613
     31 H5         -2.0838   -1.2052    0.6979 H         1 <0>         0.0573
     32 H6         -0.7844   -0.3766   -0.1927 H         1 <0>         0.0572
     33 H7          1.5950   -4.2259    0.4378 H         1 <0>         0.0834
     34 H8          1.8219   -5.6124    1.5307 H         1 <0>         0.0477
     35 H9          0.2406   -4.8002    1.4398 H         1 <0>         0.0746
     36 H10         3.5476   -4.4503    6.2120 H         1 <0>         0.0694
     37 H11         4.6088   -4.8185    4.8312 H         1 <0>         0.0528
     38 H12         4.7691   -3.2665    5.6879 H         1 <0>         0.0953
     39 H13         3.0131    0.1156    7.9222 H         1 <0>         0.0691
     40 H14         4.4418    0.5751    6.9651 H         1 <0>         0.0691
     41 H15         3.2160    2.5400    6.0788 H         1 <0>         0.0981
     42 H16         1.7874    2.0805    7.0359 H         1 <0>         0.0984
     43 H17         1.8416    4.1443    6.4711 H         1 <0>         0.1266
     44 H18         0.9622    6.4326    6.2568 H         1 <0>         0.1259
     45 H19         1.5464    8.1400    7.9302 H         1 <0>         0.1236
     46 H20         3.0121    7.5658    9.8219 H         1 <0>         0.1266
     47 H21         3.8883    5.2778   10.0527 H         1 <0>         0.1276
     48 H22         1.5065    0.2415    2.4670 H         1 <0>         0.0460
     49 H23         2.5830    0.3975    3.8759 H         1 <0>         0.0535
     50 H24         3.1052   -0.5410    2.4565 H         1 <0>         0.0333
@<TRIPOS>BOND
     1    1    2 1
     2    1   28 1
     3    1   29 1
     4    1   30 1
     5    2    3 1
     6    2   31 1
     7    2   32 1
     8    3    4 1
     9    4    5 2
    10    4   27 1
    11    5   11 1
    12    5    6 1
    13    6    7 1
    14    6    8 1
    15    6   26 1
    16    8    9 2
    17    8   14 1
    18    9   10 1
    19    9   13 1
    20   10   11 2
    21   11   12 1
    22   12   33 1
    23   12   34 1
    24   12   35 1
    25   13   36 1
    26   13   37 1
    27   13   38 1
    28   14   15 2
    29   14   16 1
    30   16   17 1
    31   17   18 1
    32   17   39 1
    33   17   40 1
    34   18   19 1
    35   18   41 1
    36   18   42 1
    37   19   20 1
    38   20   25 ar
    39   20   21 ar
    40   21   22 ar
    41   21   43 1
    42   22   23 ar
    43   22   44 1
    44   23   24 ar
    45   23   45 1
    46   24   25 ar
    47   24   46 1
    48   25   47 1
    49   26   48 1
    50   26   49 1
    51   26   50 1
@<TRIPOS>MOLECULE
ZINC13818926
   48    51     0     0     0
SMALL
USER_CHARGES
ethyl 1-[6-amino-9-[(2R,3R,4S,5R)-3,4-dihydroxy-5-(hydroxymethyl)tetrahydrofuran-2-yl]purin-2-yl]pyrazole-4-carboxylate
@<TRIPOS>ATOM
      1 C1          6.2622   -3.2588  -11.2160 C.3       1 <0>        -0.1538
      2 C2          7.1226   -2.8914  -10.0053 C.3       1 <0>         0.0647
      3 O1          6.2700   -2.4061   -8.9349 O.3       1 <0>        -0.3523
      4 C3          6.8761   -2.0378   -7.7891 C.2       1 <0>         0.5488
      5 O2          8.0843   -2.1199   -7.6873 O.2       1 <0>        -0.5134
      6 C4          6.0744   -1.5357   -6.6603 C.2       1 <0>        -0.2685
      7 C5          4.6683   -1.3851   -6.6303 C.2       1 <0>         0.1118
      8 N1          4.3359   -0.9203   -5.4581 N.2       1 <0>        -0.2491
      9 N2          5.4950   -0.7431   -4.6945 N.pl3     1 <0>        -0.2996
     10 C6          6.5545   -1.1243   -5.4330 C.2       1 <0>         0.1728
     11 C7          5.5442   -0.2589   -3.3868 C.ar      1 <0>         0.6010
     12 N3          6.7223   -0.1518   -2.7883 N.ar      1 <0>        -0.5821
     13 C8          6.8220    0.3038   -1.5448 C.ar      1 <0>         0.4817
     14 C9          5.6461    0.6738   -0.8687 C.ar      1 <0>        -0.0704
     15 C10         4.4205    0.5370   -1.5419 C.ar      1 <0>         0.3260
     16 N4          4.4149    0.0772   -2.7887 N.ar      1 <0>        -0.5058
     17 N5          3.4569    0.9668   -0.6647 N.pl3     1 <0>        -0.4680
     18 C11         4.0876    1.3348    0.4870 C.2       1 <0>         0.2807
     19 N6          5.3716    1.1621    0.3651 N.2       1 <0>        -0.4466
     20 C12         2.0146    1.0153   -0.9168 C.3       1 <0>         0.3114
     21 H1          1.8201    1.3123   -1.9474 H         1 <0>         0.1260
     22 C13         1.3706   -0.3575   -0.6221 C.3       1 <0>         0.0785
     23 H2          1.9790   -0.9208    0.0855 H         1 <0>         0.0859
     24 C14         0.0021   -0.0041    0.0020 C.3       1 <0>         0.0474
     25 H3         -0.0661   -0.3925    1.0182 H         1 <0>         0.0885
     26 C15        -0.0189    1.5406    0.0105 C.3       1 <0>         0.0504
     27 H4         -0.5253    1.9181   -0.8778 H         1 <0>         0.1014
     28 O3          1.3722    1.9285   -0.0007 O.3       1 <0>        -0.3458
     29 C16        -0.7057    2.0570    1.2764 C.3       1 <0>         0.0819
     30 O4         -0.8186    3.4800    1.2104 O.3       1 <0>        -0.5635
     31 O5         -1.0642   -0.5149   -0.8005 O.3       1 <0>        -0.5395
     32 O6          1.1932   -1.0974   -1.8317 O.3       1 <0>        -0.5235
     33 N7          8.0560    0.4117   -0.9281 N.pl3     1 <0>        -0.7335
     34 H5          6.9023   -3.6231  -12.0195 H         1 <0>         0.0810
     35 H6          5.5531   -4.0374  -10.9349 H         1 <0>         0.0677
     36 H7          5.7183   -2.3775  -11.5560 H         1 <0>         0.0676
     37 H8          7.8317   -2.1128  -10.2863 H         1 <0>         0.0716
     38 H9          7.6666   -3.7727   -9.6653 H         1 <0>         0.0716
     39 H10         3.9881   -1.6192   -7.4359 H         1 <0>         0.2105
     40 H11         7.5889   -1.1102   -5.1227 H         1 <0>         0.2032
     41 H12         3.5943    1.7132    1.3701 H         1 <0>         0.2312
     42 H13        -1.6997    1.6169    1.3558 H         1 <0>         0.0679
     43 H14        -0.1148    1.7795    2.1493 H         1 <0>         0.0619
     44 H15        -1.2456    3.8769    1.9819 H         1 <0>         0.3874
     45 H16        -1.9453   -0.2710   -0.4854 H         1 <0>         0.3888
     46 H17         0.7383   -1.9425   -1.7128 H         1 <0>         0.3919
     47 H18         8.2203    1.3653   -0.6758 H         1 <0>         0.3762
     48 H19         8.8605    0.1534   -1.4045 H         1 <0>         0.3779
@<TRIPOS>BOND
     1    1    2 1
     2    1   34 1
     3    1   35 1
     4    1   36 1
     5    2    3 1
     6    2   37 1
     7    2   38 1
     8    3    4 1
     9    4    5 2
    10    4    6 1
    11    6   10 2
    12    6    7 1
    13    7    8 2
    14    7   39 1
    15    8    9 1
    16    9   10 1
    17    9   11 1
    18   10   40 1
    19   11   16 ar
    20   11   12 ar
    21   12   13 ar
    22   13   14 ar
    23   13   33 1
    24   14   19 1
    25   14   15 ar
    26   15   16 ar
    27   15   17 1
    28   17   18 1
    29   17   20 1
    30   18   19 2
    31   18   41 1
    32   20   21 1
    33   20   28 1
    34   20   22 1
    35   22   23 1
    36   22   24 1
    37   22   32 1
    38   24   25 1
    39   24   26 1
    40   24   31 1
    41   26   27 1
    42   26   28 1
    43   26   29 1
    44   29   30 1
    45   29   42 1
    46   29   43 1
    47   30   44 1
    48   31   45 1
    49   32   46 1
    50   33   47 1
    51   33   48 1
@<TRIPOS>MOLECULE
ZINC13819003
   53    56     0     0     0
SMALL
USER_CHARGES
(2R,3R,4S,5R)-2-[6-amino-2-((N'Z)-N'-(cyclohexylmethylene)hydrazino)purin-9-yl]-5-(hydroxymethyl)tetrahydrofuran-3,4-diol
@<TRIPOS>ATOM
      1 C1          1.5931   -6.6713   -0.5131 C.2       1 <0>         0.2576
      2 N1          0.3388   -6.3362   -0.4293 N.2       1 <0>        -0.4445
      3 C2          0.2373   -4.9878   -0.3336 C.ar      1 <0>        -0.1074
      4 C3         -0.8345   -4.0847   -0.2209 C.ar      1 <0>         0.4783
      5 N2         -0.5657   -2.7868   -0.1411 N.ar      1 <0>        -0.5758
      6 C4          0.6843   -2.3415   -0.1772 C.ar      1 <0>         0.6323
      7 N3          1.7215   -3.1564   -0.2827 N.ar      1 <0>        -0.5771
      8 C5          1.5431   -4.4712   -0.3625 C.ar      1 <0>         0.3483
      9 N4          2.3767   -5.5550   -0.4762 N.pl3     1 <0>        -0.4744
     10 C6          3.8396   -5.5200   -0.5459 C.3       1 <0>         0.3177
     11 H1          4.1744   -4.6655   -1.1340 H         1 <0>         0.1210
     12 C7          4.4530   -5.4773    0.8769 C.3       1 <0>         0.0776
     13 H2          3.8790   -6.0960    1.5667 H         1 <0>         0.0909
     14 C8          5.8617   -6.0744    0.6407 C.3       1 <0>         0.0450
     15 H3          6.1350   -6.7421    1.4578 H         1 <0>         0.0880
     16 C9          5.7221   -6.8624   -0.6761 C.3       1 <0>         0.0530
     17 H4          6.3801   -6.4373   -1.4340 H         1 <0>         0.0988
     18 O1          4.3520   -6.7524   -1.0967 O.3       1 <0>        -0.3470
     19 C10         6.0783   -8.3321   -0.4432 C.3       1 <0>         0.0769
     20 O2          6.0591   -9.0302   -1.6899 O.3       1 <0>        -0.5628
     21 O3          6.8294   -5.0324    0.4998 O.3       1 <0>        -0.5361
     22 O4          4.5422   -4.1332    1.3536 O.3       1 <0>        -0.5210
     23 N5          0.9112   -0.9768   -0.0959 N.pl3     1 <0>        -0.5490
     24 N6         -0.1697   -0.0925    0.0164 N.2       1 <0>        -0.2099
     25 C11         0.0318    1.1714   -0.0114 C.2       1 <0>         0.0703
     26 C12         1.4391    1.7095   -0.0443 C.3       1 <0>        -0.0949
     27 C13         1.7215    2.4781    1.2481 C.3       1 <0>        -0.1058
     28 C14         3.1503    3.0244    1.2147 C.3       1 <0>        -0.1206
     29 C15         3.3092    3.9638    0.0176 C.3       1 <0>        -0.1210
     30 C16         3.0268    3.1952   -1.2748 C.3       1 <0>        -0.1211
     31 C17         1.5980    2.6489   -1.2414 C.3       1 <0>        -0.1070
     32 N7         -2.1410   -4.5391   -0.1882 N.pl3     1 <0>        -0.7399
     33 H5          1.9599   -7.6835   -0.5988 H         1 <0>         0.2235
     34 H6          7.0738   -8.3995   -0.0043 H         1 <0>         0.0659
     35 H7          5.3513   -8.7791    0.2348 H         1 <0>         0.0596
     36 H8          6.2762   -9.9698   -1.6179 H         1 <0>         0.3862
     37 H9          7.7304   -5.3499    0.3498 H         1 <0>         0.3858
     38 H10         4.9199   -4.0546    2.2403 H         1 <0>         0.3863
     39 H11         1.8183   -0.6338   -0.1167 H         1 <0>         0.4032
     40 H12        -0.8068    1.8519   -0.0158 H         1 <0>         0.1817
     41 H13         2.1425    0.8819   -0.1359 H         1 <0>         0.0713
     42 H14         1.0181    3.3057    1.3398 H         1 <0>         0.0727
     43 H15         1.6083    1.8089    2.1010 H         1 <0>         0.0630
     44 H16         3.8537    2.1968    1.1231 H         1 <0>         0.0614
     45 H17         3.3515    3.5720    2.1355 H         1 <0>         0.0657
     46 H18         4.3271    4.3530   -0.0062 H         1 <0>         0.0623
     47 H19         2.6058    4.7914    0.1093 H         1 <0>         0.0642
     48 H20         3.7302    2.3676   -1.3665 H         1 <0>         0.0613
     49 H21         3.1400    3.8645   -2.1277 H         1 <0>         0.0656
     50 H22         1.3968    2.1013   -2.1622 H         1 <0>         0.0640
     51 H23         0.8946    3.4765   -1.1498 H         1 <0>         0.0725
     52 H24        -2.3416   -5.0379   -1.0314 H         1 <0>         0.3705
     53 H25        -2.8726   -3.9070   -0.1102 H         1 <0>         0.3734
@<TRIPOS>BOND
     1    1    9 1
     2    1    2 2
     3    1   33 1
     4    2    3 1
     5    3    8 ar
     6    3    4 ar
     7    4    5 ar
     8    4   32 1
     9    5    6 ar
    10    6    7 ar
    11    6   23 1
    12    7    8 ar
    13    8    9 1
    14    9   10 1
    15   10   11 1
    16   10   18 1
    17   10   12 1
    18   12   13 1
    19   12   14 1
    20   12   22 1
    21   14   15 1
    22   14   16 1
    23   14   21 1
    24   16   17 1
    25   16   18 1
    26   16   19 1
    27   19   20 1
    28   19   34 1
    29   19   35 1
    30   20   36 1
    31   21   37 1
    32   22   38 1
    33   23   24 1
    34   23   39 1
    35   24   25 2
    36   25   26 1
    37   25   40 1
    38   26   31 1
    39   26   27 1
    40   26   41 1
    41   27   28 1
    42   27   42 1
    43   27   43 1
    44   28   29 1
    45   28   44 1
    46   28   45 1
    47   29   30 1
    48   29   46 1
    49   29   47 1
    50   30   31 1
    51   30   48 1
    52   30   49 1
    53   31   50 1
    54   31   51 1
    55   32   52 1
    56   32   53 1
@<TRIPOS>MOLECULE
ZINC15880093
   34    36     0     0     0
SMALL
USER_CHARGES

@<TRIPOS>ATOM
      1 C1         -0.0178    1.4608    0.0101 C.3       1 <0>         0.0854
      2 N1          0.0021   -0.0041    0.0020 N.am      1 <0>        -0.5106
      3 C2         -1.1889   -0.7120    0.0039 C.2       1 <0>         0.3238
      4 C3         -1.1437   -2.1005   -0.0039 C.2       1 <0>        -0.1540
      5 C4          0.1107   -2.7476   -0.0134 C.2       1 <0>         0.5938
      6 O1          0.1765   -3.9638   -0.0207 O.2       1 <0>        -0.5125
      7 N2          1.2361   -2.0032   -0.0148 N.am      1 <0>        -0.5511
      8 C5          1.1776   -0.6603   -0.0127 C.2       1 <0>         0.7080
      9 O2          2.2126   -0.0219   -0.0196 O.2       1 <0>        -0.5321
     10 C6          2.5413   -2.6685   -0.0246 C.3       1 <0>         0.0833
     11 N3         -2.4557   -2.5297    0.0001 N.pl3     1 <0>        -0.5129
     12 H1         -2.7618   -3.4502   -0.0030 H         1 <0>         0.4351
     13 C7         -3.2306   -1.4275    0.0098 C.2       1 <0>         0.3086
     14 N4         -2.4766   -0.3579    0.0120 N.2       1 <0>        -0.4911
     15 C8         -4.7376   -1.4266    0.0162 C.3       1 <0>        -0.0169
     16 C9         -5.2635   -2.6576    0.7829 C.3       1 <0>        -0.1247
     17 C10        -6.5224   -3.0893   -0.0094 C.3       1 <0>        -0.1243
     18 C11        -6.1023   -2.8421   -1.4796 C.3       1 <0>        -0.1289
     19 C12        -5.2709   -1.5439   -1.4224 C.3       1 <0>        -0.1171
     20 H2          1.0048    1.8381    0.0023 H         1 <0>         0.1034
     21 H3         -0.5450    1.8219   -0.8730 H         1 <0>         0.0796
     22 H4         -0.5280    1.8123    0.9069 H         1 <0>         0.0799
     23 H5          2.8601   -2.8279   -1.0547 H         1 <0>         0.0772
     24 H6          3.2716   -2.0434    0.4891 H         1 <0>         0.0972
     25 H7          2.4632   -3.6292    0.4844 H         1 <0>         0.0953
     26 H8         -5.1081   -0.5116    0.4783 H         1 <0>         0.1182
     27 H9         -4.5198   -3.4544    0.7812 H         1 <0>         0.0624
     28 H10        -5.5302   -2.3856    1.8042 H         1 <0>         0.0826
     29 H11        -6.7412   -4.1439    0.1577 H         1 <0>         0.0739
     30 H12        -7.3782   -2.4691    0.2573 H         1 <0>         0.0763
     31 H13        -5.4941   -3.6687   -1.8467 H         1 <0>         0.0666
     32 H14        -6.9812   -2.7047   -2.1096 H         1 <0>         0.0745
     33 H15        -5.9010   -0.6863   -1.6581 H         1 <0>         0.0826
     34 H16        -4.4397   -1.6015   -2.1252 H         1 <0>         0.0685
@<TRIPOS>BOND
     1    1    2 1
     2    1   20 1
     3    1   21 1
     4    1   22 1
     5    2    8 am
     6    2    3 1
     7    3   14 1
     8    3    4 2
     9    4    5 1
    10    4   11 1
    11    5    6 2
    12    5    7 am
    13    7    8 am
    14    7   10 1
    15    8    9 2
    16   10   23 1
    17   10   24 1
    18   10   25 1
    19   11   12 1
    20   11   13 1
    21   13   14 2
    22   13   15 1
    23   15   19 1
    24   15   16 1
    25   15   26 1
    26   16   17 1
    27   16   27 1
    28   16   28 1
    29   17   18 1
    30   17   29 1
    31   17   30 1
    32   18   19 1
    33   18   31 1
    34   18   32 1
    35   19   33 1
    36   19   34 1
@<TRIPOS>MOLECULE
ZINC26972070
   52    56     0     0     0
SMALL
USER_CHARGES
benzyl-phenyl-propoxy-BLAH
@<TRIPOS>ATOM
      1 C1          3.2588    0.5339    8.2821 C.3       1 <0>        -0.1510
      2 C2          2.5051    0.2831    6.9744 C.3       1 <0>        -0.1267
      3 C3          2.1630    1.6221    6.3180 C.3       1 <0>         0.0765
      4 O1          1.4591    1.3878    5.0967 O.3       1 <0>        -0.3008
      5 C4          1.0815    2.4735    4.3890 C.2       1 <0>         0.6330
      6 N1          1.3778    3.6581    4.8560 N.2       1 <0>        -0.5924
      7 C5          1.0372    4.7851    4.2113 C.2       1 <0>         0.3716
      8 C6          0.3424    4.7062    2.9992 C.2       1 <0>        -0.2817
      9 C7          0.1199    6.0201    2.5530 C.2       1 <0>         0.1357
     10 N2          0.6385    6.8431    3.4244 N.2       1 <0>        -0.2746
     11 N3          1.2176    6.1117    4.4692 N.pl3     1 <0>        -0.3085
     12 C8          1.8685    6.6500    5.5864 C.ar      1 <0>         0.1509
     13 C9          1.7596    6.0267    6.8226 C.ar      1 <0>        -0.1120
     14 C10         2.4078    6.5566    7.9210 C.ar      1 <0>        -0.1018
     15 C11         3.1545    7.7135    7.7934 C.ar      1 <0>        -0.1182
     16 C12         3.2602    8.3397    6.5651 C.ar      1 <0>        -0.1034
     17 C13         2.6195    7.8114    5.4615 C.ar      1 <0>        -0.1075
     18 C14         0.0051    3.3722    2.4684 C.2       1 <0>         0.4420
     19 N4         -0.6285    3.0386    1.3762 N.2       1 <0>        -0.5243
     20 C15        -0.7288    1.5792    1.2668 C.3       1 <0>         0.0594
     21 H1         -1.7822    1.2723    1.1880 H         1 <0>         0.1101
     22 C16        -0.0193    1.0578    2.5304 C.3       1 <0>         0.0774
     23 N5          0.4062    2.2867    3.2185 N.pl3     1 <0>        -0.5506
     24 C17        -0.0127    1.0858    0.0080 C.3       1 <0>        -0.0727
     25 C18        -0.7416    1.5850   -1.2129 C.ar      1 <0>        -0.0754
     26 C19        -1.7499    0.8246   -1.7750 C.ar      1 <0>        -0.1192
     27 C20        -2.4220    1.2850   -2.8918 C.ar      1 <0>        -0.1223
     28 C21        -2.0785    2.5007   -3.4529 C.ar      1 <0>        -0.1227
     29 C22        -1.0663    3.2585   -2.8942 C.ar      1 <0>        -0.1206
     30 C23        -0.3980    2.8008   -1.7740 C.ar      1 <0>        -0.0910
     31 H2          3.5047   -0.4288    8.7540 H         1 <0>         0.0686
     32 H3          2.6272    1.1247    8.9618 H         1 <0>         0.0608
     33 H4          4.1863    1.0861    8.0706 H         1 <0>         0.0610
     34 H5          3.1367   -0.3077    6.2947 H         1 <0>         0.0759
     35 H6          1.5776   -0.2692    7.1859 H         1 <0>         0.0758
     36 H7          1.5314    2.2129    6.9977 H         1 <0>         0.0791
     37 H8          3.0905    2.1744    6.1065 H         1 <0>         0.0802
     38 H9         -0.3918    6.3012    1.6445 H         1 <0>         0.2017
     39 H10         1.1726    5.1258    6.9238 H         1 <0>         0.1326
     40 H11         2.3277    6.0694    8.8815 H         1 <0>         0.1323
     41 H12         3.6565    8.1286    8.6549 H         1 <0>         0.1297
     42 H13         3.8448    9.2427    6.4685 H         1 <0>         0.1332
     43 H14         2.7028    8.3008    4.5024 H         1 <0>         0.1343
     44 H15        -0.7265    0.4660    3.1302 H         1 <0>         0.1005
     45 H16         0.8323    0.4257    2.2384 H         1 <0>         0.1016
     46 H17         1.0193    1.4666    0.0002 H         1 <0>         0.0730
     47 H18         0.0023   -0.0141    0.0019 H         1 <0>         0.0840
     48 H19        -2.0153   -0.1273   -1.3392 H         1 <0>         0.1186
     49 H20        -3.2130    0.6931   -3.3281 H         1 <0>         0.1195
     50 H21        -2.6011    2.8587   -4.3276 H         1 <0>         0.1191
     51 H22        -0.7979    4.2083   -3.3326 H         1 <0>         0.1199
     52 H23         0.3927    3.3928   -1.3375 H         1 <0>         0.1190
@<TRIPOS>BOND
     1    1    2 1
     2    1   31 1
     3    1   32 1
     4    1   33 1
     5    2    3 1
     6    2   34 1
     7    2   35 1
     8    3    4 1
     9    3   36 1
    10    3   37 1
    11    4    5 1
    12    5   23 1
    13    5    6 2
    14    6    7 1
    15    7   11 1
    16    7    8 2
    17    8    9 1
    18    8   18 1
    19    9   10 2
    20    9   38 1
    21   10   11 1
    22   11   12 1
    23   12   17 ar
    24   12   13 ar
    25   13   14 ar
    26   13   39 1
    27   14   15 ar
    28   14   40 1
    29   15   16 ar
    30   15   41 1
    31   16   17 ar
    32   16   42 1
    33   17   43 1
    34   18   23 1
    35   18   19 2
    36   19   20 1
    37   20   21 1
    38   20   22 1
    39   20   24 1
    40   22   23 1
    41   22   44 1
    42   22   45 1
    43   24   25 1
    44   24   46 1
    45   24   47 1
    46   25   30 ar
    47   25   26 ar
    48   26   27 ar
    49   26   48 1
    50   27   28 ar
    51   27   49 1
    52   28   29 ar
    53   28   50 1
    54   29   30 ar
    55   29   51 1
    56   30   52 1
@<TRIPOS>MOLECULE
ZINC02004584
   57    58     0     0     0
SMALL
USER_CHARGES

@<TRIPOS>ATOM
      1 C1         -0.2067    1.5669   -0.3181 C.3       1 <0>        -0.1502
      2 C2         -0.1345    0.0387   -0.3085 C.3       1 <0>        -0.1222
      3 C3         -1.5233   -0.5357   -0.0220 C.3       1 <0>        -0.1035
      4 C4         -1.4522   -2.0410   -0.0125 C.ar      1 <0>         0.0530
      5 C5         -1.6477   -2.7760   -1.1858 C.ar      1 <0>        -0.1894
      6 C6         -1.5736   -4.1712   -1.1378 C.ar      1 <0>         0.2086
      7 N1         -1.3237   -4.7986   -0.0092 N.ar      1 <0>        -0.4658
      8 C7         -1.1313   -4.1452    1.1291 C.ar      1 <0>         0.2443
      9 C8         -1.1837   -2.7382    1.1668 C.ar      1 <0>        -0.1596
     10 C9         -0.9633   -2.0134    2.4326 C.2       1 <0>         0.5318
     11 O1         -1.9126   -1.6601    3.1036 O.2       1 <0>        -0.4876
     12 O2          0.2908   -1.7431    2.8446 O.3       1 <0>        -0.3371
     13 C10         0.4300   -1.0381    4.0798 C.3       1 <0>         0.0615
     14 C11         1.9149   -0.8244    4.3804 C.3       1 <0>        -0.1231
     15 C12         2.0640   -0.0695    5.7028 C.3       1 <0>        -0.1505
     16 C13        -0.8534   -4.9018    2.3706 C.ar      1 <0>        -0.0678
     17 C14        -1.4981   -4.5584    3.5594 C.ar      1 <0>        -0.1044
     18 C15        -1.2347   -5.2676    4.7132 C.ar      1 <0>        -0.1182
     19 C16        -0.3331   -6.3168    4.6932 C.ar      1 <0>        -0.0993
     20 C17         0.3098   -6.6620    3.5176 C.ar      1 <0>        -0.1221
     21 C18         0.0500   -5.9649    2.3556 C.ar      1 <0>        -0.0691
     22 C19        -1.7838   -4.9690   -2.3989 C.3       1 <0>        -0.0878
     23 C20        -0.4408   -5.1734   -3.1029 C.3       1 <0>        -0.1482
     24 C21        -1.9296   -2.0863   -2.4613 C.2       1 <0>         0.4149
     25 O3         -1.0132   -1.7542   -3.1886 O.2       1 <0>        -0.4208
     26 S1         -3.5937   -1.7448   -2.9291 S.3       1 <0>        -0.1659
     27 C22        -3.4364   -0.9077   -4.5307 C.3       1 <0>        -0.0954
     28 C23        -4.8274   -0.5502   -5.0581 C.3       1 <0>        -0.1393
     29 H1          0.7827    1.9762   -0.5222 H         1 <0>         0.0620
     30 H2         -0.9015    1.8930   -1.0921 H         1 <0>         0.0565
     31 H3         -0.5528    1.9205    0.6531 H         1 <0>         0.0568
     32 H4          0.2116   -0.3148   -1.2797 H         1 <0>         0.0716
     33 H5          0.5603   -0.2874    0.4655 H         1 <0>         0.0711
     34 H6         -1.8695   -0.1822    0.9493 H         1 <0>         0.0895
     35 H7         -2.2181   -0.2097   -0.7960 H         1 <0>         0.0891
     36 H8         -0.0682   -0.0716    4.0046 H         1 <0>         0.0708
     37 H9         -0.0233   -1.6191    4.8829 H         1 <0>         0.0716
     38 H10         2.4132   -1.7909    4.4556 H         1 <0>         0.0752
     39 H11         2.3683   -0.2434    3.5773 H         1 <0>         0.0746
     40 H12         1.5658    0.8970    5.6277 H         1 <0>         0.0587
     41 H13         1.6107   -0.6505    6.5060 H         1 <0>         0.0590
     42 H14         3.1219    0.0827    5.9170 H         1 <0>         0.0668
     43 H15        -2.2015   -3.7391    3.5765 H         1 <0>         0.1335
     44 H16        -1.7330   -5.0028    5.6341 H         1 <0>         0.1292
     45 H17        -0.1300   -6.8687    5.5991 H         1 <0>         0.1280
     46 H18         1.0130   -7.4816    3.5086 H         1 <0>         0.1304
     47 H19         0.5486   -6.2386    1.4375 H         1 <0>         0.1306
     48 H20        -2.2138   -5.9386   -2.1480 H         1 <0>         0.0995
     49 H21        -2.4626   -4.4307   -3.0604 H         1 <0>         0.0841
     50 H22        -0.0108   -4.2037   -3.3538 H         1 <0>         0.0598
     51 H23         0.2379   -5.7117   -2.4414 H         1 <0>         0.0643
     52 H24        -0.5929   -5.7504   -4.0151 H         1 <0>         0.0707
     53 H25        -2.8491    0.0024   -4.4088 H         1 <0>         0.0948
     54 H26        -2.9383   -1.5696   -5.2392 H         1 <0>         0.0957
     55 H27        -5.4148   -1.4603   -5.1799 H         1 <0>         0.0691
     56 H28        -5.3256    0.1116   -4.3496 H         1 <0>         0.0686
     57 H29        -4.7329   -0.0473   -6.0205 H         1 <0>         0.0814
@<TRIPOS>BOND
     1    1    2 1
     2    1   29 1
     3    1   30 1
     4    1   31 1
     5    2    3 1
     6    2   32 1
     7    2   33 1
     8    3    4 1
     9    3   34 1
    10    3   35 1
    11    4    9 ar
    12    4    5 ar
    13    5    6 ar
    14    5   24 1
    15    6    7 ar
    16    6   22 1
    17    7    8 ar
    18    8    9 ar
    19    8   16 1
    20    9   10 1
    21   10   11 2
    22   10   12 1
    23   12   13 1
    24   13   14 1
    25   13   36 1
    26   13   37 1
    27   14   15 1
    28   14   38 1
    29   14   39 1
    30   15   40 1
    31   15   41 1
    32   15   42 1
    33   16   21 ar
    34   16   17 ar
    35   17   18 ar
    36   17   43 1
    37   18   19 ar
    38   18   44 1
    39   19   20 ar
    40   19   45 1
    41   20   21 ar
    42   20   46 1
    43   21   47 1
    44   22   23 1
    45   22   48 1
    46   22   49 1
    47   23   50 1
    48   23   51 1
    49   23   52 1
    50   24   25 2
    51   24   26 1
    52   26   27 1
    53   27   28 1
    54   27   53 1
    55   27   54 1
    56   28   55 1
    57   28   56 1
    58   28   57 1
@<TRIPOS>MOLECULE
ZINC00001084
   24    25     0     0     0
SMALL
USER_CHARGES

@<TRIPOS>ATOM
      1 C1         -0.0178    1.4608    0.0101 C.3       1 <0>         0.0684
      2 N1          0.0021   -0.0041    0.0020 N.pl3     1 <0>        -0.4126
      3 C2          0.0085   -0.7996   -1.0853 C.2       1 <0>         0.2683
      4 N2          0.0275   -2.0544   -0.7142 N.2       1 <0>        -0.4991
      5 C3          0.0343   -2.1318    0.6190 C.2       1 <0>         0.3175
      6 C4          0.0238   -0.8312    1.1071 C.2       1 <0>        -0.1559
      7 C5          0.0338   -0.6202    2.5028 C.2       1 <0>         0.5949
      8 O1          0.0219    0.5106    2.9550 O.2       1 <0>        -0.5132
      9 N3          0.0564   -1.6860    3.3300 N.am      1 <0>        -0.5520
     10 C6          0.0693   -2.9392    2.8440 C.2       1 <0>         0.7070
     11 O2          0.0891   -3.8755    3.6197 O.2       1 <0>        -0.5319
     12 N4          0.0527   -3.1841    1.5201 N.am      1 <0>        -0.5109
     13 C7          0.0693   -4.5651    1.0316 C.3       1 <0>         0.0891
     14 C8          0.0674   -1.4741    4.7795 C.3       1 <0>         0.0836
     15 H1          1.0048    1.8381    0.0023 H         1 <0>         0.0879
     16 H2         -0.5450    1.8219   -0.8730 H         1 <0>         0.0987
     17 H3         -0.5280    1.8123    0.9069 H         1 <0>         0.1006
     18 H4         -0.0012   -0.4540   -2.1085 H         1 <0>         0.2318
     19 H5          1.1010   -4.8936    0.9058 H         1 <0>         0.0732
     20 H6         -0.4324   -5.2114    1.7518 H         1 <0>         0.0936
     21 H7         -0.4482   -4.6180    0.0738 H         1 <0>         0.0925
     22 H8         -0.9574   -1.4357    5.1489 H         1 <0>         0.0769
     23 H9          0.5971   -2.2951    5.2627 H         1 <0>         0.0968
     24 H10         0.5705   -0.5340    5.0055 H         1 <0>         0.0949
@<TRIPOS>BOND
     1    1    2 1
     2    1   15 1
     3    1   16 1
     4    1   17 1
     5    2    6 1
     6    2    3 1
     7    3    4 2
     8    3   18 1
     9    4    5 1
    10    5   12 1
    11    5    6 2
    12    6    7 1
    13    7    8 2
    14    7    9 am
    15    9   10 am
    16    9   14 1
    17   10   11 2
    18   10   12 am
    19   12   13 1
    20   13   19 1
    21   13   20 1
    22   13   21 1
    23   14   22 1
    24   14   23 1
    25   14   24 1
@<TRIPOS>MOLECULE
ZINC00005258
   41    44     0     0     0
SMALL
USER_CHARGES

@<TRIPOS>ATOM
      1 C1         -0.0162    1.3434    0.0094 C.2       1 <0>        -0.2218
      2 C2          1.3251    1.7745   -0.0011 C.2       1 <0>        -0.0887
      3 C3          2.0961    0.6548   -0.0144 C.2       1 <0>        -0.0062
      4 O1          1.2796   -0.4166   -0.0124 O.3       1 <0>        -0.1583
      5 C4          0.0021   -0.0041    0.0020 C.2       1 <0>         0.0256
      6 C5          3.5734    0.6193   -0.0287 C.2       1 <0>         0.4157
      7 N1          4.3742    1.6925   -0.0248 N.2       1 <0>        -0.4645
      8 C6          5.6386    1.3040   -0.0409 C.2       1 <0>         0.5441
      9 N2          6.8046    1.9657   -0.0448 N.2       1 <0>        -0.5016
     10 C7          7.9464    1.2979   -0.0627 C.2       1 <0>         0.6561
     11 N3          7.9670   -0.0378   -0.0777 N.pl3     1 <0>        -0.5981
     12 C8          6.8416   -0.7289   -0.0744 C.cat     1 <0>         0.7695
     13 N4          5.6489   -0.0664   -0.0556 N.pl3     1 <0>        -0.4039
     14 N5          4.3107   -0.4751   -0.0417 N.2       1 <0>        -0.2939
     15 N6          6.8714   -2.0989   -0.0903 N.pl3     1 <0>        -0.7459
     16 N7          9.1377    1.9935   -0.0665 N.pl3     1 <0>        -0.6525
     17 C9          9.1306    3.4584   -0.0508 C.3       1 <0>         0.1217
     18 C10        10.5705    3.9755   -0.0588 C.3       1 <0>        -0.0898
     19 C11        10.5632    5.4824   -0.0426 C.ar      1 <0>        -0.1082
     20 C12        10.5428    6.1853   -1.2331 C.ar      1 <0>        -0.0920
     21 C13        10.5366    7.5667   -1.2210 C.ar      1 <0>        -0.1431
     22 C14        10.5502    8.2486   -0.0129 C.ar      1 <0>         0.1179
     23 C15        10.5702    7.5411    1.1802 C.ar      1 <0>        -0.1430
     24 C16        10.5712    6.1597    1.1628 C.ar      1 <0>        -0.0920
     25 O2         10.5445    9.6076    0.0017 O.3       1 <0>        -0.4985
     26 H1         -0.8931    1.9737    0.0252 H         1 <0>         0.1685
     27 H2          1.6734    2.7967    0.0008 H         1 <0>         0.1702
     28 H3         -0.8667   -0.6456    0.0069 H         1 <0>         0.2226
     29 H4          7.7217   -2.5654   -0.1039 H         1 <0>         0.4476
     30 H5          6.0421   -2.6021   -0.0878 H         1 <0>         0.4601
     31 H6          9.9800    1.5127   -0.0796 H         1 <0>         0.4298
     32 H7          8.6066    3.8287   -0.9319 H         1 <0>         0.0992
     33 H8          8.6234    3.8096    0.8478 H         1 <0>         0.0992
     34 H9         11.0945    3.6052    0.8223 H         1 <0>         0.0876
     35 H10        11.0777    3.6243   -0.9574 H         1 <0>         0.0877
     36 H11        10.5322    5.6540   -2.1733 H         1 <0>         0.1282
     37 H12        10.5214    8.1153   -2.1511 H         1 <0>         0.1332
     38 H13        10.5809    8.0697    2.1220 H         1 <0>         0.1332
     39 H14        10.5822    5.6084    2.0914 H         1 <0>         0.1282
     40 H15         9.6596    9.9970    0.0181 H         1 <0>         0.3968
     41 H16         8.8171   -0.5047   -0.0913 H         1 <0>         0.4591
@<TRIPOS>BOND
     1    1    5 2
     2    1    2 1
     3    1   26 1
     4    2    3 2
     5    2   27 1
     6    3    4 1
     7    3    6 1
     8    4    5 1
     9    5   28 1
    10    6   14 2
    11    6    7 1
    12    7    8 2
    13    8   13 1
    14    8    9 1
    15    9   10 2
    16   10   11 1
    17   10   16 1
    18   11   12 2
    19   11   41 1
    20   12   13 1
    21   12   15 1
    22   13   14 1
    23   15   29 1
    24   15   30 1
    25   16   17 1
    26   16   31 1
    27   17   18 1
    28   17   32 1
    29   17   33 1
    30   18   19 1
    31   18   34 1
    32   18   35 1
    33   19   24 ar
    34   19   20 ar
    35   20   21 ar
    36   20   36 1
    37   21   22 ar
    38   21   37 1
    39   22   23 ar
    40   22   25 1
    41   23   24 ar
    42   23   38 1
    43   24   39 1
    44   25   40 1
@<TRIPOS>MOLECULE
ZINC09229229
   37    39     0     0     0
SMALL
USER_CHARGES

@<TRIPOS>ATOM
      1 C1         -0.0187    1.5258    0.0104 C.3       1 <0>        -0.1680
      2 C2          0.0021   -0.0041    0.0020 C.3       1 <0>         0.1152
      3 N1          0.6878   -0.4765   -1.2033 N.am      1 <0>        -0.5082
      4 C3         -0.0334   -0.7052   -2.3651 C.2       1 <0>         0.3290
      5 C4          0.6423   -1.1532   -3.4958 C.2       1 <0>        -0.1457
      6 C5          2.0362   -1.3610   -3.4264 C.2       1 <0>         0.5940
      7 O1          2.6500   -1.7525   -4.4030 O.2       1 <0>        -0.5110
      8 N2          2.6815   -1.1207   -2.2662 N.am      1 <0>        -0.5483
      9 C6          2.0179   -0.6826   -1.1826 C.2       1 <0>         0.7080
     10 O2          2.6341   -0.4721   -0.1556 O.2       1 <0>        -0.5290
     11 C7          4.1286   -1.3351   -2.1880 C.3       1 <0>         0.1102
     12 C8          4.8567   -0.0443   -2.5684 C.3       1 <0>        -0.1672
     13 N3         -0.3074   -1.2946   -4.4889 N.pl3     1 <0>        -0.5144
     14 H1         -0.1525   -1.5921   -5.3991 H         1 <0>         0.4365
     15 C9         -1.5027   -0.9366   -3.9443 C.2       1 <0>         0.3420
     16 N4         -1.3216   -0.5903   -2.6853 N.2       1 <0>        -0.4822
     17 C10        -2.7998   -0.9359   -4.6534 C.ar      1 <0>        -0.0386
     18 C11        -2.8676   -1.3299   -5.9908 C.ar      1 <0>        -0.0983
     19 C12        -4.0813   -1.3274   -6.6466 C.ar      1 <0>        -0.1167
     20 C13        -5.2296   -0.9352   -5.9818 C.ar      1 <0>        -0.0959
     21 C14        -5.1693   -0.5436   -4.6561 C.ar      1 <0>        -0.1189
     22 C15        -3.9628   -0.5469   -3.9870 C.ar      1 <0>        -0.0637
     23 H2          1.0039    1.9031    0.0027 H         1 <0>         0.0615
     24 H3         -0.5459    1.8868   -0.8726 H         1 <0>         0.0612
     25 H4         -0.5289    1.8773    0.9072 H         1 <0>         0.0787
     26 H5          0.5293   -0.3651    0.8851 H         1 <0>         0.1011
     27 H6         -1.0205   -0.3814    0.0098 H         1 <0>         0.0989
     28 H7          4.3995   -1.6188   -1.1711 H         1 <0>         0.1038
     29 H8          4.4158   -2.1304   -2.8759 H         1 <0>         0.1018
     30 H9          4.5859    0.2395   -3.5854 H         1 <0>         0.0605
     31 H10         4.5696    0.7510   -1.8806 H         1 <0>         0.0627
     32 H11         5.9334   -0.2038   -2.5102 H         1 <0>         0.0801
     33 H12        -1.9720   -1.6356   -6.5111 H         1 <0>         0.1225
     34 H13        -4.1353   -1.6320   -7.6814 H         1 <0>         0.1325
     35 H14        -6.1772   -0.9344   -6.5000 H         1 <0>         0.1304
     36 H15        -6.0692   -0.2385   -4.1429 H         1 <0>         0.1340
     37 H16        -3.9177   -0.2449   -2.9510 H         1 <0>         0.1415
@<TRIPOS>BOND
     1    1    2 1
     2    1   23 1
     3    1   24 1
     4    1   25 1
     5    2    3 1
     6    2   26 1
     7    2   27 1
     8    3    9 am
     9    3    4 1
    10    4   16 1
    11    4    5 2
    12    5    6 1
    13    5   13 1
    14    6    7 2
    15    6    8 am
    16    8    9 am
    17    8   11 1
    18    9   10 2
    19   11   12 1
    20   11   28 1
    21   11   29 1
    22   12   30 1
    23   12   31 1
    24   12   32 1
    25   13   14 1
    26   13   15 1
    27   15   16 2
    28   15   17 1
    29   17   22 ar
    30   17   18 ar
    31   18   19 ar
    32   18   33 1
    33   19   20 ar
    34   19   34 1
    35   20   21 ar
    36   20   35 1
    37   21   22 ar
    38   21   36 1
    39   22   37 1
@<TRIPOS>MOLECULE
ZINC03778381
   51    54     0     0     0
SMALL
USER_CHARGES
5-(6-cyclohexylaminopurin-9-yl)-2-(hydroxymethyl)-4-methoxy-tetrahydrofuran-3-ol
@<TRIPOS>ATOM
      1 C1          3.7742    2.8477    3.1314 C.3       1 <0>         0.0372
      2 O1          3.7988    2.4989    1.7459 O.3       1 <0>        -0.3432
      3 C2          3.0385    1.3317    1.4268 C.3       1 <0>         0.0605
      4 H1          2.2249    1.1981    2.1397 H         1 <0>         0.0906
      5 C3          3.9471    0.0801    1.4012 C.3       1 <0>         0.0594
      6 H2          3.5826   -0.6723    2.1006 H         1 <0>         0.0859
      7 C4          3.8383   -0.4335   -0.0516 C.3       1 <0>         0.0503
      8 H3          4.6575   -0.0438   -0.6560 H         1 <0>         0.1007
      9 O2          2.5743    0.0760   -0.5295 O.3       1 <0>        -0.3458
     10 C5          2.4869    1.4220   -0.0133 C.3       1 <0>         0.3085
     11 H4          3.0974    2.0983   -0.6118 H         1 <0>         0.1242
     12 N1          1.0932    1.8730    0.0017 N.pl3     1 <0>        -0.4733
     13 C6         -0.0126    1.0758    0.0080 C.2       1 <0>         0.2726
     14 N2         -1.0885    1.8079    0.0165 N.2       1 <0>        -0.4536
     15 C7         -0.7426    3.1177    0.0259 C.ar      1 <0>        -0.0664
     16 C8          0.6614    3.1753    0.0128 C.ar      1 <0>         0.3002
     17 N3          1.2592    4.3622    0.0131 N.ar      1 <0>        -0.5297
     18 C9          0.5494    5.4708    0.0255 C.ar      1 <0>         0.3457
     19 N4         -0.7709    5.4670    0.0385 N.ar      1 <0>        -0.5670
     20 C10        -1.4560    4.3281    0.0393 C.ar      1 <0>         0.4437
     21 N5         -2.8398    4.3343    0.0534 N.pl3     1 <0>        -0.5987
     22 C11        -3.5666    5.6062    0.0677 C.3       1 <0>         0.0921
     23 C12        -3.6958    6.1036    1.5088 C.3       1 <0>        -0.1054
     24 C13        -4.4548    7.4320    1.5237 C.3       1 <0>        -0.1178
     25 C14        -5.8491    7.2294    0.9272 C.3       1 <0>        -0.1222
     26 C15        -5.7199    6.7321   -0.5140 C.3       1 <0>        -0.1144
     27 C16        -4.9609    5.4037   -0.5289 C.3       1 <0>        -0.1236
     28 C17         3.8400   -1.9633   -0.0772 C.3       1 <0>         0.0819
     29 O3          3.7818   -2.4171   -1.4310 O.3       1 <0>        -0.5628
     30 O4          5.2972    0.4342    1.7074 O.3       1 <0>        -0.5311
     31 H5          4.1832    2.0266    3.7202 H         1 <0>         0.0469
     32 H6          4.3744    3.7435    3.2913 H         1 <0>         0.0934
     33 H7          2.7464    3.0392    3.4398 H         1 <0>         0.0373
     34 H8          0.0021   -0.0041    0.0020 H         1 <0>         0.2254
     35 H9          1.0665    6.4190    0.0253 H         1 <0>         0.2055
     36 H10        -3.1835    3.8688   -0.7622 H         1 <0>         0.3676
     37 H11        -3.0220    6.3425   -0.5234 H         1 <0>         0.0730
     38 H12        -4.2404    5.3673    2.0998 H         1 <0>         0.0661
     39 H13        -2.7025    6.2479    1.9338 H         1 <0>         0.0639
     40 H14        -3.9102    8.1683    0.9327 H         1 <0>         0.0634
     41 H15        -4.5469    7.7863    2.5504 H         1 <0>         0.0641
     42 H16        -6.3898    8.1758    0.9378 H         1 <0>         0.0632
     43 H17        -6.3937    6.4931    1.5182 H         1 <0>         0.0633
     44 H18        -5.1752    7.4684   -1.1050 H         1 <0>         0.0640
     45 H19        -6.7132    6.5878   -0.9390 H         1 <0>         0.0675
     46 H20        -4.8688    5.0493   -1.5556 H         1 <0>         0.0643
     47 H21        -5.5055    4.6674    0.0622 H         1 <0>         0.0755
     48 H22         4.7518   -2.3336    0.3912 H         1 <0>         0.0676
     49 H23         2.9736   -2.3367    0.4686 H         1 <0>         0.0603
     50 H24         3.7795   -3.3797   -1.5234 H         1 <0>         0.3865
     51 H25         5.9204   -0.3027    1.6474 H         1 <0>         0.3828
@<TRIPOS>BOND
     1    1    2 1
     2    1   31 1
     3    1   32 1
     4    1   33 1
     5    2    3 1
     6    3    4 1
     7    3   10 1
     8    3    5 1
     9    5    6 1
    10    5    7 1
    11    5   30 1
    12    7    8 1
    13    7    9 1
    14    7   28 1
    15    9   10 1
    16   10   11 1
    17   10   12 1
    18   12   16 1
    19   12   13 1
    20   13   14 2
    21   13   34 1
    22   14   15 1
    23   15   20 ar
    24   15   16 ar
    25   16   17 ar
    26   17   18 ar
    27   18   19 ar
    28   18   35 1
    29   19   20 ar
    30   20   21 1
    31   21   22 1
    32   21   36 1
    33   22   27 1
    34   22   23 1
    35   22   37 1
    36   23   24 1
    37   23   38 1
    38   23   39 1
    39   24   25 1
    40   24   40 1
    41   24   41 1
    42   25   26 1
    43   25   42 1
    44   25   43 1
    45   26   27 1
    46   26   44 1
    47   26   45 1
    48   27   46 1
    49   27   47 1
    50   28   29 1
    51   28   48 1
    52   28   49 1
    53   29   50 1
    54   30   51 1
@<TRIPOS>MOLECULE
ZINC27092697
   39    42     0     0     0
SMALL
USER_CHARGES

@<TRIPOS>ATOM
      1 C1         -0.0187    1.5258    0.0104 C.3       1 <0>        -0.1459
      2 C2          0.0021   -0.0041    0.0020 C.3       1 <0>        -0.1101
      3 C3          0.7182   -0.4975   -1.2568 C.3       1 <0>         0.0540
      4 H1          0.2641   -0.0635   -2.1476 H         1 <0>         0.1098
      5 C4          0.6832   -2.0350   -1.3288 C.3       1 <0>         0.1003
      6 N1          2.1056   -2.4144   -1.3000 N.am      1 <0>        -0.5744
      7 C5          2.8677   -1.2615   -1.2221 C.2       1 <0>         0.4219
      8 N2          2.1459   -0.1690   -1.1968 N.2       1 <0>        -0.5227
      9 C6          4.3294   -1.4157   -1.1821 C.2       1 <0>        -0.0419
     10 C7          4.8739   -2.6883   -1.2235 C.2       1 <0>         0.3051
     11 N3          6.2014   -2.5587   -1.1748 N.2       1 <0>        -0.4750
     12 C8          6.5227   -1.2825   -1.1054 C.2       1 <0>         0.3232
     13 N4          5.3839   -0.5331   -1.1073 N.pl3     1 <0>        -0.5201
     14 H2          5.3273    0.4343   -1.0641 H         1 <0>         0.4358
     15 C9          7.8993   -0.7483   -1.0359 C.ar      1 <0>        -0.0319
     16 C10         8.1139    0.6287   -0.9589 C.ar      1 <0>        -0.1008
     17 C11         9.4011    1.1206   -0.8939 C.ar      1 <0>        -0.1163
     18 C12        10.4782    0.2522   -0.9052 C.ar      1 <0>        -0.0992
     19 C13        10.2725   -1.1139   -0.9814 C.ar      1 <0>        -0.1183
     20 C14         8.9902   -1.6192   -1.0411 C.ar      1 <0>        -0.0670
     21 N5          4.0240   -3.7848   -1.3020 N.am      1 <0>        -0.5148
     22 C15         2.6916   -3.6253   -1.3363 C.2       1 <0>         0.7251
     23 O1          1.9865   -4.6137   -1.4044 O.2       1 <0>        -0.5447
     24 C16         4.5905   -5.1351   -1.3467 C.3       1 <0>         0.0920
     25 H3          1.0039    1.9031    0.0027 H         1 <0>         0.0628
     26 H4         -0.5459    1.8868   -0.8726 H         1 <0>         0.0547
     27 H5         -0.5289    1.8773    0.9072 H         1 <0>         0.0547
     28 H6          0.5293   -0.3651    0.8851 H         1 <0>         0.0640
     29 H7         -1.0205   -0.3814    0.0098 H         1 <0>         0.0755
     30 H8          0.1586   -2.4475   -0.4670 H         1 <0>         0.0974
     31 H9          0.2168   -2.3650   -2.2571 H         1 <0>         0.0966
     32 H10         7.2740    1.3077   -0.9507 H         1 <0>         0.1219
     33 H11         9.5685    2.1859   -0.8343 H         1 <0>         0.1314
     34 H12        11.4840    0.6424   -0.8548 H         1 <0>         0.1293
     35 H13        11.1175   -1.7864   -0.9898 H         1 <0>         0.1330
     36 H14         8.8308   -2.6860   -1.0960 H         1 <0>         0.1407
     37 H15         4.6979   -5.5178   -0.3318 H         1 <0>         0.0711
     38 H16         3.9272   -5.7887   -1.9132 H         1 <0>         0.0918
     39 H17         5.5677   -5.1033   -1.8284 H         1 <0>         0.0912
@<TRIPOS>BOND
     1    1    2 1
     2    1   25 1
     3    1   26 1
     4    1   27 1
     5    2    3 1
     6    2   28 1
     7    2   29 1
     8    3    4 1
     9    3    8 1
    10    3    5 1
    11    5    6 1
    12    5   30 1
    13    5   31 1
    14    6   22 am
    15    6    7 1
    16    7    8 2
    17    7    9 1
    18    9   13 1
    19    9   10 2
    20   10   11 1
    21   10   21 1
    22   11   12 2
    23   12   13 1
    24   12   15 1
    25   13   14 1
    26   15   20 ar
    27   15   16 ar
    28   16   17 ar
    29   16   32 1
    30   17   18 ar
    31   17   33 1
    32   18   19 ar
    33   18   34 1
    34   19   20 ar
    35   19   35 1
    36   20   36 1
    37   21   22 am
    38   21   24 1
    39   22   23 2
    40   24   37 1
    41   24   38 1
    42   24   39 1
@<TRIPOS>MOLECULE
ZINC27092697
   39    42     0     0     0
SMALL
USER_CHARGES

@<TRIPOS>ATOM
      1 C1         -0.0187    1.5258    0.0104 C.3       1 <0>        -0.1470
      2 C2          0.0021   -0.0041    0.0020 C.3       1 <0>        -0.1088
      3 C3          0.7421   -0.5109    1.2415 C.3       1 <0>         0.0484
      4 H1          1.7338   -0.0627    1.3026 H         1 <0>         0.1111
      5 C4          0.8455   -2.0470    1.2169 C.3       1 <0>         0.0995
      6 N1          0.1151   -2.4602    2.4271 N.am      1 <0>        -0.5777
      7 C5         -0.3496   -1.3275    3.0685 C.2       1 <0>         0.4223
      8 N2         -0.0286   -0.2191    2.4545 N.2       1 <0>        -0.4916
      9 C6         -1.1171   -1.5183    4.3185 C.2       1 <0>         0.0068
     10 C7         -1.3277   -2.8089    4.7761 C.2       1 <0>         0.2660
     11 N3         -2.0499   -2.6997    5.9257 N.pl3     1 <0>        -0.5511
     12 H2         -2.3559   -3.4313    6.4842 H         1 <0>         0.4289
     13 C8         -2.2646   -1.3626    6.1468 C.2       1 <0>         0.2675
     14 N4         -1.7036   -0.6722    5.1822 N.2       1 <0>        -0.3971
     15 C9         -3.0091   -0.7911    7.2894 C.ar      1 <0>        -0.0172
     16 C10        -3.5578   -1.6315    8.2592 C.ar      1 <0>        -0.1094
     17 C11        -4.2513   -1.0919    9.3228 C.ar      1 <0>        -0.1154
     18 C12        -4.4037    0.2791    9.4290 C.ar      1 <0>        -0.1058
     19 C13        -3.8622    1.1178    8.4711 C.ar      1 <0>        -0.1149
     20 C14        -3.1611    0.5913    7.4058 C.ar      1 <0>        -0.0729
     21 N5         -0.8222   -3.8748    4.0628 N.am      1 <0>        -0.5215
     22 C15        -0.1279   -3.6848    2.9296 C.2       1 <0>         0.7313
     23 O1          0.2980   -4.6561    2.3348 O.2       1 <0>        -0.5417
     24 C16        -1.0464   -5.2382    4.5499 C.3       1 <0>         0.0781
     25 H3          1.0039    1.9031    0.0027 H         1 <0>         0.0543
     26 H4         -0.5459    1.8868   -0.8726 H         1 <0>         0.0540
     27 H5         -0.5289    1.8773    0.9072 H         1 <0>         0.0664
     28 H6         -1.0205   -0.3814    0.0098 H         1 <0>         0.0641
     29 H7          0.5123   -0.3556   -0.8948 H         1 <0>         0.0742
     30 H8          0.3675   -2.4496    0.3239 H         1 <0>         0.0969
     31 H9          1.8875   -2.3624    1.2711 H         1 <0>         0.0961
     32 H10        -3.4400   -2.7019    8.1770 H         1 <0>         0.1179
     33 H11        -4.6764   -1.7412   10.0739 H         1 <0>         0.1292
     34 H12        -4.9481    0.6965   10.2632 H         1 <0>         0.1279
     35 H13        -3.9848    2.1871    8.5598 H         1 <0>         0.1322
     36 H14        -2.7348    1.2472    6.6613 H         1 <0>         0.1410
     37 H15        -1.9735   -5.6267    4.1283 H         1 <0>         0.0770
     38 H16        -0.2147   -5.8739    4.2461 H         1 <0>         0.1030
     39 H17        -1.1179   -5.2284    5.6375 H         1 <0>         0.0780
@<TRIPOS>BOND
     1    1    2 1
     2    1   25 1
     3    1   26 1
     4    1   27 1
     5    2    3 1
     6    2   28 1
     7    2   29 1
     8    3    4 1
     9    3    8 1
    10    3    5 1
    11    5    6 1
    12    5   30 1
    13    5   31 1
    14    6   22 am
    15    6    7 1
    16    7    8 2
    17    7    9 1
    18    9   14 1
    19    9   10 2
    20   10   11 1
    21   10   21 1
    22   11   12 1
    23   11   13 1
    24   13   14 2
    25   13   15 1
    26   15   20 ar
    27   15   16 ar
    28   16   17 ar
    29   16   32 1
    30   17   18 ar
    31   17   33 1
    32   18   19 ar
    33   18   34 1
    34   19   20 ar
    35   19   35 1
    36   20   36 1
    37   21   22 am
    38   21   24 1
    39   22   23 2
    40   24   37 1
    41   24   38 1
    42   24   39 1
@<TRIPOS>MOLECULE
ZINC27092703
   39    42     0     0     0
SMALL
USER_CHARGES

@<TRIPOS>ATOM
      1 C1         -0.0187    1.5258    0.0104 C.3       1 <0>        -0.1459
      2 C2          0.0021   -0.0041    0.0020 C.3       1 <0>        -0.1101
      3 C3          0.7182   -0.4975   -1.2568 C.3       1 <0>         0.0540
      4 H1          1.7086   -0.0484   -1.3318 H         1 <0>         0.1098
      5 C4          0.8223   -2.0335   -1.2502 C.3       1 <0>         0.1003
      6 N1          0.0695   -2.4357   -2.4500 N.am      1 <0>        -0.5745
      7 C5         -0.4089   -1.2958   -3.0727 C.2       1 <0>         0.4219
      8 N2         -0.0753   -0.1923   -2.4514 N.2       1 <0>        -0.5227
      9 C6         -1.1959   -1.4735   -4.3020 C.2       1 <0>        -0.0420
     10 C7         -1.4219   -2.7542   -4.7779 C.2       1 <0>         0.3052
     11 N3         -2.1514   -2.6462   -5.8902 N.2       1 <0>        -0.4750
     12 C8         -2.3968   -1.3758   -6.1411 C.2       1 <0>         0.3231
     13 N4         -1.8184   -0.6084   -5.1741 N.pl3     1 <0>        -0.5200
     14 H2         -1.8408    0.3593   -5.1124 H         1 <0>         0.4358
     15 C9         -3.1751   -0.8642   -7.2890 C.ar      1 <0>        -0.0319
     16 C10        -3.3627    0.5093   -7.4524 C.ar      1 <0>        -0.1008
     17 C11        -4.0897    0.9801   -8.5261 C.ar      1 <0>        -0.1163
     18 C12        -4.6327    0.0942   -9.4398 C.ar      1 <0>        -0.0992
     19 C13        -4.4504   -1.2685   -9.2837 C.ar      1 <0>        -0.1183
     20 C14        -3.7206   -1.7522   -8.2176 C.ar      1 <0>        -0.0670
     21 N5         -0.8991   -3.8363   -4.0804 N.am      1 <0>        -0.5148
     22 C15        -0.1820   -3.6553   -2.9602 C.2       1 <0>         0.7251
     23 O1          0.2566   -4.6317   -2.3831 O.2       1 <0>        -0.5447
     24 C16        -1.1332   -5.1951   -4.5756 C.3       1 <0>         0.0920
     25 H3          1.0039    1.9031    0.0027 H         1 <0>         0.0546
     26 H4         -0.5459    1.8868   -0.8726 H         1 <0>         0.0628
     27 H5         -0.5289    1.8773    0.9072 H         1 <0>         0.0547
     28 H6          0.5293   -0.3651    0.8851 H         1 <0>         0.0755
     29 H7         -1.0205   -0.3814    0.0098 H         1 <0>         0.0640
     30 H8          1.8632   -2.3478   -1.3272 H         1 <0>         0.0966
     31 H9          0.3616   -2.4454   -0.3523 H         1 <0>         0.0974
     32 H10        -2.9400    1.2018   -6.7395 H         1 <0>         0.1219
     33 H11        -4.2357    2.0426   -8.6537 H         1 <0>         0.1314
     34 H12        -5.2016    0.4679  -10.2782 H         1 <0>         0.1293
     35 H13        -4.8768   -1.9547  -10.0004 H         1 <0>         0.1330
     36 H14        -3.5753   -2.8158   -8.0993 H         1 <0>         0.1407
     37 H15        -0.3307   -5.4766   -5.2573 H         1 <0>         0.0711
     38 H16        -1.1563   -5.8891   -3.7353 H         1 <0>         0.0918
     39 H17        -2.0867   -5.2305   -5.1025 H         1 <0>         0.0912
@<TRIPOS>BOND
     1    1    2 1
     2    1   25 1
     3    1   26 1
     4    1   27 1
     5    2    3 1
     6    2   28 1
     7    2   29 1
     8    3    4 1
     9    3    8 1
    10    3    5 1
    11    5    6 1
    12    5   30 1
    13    5   31 1
    14    6   22 am
    15    6    7 1
    16    7    8 2
    17    7    9 1
    18    9   13 1
    19    9   10 2
    20   10   11 1
    21   10   21 1
    22   11   12 2
    23   12   13 1
    24   12   15 1
    25   13   14 1
    26   15   20 ar
    27   15   16 ar
    28   16   17 ar
    29   16   32 1
    30   17   18 ar
    31   17   33 1
    32   18   19 ar
    33   18   34 1
    34   19   20 ar
    35   19   35 1
    36   20   36 1
    37   21   22 am
    38   21   24 1
    39   22   23 2
    40   24   37 1
    41   24   38 1
    42   24   39 1
@<TRIPOS>MOLECULE
ZINC03811810
   48    51     0     0     0
SMALL
USER_CHARGES

@<TRIPOS>ATOM
      1 C1         -0.0178    1.4608    0.0101 C.3       1 <0>         0.0858
      2 N1          0.0021   -0.0041    0.0020 N.am      1 <0>        -0.7308
      3 C2         -1.1558   -0.6938    0.0094 C.2       1 <0>         0.5149
      4 O1         -2.2142   -0.1017    0.0227 O.2       1 <0>        -0.5024
      5 C3         -1.1354   -2.2006    0.0011 C.3       1 <0>         0.0320
      6 H1         -0.5471   -2.5799    0.8366 H         1 <0>         0.1225
      7 C4         -0.5782   -2.7315   -1.3443 C.3       1 <0>         0.0506
      8 H2         -0.9118   -2.1105   -2.1757 H         1 <0>         0.0948
      9 C5         -1.2083   -4.1435   -1.4217 C.3       1 <0>         0.0832
     10 H3         -1.5347   -4.3603   -2.4388 H         1 <0>         0.0899
     11 C6         -2.4187   -4.0695   -0.4709 C.3       1 <0>         0.3144
     12 H4         -2.2882   -4.7738    0.3507 H         1 <0>         0.1316
     13 O2         -2.4789   -2.7275    0.0446 O.3       1 <0>        -0.3270
     14 N2         -3.6479   -4.3821   -1.2041 N.pl3     1 <0>        -0.4753
     15 C7         -4.4978   -3.4819   -1.7747 C.2       1 <0>         0.2660
     16 N3         -5.4881   -4.1049   -2.3448 N.2       1 <0>        -0.4586
     17 C8         -5.3371   -5.4406   -2.1768 C.ar      1 <0>        -0.1040
     18 C9         -4.1517   -5.6348   -1.4476 C.ar      1 <0>         0.3101
     19 N4         -3.7707   -6.8732   -1.1522 N.ar      1 <0>        -0.5538
     20 C10        -4.4895   -7.9064   -1.5380 C.ar      1 <0>         0.3661
     21 N5         -5.6079   -7.7739   -2.2273 N.ar      1 <0>        -0.5871
     22 C11        -6.0726   -6.5743   -2.5614 C.ar      1 <0>         0.5073
     23 N6         -7.2452   -6.4456   -3.2850 N.pl3     1 <0>        -0.6904
     24 C12        -7.9987   -7.6392   -3.6772 C.3       1 <0>         0.1703
     25 C13        -9.2253   -7.2276   -4.4499 C.ar      1 <0>        -0.1092
     26 C14       -10.4099   -6.9750   -3.7831 C.ar      1 <0>        -0.0788
     27 C15       -11.5351   -6.5975   -4.4915 C.ar      1 <0>        -0.1155
     28 C16       -11.4764   -6.4722   -5.8670 C.ar      1 <0>        -0.0754
     29 C17       -10.2918   -6.7247   -6.5341 C.ar      1 <0>        -0.1026
     30 C18        -9.1645   -7.0970   -5.8244 C.ar      1 <0>        -0.0641
     31 I1        -10.2026   -6.5356   -8.6187 I         1 <0>        -0.0379
     32 O3         -0.2777   -5.1316   -0.9750 O.3       1 <0>        -0.5314
     33 O4          0.8483   -2.8101   -1.3100 O.3       1 <0>        -0.5362
     34 H5          1.0048    1.8381    0.0023 H         1 <0>         0.0830
     35 H6         -0.5450    1.8219   -0.8730 H         1 <0>         0.0653
     36 H7         -0.5280    1.8123    0.9069 H         1 <0>         0.0657
     37 H8          0.8486   -0.4776   -0.0086 H         1 <0>         0.3996
     38 H9         -4.3686   -2.4098   -1.7561 H         1 <0>         0.2242
     39 H10        -4.1517   -8.8996   -1.2813 H         1 <0>         0.2060
     40 H11        -7.5682   -5.5651   -3.5326 H         1 <0>         0.4195
     41 H12        -7.3721   -8.2754   -4.3023 H         1 <0>         0.0825
     42 H13        -8.2988   -8.1888   -2.7851 H         1 <0>         0.0840
     43 H14       -10.4561   -7.0732   -2.7086 H         1 <0>         0.1321
     44 H15       -12.4604   -6.4006   -3.9704 H         1 <0>         0.1349
     45 H16       -12.3557   -6.1775   -6.4205 H         1 <0>         0.1316
     46 H17        -8.2379   -7.2896   -6.3447 H         1 <0>         0.1313
     47 H18         0.5294   -5.1801   -1.5054 H         1 <0>         0.3970
     48 H19         1.2858   -1.9588   -1.1720 H         1 <0>         0.3844
@<TRIPOS>BOND
     1    1    2 1
     2    1   34 1
     3    1   35 1
     4    1   36 1
     5    2    3 am
     6    2   37 1
     7    3    4 2
     8    3    5 1
     9    5    6 1
    10    5   13 1
    11    5    7 1
    12    7    8 1
    13    7    9 1
    14    7   33 1
    15    9   10 1
    16    9   11 1
    17    9   32 1
    18   11   12 1
    19   11   13 1
    20   11   14 1
    21   14   18 1
    22   14   15 1
    23   15   16 2
    24   15   38 1
    25   16   17 1
    26   17   22 ar
    27   17   18 ar
    28   18   19 ar
    29   19   20 ar
    30   20   21 ar
    31   20   39 1
    32   21   22 ar
    33   22   23 1
    34   23   24 1
    35   23   40 1
    36   24   25 1
    37   24   41 1
    38   24   42 1
    39   25   30 ar
    40   25   26 ar
    41   26   27 ar
    42   26   43 1
    43   27   28 ar
    44   27   44 1
    45   28   29 ar
    46   28   45 1
    47   29   30 ar
    48   29   31 1
    49   30   46 1
    50   32   47 1
    51   33   48 1
@<TRIPOS>MOLECULE
ZINC04284552
   35    36     0     0     0
SMALL
USER_CHARGES
ethyl 7-allylsulfanyl-5-oxo-8-thiabicyclo[4.3.0]nona-6,9-diene-9-carboxylate
@<TRIPOS>ATOM
      1 C1         -4.7996   -0.6668    0.0417 C.3       1 <0>        -0.1535
      2 C2         -3.4553   -1.3973    0.0259 C.3       1 <0>         0.0627
      3 O1         -2.3935   -0.4409    0.0213 O.3       1 <0>        -0.3494
      4 C3         -1.1338   -0.9242    0.0075 C.2       1 <0>         0.5565
      5 O2         -0.9433   -2.1258   -0.0002 O.2       1 <0>        -0.4908
      6 C4          0.0021   -0.0041    0.0020 C.2       1 <0>        -0.2618
      7 C5          1.3402   -0.3071   -0.0120 C.2       1 <0>         0.0394
      8 C6          2.2408    0.7775   -0.0169 C.2       1 <0>        -0.2282
      9 C7          1.6822    2.0710   -0.0029 C.2       1 <0>        -0.1436
     10 S1         -0.0221    1.7748    0.0118 S.3       1 <0>         0.2342
     11 S2          2.5200    3.6210   -0.0019 S.3       1 <0>         0.1135
     12 C8          1.1014    4.7450    0.0191 C.3       1 <0>        -0.1382
     13 C9          1.5901    6.1706    0.0228 C.2       1 <0>        -0.1543
     14 C10         1.3387    6.9519   -0.9982 C.2       1 <0>        -0.1515
     15 C11         3.6588    0.5650   -0.0403 C.2       1 <0>         0.4109
     16 O3          4.4275    1.5049   -0.0244 O.2       1 <0>        -0.4496
     17 C12         4.1740   -0.8505   -0.0856 C.3       1 <0>        -0.1539
     18 C13         3.2122   -1.7815    0.6520 C.3       1 <0>        -0.1178
     19 C14         1.8374   -1.7497   -0.0203 C.3       1 <0>        -0.0791
     20 H1         -5.6094   -1.3963    0.0452 H         1 <0>         0.0829
     21 H2         -4.8655   -0.0463    0.9354 H         1 <0>         0.0676
     22 H3         -4.8814   -0.0374   -0.8445 H         1 <0>         0.0676
     23 H4         -3.3894   -2.0177   -0.8678 H         1 <0>         0.0714
     24 H5         -3.3734   -2.0267    0.9121 H         1 <0>         0.0714
     25 H6          0.4887    4.5733   -0.8658 H         1 <0>         0.1002
     26 H7          0.5065    4.5625    0.9140 H         1 <0>         0.1059
     27 H8          2.1476    6.5481    0.8673 H         1 <0>         0.1243
     28 H9          1.6889    7.9735   -0.9955 H         1 <0>         0.1111
     29 H10         0.7812    6.5743   -1.8426 H         1 <0>         0.1022
     30 H11         5.0717   -0.8927    0.3530 H         1 <0>         0.0880
     31 H12         4.2620   -1.1703   -1.1239 H         1 <0>         0.1029
     32 H13         3.1163   -1.4561    1.6878 H         1 <0>         0.0715
     33 H14         3.6041   -2.7984    0.6268 H         1 <0>         0.0858
     34 H15         1.1425   -2.3819    0.5324 H         1 <0>         0.1067
     35 H16         1.9207   -2.1045   -1.0476 H         1 <0>         0.0954
@<TRIPOS>BOND
     1    1    2 1
     2    1   20 1
     3    1   21 1
     4    1   22 1
     5    2    3 1
     6    2   23 1
     7    2   24 1
     8    3    4 1
     9    4    5 2
    10    4    6 1
    11    6   10 1
    12    6    7 2
    13    7   19 1
    14    7    8 1
    15    8    9 2
    16    8   15 1
    17    9   10 1
    18    9   11 1
    19   11   12 1
    20   12   13 1
    21   12   25 1
    22   12   26 1
    23   13   14 2
    24   13   27 1
    25   14   28 1
    26   14   29 1
    27   15   16 2
    28   15   17 1
    29   17   18 1
    30   17   30 1
    31   17   31 1
    32   18   19 1
    33   18   32 1
    34   18   33 1
    35   19   34 1
    36   19   35 1
@<TRIPOS>MOLECULE
ZINC04286360
   37    38     0     0     0
SMALL
USER_CHARGES
ethyl 2-oxo-9-propylsulfanyl-8-thiabicyclo[4.3.0]nona-6,9-diene-7-carboxylate
@<TRIPOS>ATOM
      1 C1          0.3985    7.1425    0.0406 C.3       1 <0>        -0.1483
      2 C2          1.5976    6.1923    0.0229 C.3       1 <0>        -0.1075
      3 C3          1.1014    4.7450    0.0191 C.3       1 <0>        -0.1675
      4 S1          2.5200    3.6210   -0.0019 S.3       1 <0>         0.1040
      5 C4          1.6822    2.0710   -0.0029 C.2       1 <0>        -0.1407
      6 C5          2.2408    0.7775   -0.0169 C.2       1 <0>        -0.2291
      7 C6          1.3402   -0.3071   -0.0120 C.2       1 <0>         0.0393
      8 C7          0.0021   -0.0041    0.0020 C.2       1 <0>        -0.2626
      9 S2         -0.0221    1.7748    0.0118 S.3       1 <0>         0.2353
     10 C8         -1.1338   -0.9242    0.0075 C.2       1 <0>         0.5565
     11 O1         -0.9433   -2.1258   -0.0002 O.2       1 <0>        -0.4910
     12 O2         -2.3935   -0.4409    0.0213 O.3       1 <0>        -0.3495
     13 C9         -3.4553   -1.3973    0.0259 C.3       1 <0>         0.0627
     14 C10        -4.7996   -0.6668    0.0417 C.3       1 <0>        -0.1534
     15 C11         1.8374   -1.7497   -0.0203 C.3       1 <0>        -0.0790
     16 C12         3.2122   -1.7815    0.6520 C.3       1 <0>        -0.1175
     17 C13         4.1740   -0.8505   -0.0856 C.3       1 <0>        -0.1538
     18 C14         3.6588    0.5650   -0.0403 C.2       1 <0>         0.4106
     19 O3          4.4275    1.5049   -0.0244 O.2       1 <0>        -0.4497
     20 H1         -0.2143    6.9707   -0.8443 H         1 <0>         0.0590
     21 H2         -0.1965    6.9600    0.9355 H         1 <0>         0.0590
     22 H3          0.7519    8.1736    0.0433 H         1 <0>         0.0651
     23 H4          2.2103    6.3641    0.9078 H         1 <0>         0.0764
     24 H5          2.1925    6.3748   -0.8720 H         1 <0>         0.0763
     25 H6          0.4887    4.5733   -0.8658 H         1 <0>         0.0975
     26 H7          0.5065    4.5625    0.9140 H         1 <0>         0.0976
     27 H8         -3.3894   -2.0177   -0.8678 H         1 <0>         0.0714
     28 H9         -3.3734   -2.0267    0.9121 H         1 <0>         0.0713
     29 H10        -4.8655   -0.0463    0.9354 H         1 <0>         0.0676
     30 H11        -4.8814   -0.0374   -0.8445 H         1 <0>         0.0676
     31 H12        -5.6094   -1.3963    0.0452 H         1 <0>         0.0828
     32 H13         1.1425   -2.3819    0.5324 H         1 <0>         0.1066
     33 H14         1.9207   -2.1045   -1.0476 H         1 <0>         0.0953
     34 H15         3.1163   -1.4561    1.6878 H         1 <0>         0.0714
     35 H16         3.6041   -2.7984    0.6268 H         1 <0>         0.0857
     36 H17         5.0729   -0.8860    0.3511 H         1 <0>         0.0879
     37 H18         4.2620   -1.1703   -1.1239 H         1 <0>         0.1028
@<TRIPOS>BOND
     1    1    2 1
     2    1   20 1
     3    1   21 1
     4    1   22 1
     5    2    3 1
     6    2   23 1
     7    2   24 1
     8    3    4 1
     9    3   25 1
    10    3   26 1
    11    4    5 1
    12    5    9 1
    13    5    6 2
    14    6   18 1
    15    6    7 1
    16    7    8 2
    17    7   15 1
    18    8    9 1
    19    8   10 1
    20   10   11 2
    21   10   12 1
    22   12   13 1
    23   13   14 1
    24   13   27 1
    25   13   28 1
    26   14   29 1
    27   14   30 1
    28   14   31 1
    29   15   16 1
    30   15   32 1
    31   15   33 1
    32   16   17 1
    33   16   34 1
    34   16   35 1
    35   17   18 1
    36   17   36 1
    37   17   37 1
    38   18   19 2
@<TRIPOS>MOLECULE
ZINC04349538
   37    38     0     0     0
SMALL
USER_CHARGES
ethyl 7-isopropylsulfanyl-5-oxo-8-thiabicyclo[4.3.0]nona-6,9-diene-9-carboxylate
@<TRIPOS>ATOM
      1 C1         -4.7996   -0.6668    0.0417 C.3       1 <0>        -0.1534
      2 C2         -3.4553   -1.3973    0.0259 C.3       1 <0>         0.0626
      3 O1         -2.3935   -0.4409    0.0213 O.3       1 <0>        -0.3496
      4 C3         -1.1338   -0.9242    0.0075 C.2       1 <0>         0.5563
      5 O2         -0.9433   -2.1258   -0.0002 O.2       1 <0>        -0.4917
      6 C4          0.0021   -0.0041    0.0020 C.2       1 <0>        -0.2699
      7 C5          1.3402   -0.3071   -0.0120 C.2       1 <0>         0.0387
      8 C6          2.2408    0.7775   -0.0169 C.2       1 <0>        -0.2288
      9 C7          1.6822    2.0710   -0.0029 C.2       1 <0>        -0.1402
     10 S1         -0.0221    1.7748    0.0118 S.3       1 <0>         0.2432
     11 S2          2.5200    3.6210   -0.0019 S.3       1 <0>         0.1054
     12 C8          1.1014    4.7450    0.0191 C.3       1 <0>        -0.1380
     13 C9          0.3362    4.5760    1.3332 C.3       1 <0>        -0.1578
     14 C10         1.5929    6.1888   -0.1028 C.3       1 <0>        -0.1341
     15 C11         3.6588    0.5650   -0.0403 C.2       1 <0>         0.4109
     16 O3          4.4275    1.5049   -0.0244 O.2       1 <0>        -0.4498
     17 C12         4.1740   -0.8505   -0.0856 C.3       1 <0>        -0.1540
     18 C13         3.2122   -1.7815    0.6520 C.3       1 <0>        -0.1177
     19 C14         1.8374   -1.7497   -0.0203 C.3       1 <0>        -0.0793
     20 H1         -4.8655   -0.0463    0.9354 H         1 <0>         0.0675
     21 H2         -4.8814   -0.0374   -0.8445 H         1 <0>         0.0675
     22 H3         -5.6094   -1.3963    0.0452 H         1 <0>         0.0827
     23 H4         -3.3894   -2.0177   -0.8678 H         1 <0>         0.0712
     24 H5         -3.3734   -2.0267    0.9121 H         1 <0>         0.0712
     25 H6          0.4422    4.5137   -0.8176 H         1 <0>         0.1018
     26 H7         -0.0139    3.5474    1.4200 H         1 <0>         0.0621
     27 H8          0.9955    4.8073    2.1698 H         1 <0>         0.0756
     28 H9         -0.5180    5.2529    1.3458 H         1 <0>         0.0785
     29 H10         2.1380    6.3092   -1.0390 H         1 <0>         0.0697
     30 H11         0.7386    6.8657   -0.0902 H         1 <0>         0.0812
     31 H12         2.2521    6.4201    0.7338 H         1 <0>         0.0699
     32 H13         5.0717   -0.8927    0.3530 H         1 <0>         0.0878
     33 H14         4.2620   -1.1703   -1.1239 H         1 <0>         0.1026
     34 H15         3.1163   -1.4561    1.6878 H         1 <0>         0.0713
     35 H16         3.6041   -2.7984    0.6268 H         1 <0>         0.0854
     36 H17         1.1425   -2.3819    0.5324 H         1 <0>         0.1063
     37 H18         1.9207   -2.1045   -1.0476 H         1 <0>         0.0948
@<TRIPOS>BOND
     1    1    2 1
     2    1   20 1
     3    1   21 1
     4    1   22 1
     5    2    3 1
     6    2   23 1
     7    2   24 1
     8    3    4 1
     9    4    5 2
    10    4    6 1
    11    6   10 1
    12    6    7 2
    13    7   19 1
    14    7    8 1
    15    8    9 2
    16    8   15 1
    17    9   10 1
    18    9   11 1
    19   11   12 1
    20   12   13 1
    21   12   14 1
    22   12   25 1
    23   13   26 1
    24   13   27 1
    25   13   28 1
    26   14   29 1
    27   14   30 1
    28   14   31 1
    29   15   16 2
    30   15   17 1
    31   17   18 1
    32   17   32 1
    33   17   33 1
    34   18   19 1
    35   18   34 1
    36   18   35 1
    37   19   36 1
    38   19   37 1
@<TRIPOS>MOLECULE
ZINC00602847
   48    52     0     0     0
SMALL
USER_CHARGES

@<TRIPOS>ATOM
      1 C1         -0.0173    1.4248    0.0099 C.3       1 <0>         0.0269
      2 O1          0.0021   -0.0041    0.0020 O.3       1 <0>        -0.3182
      3 C2          0.6258   -0.6184    1.0415 C.ar      1 <0>         0.1243
      4 C3          1.2022    0.1384    2.0513 C.ar      1 <0>        -0.2068
      5 C4          1.8353   -0.4884    3.1070 C.ar      1 <0>        -0.0750
      6 C5          1.8951   -1.8688    3.1577 C.ar      1 <0>        -0.1214
      7 C6          1.3218   -2.6253    2.1523 C.ar      1 <0>        -0.0748
      8 C7          0.6822   -2.0034    1.0976 C.ar      1 <0>        -0.1496
      9 C8          2.5867   -2.5500    4.3104 C.3       1 <0>        -0.0706
     10 C9          1.5771   -2.8076    5.4307 C.3       1 <0>        -0.1307
     11 C10         2.2793   -3.4992    6.6010 C.3       1 <0>         0.1366
     12 N1          1.3125   -3.7459    7.6738 N.pl3     1 <0>        -0.3534
     13 C11         1.0184   -2.8933    8.6954 C.2       1 <0>         0.3698
     14 C12         0.0463   -3.5315    9.4806 C.2       1 <0>        -0.2674
     15 C13        -0.2172   -4.7794    8.8878 C.2       1 <0>         0.1302
     16 N2          0.5272   -4.8958    7.8225 N.2       1 <0>        -0.2626
     17 C14        -0.4546   -2.8267   10.6611 C.2       1 <0>         0.4067
     18 N3         -1.3368   -3.1079   11.5974 N.2       1 <0>        -0.5163
     19 C15        -1.4144   -2.0890   12.4629 C.2       1 <0>         0.3505
     20 N4         -0.5791   -1.1375   12.0907 N.2       1 <0>        -0.3000
     21 N5          0.0588   -1.5837   10.9262 N.pl3     1 <0>        -0.3765
     22 C16         1.0032   -1.0458   10.1009 C.2       1 <0>         0.6913
     23 N6          1.4538   -1.6744    9.0431 N.2       1 <0>        -0.5609
     24 N7          1.5011    0.2031   10.3906 N.pl3     1 <0>        -0.8026
     25 C17        -2.2961   -2.0382   13.6479 C.2       1 <0>         0.0425
     26 C18        -2.3879   -1.0082   14.5304 C.2       1 <0>        -0.1373
     27 C19        -3.3441   -1.3838   15.4947 C.2       1 <0>        -0.2200
     28 C20        -3.7842   -2.6118   15.1567 C.2       1 <0>        -0.0041
     29 O2         -3.1527   -3.0019   14.0378 O.3       1 <0>        -0.1521
     30 H1          1.0053    1.8021    0.0021 H         1 <0>         0.0559
     31 H2         -0.5445    1.7859   -0.8732 H         1 <0>         0.1012
     32 H3         -0.5275    1.7763    0.9067 H         1 <0>         0.0554
     33 H4          1.1564    1.2167    2.0118 H         1 <0>         0.1276
     34 H5          2.2842    0.1003    3.8934 H         1 <0>         0.1242
     35 H6          1.3701   -3.7035    2.1940 H         1 <0>         0.1301
     36 H7          0.2307   -2.5948    0.3148 H         1 <0>         0.1312
     37 H8          3.0056   -3.4983    3.9736 H         1 <0>         0.0778
     38 H9          3.3874   -1.9109    4.6827 H         1 <0>         0.0761
     39 H10         1.1582   -1.8593    5.7675 H         1 <0>         0.0709
     40 H11         0.7764   -3.4467    5.0584 H         1 <0>         0.0759
     41 H12         2.6982   -4.4475    6.2643 H         1 <0>         0.1031
     42 H13         3.0799   -2.8601    6.9733 H         1 <0>         0.1002
     43 H14        -0.9200   -5.5149    9.2505 H         1 <0>         0.2021
     44 H15         1.1805    0.6844   11.1693 H         1 <0>         0.4262
     45 H16         2.1729    0.6026    9.8161 H         1 <0>         0.4302
     46 H17        -1.8346   -0.0812   14.4987 H         1 <0>         0.1599
     47 H18        -3.6636   -0.7985   16.3442 H         1 <0>         0.1594
     48 H19        -4.5248   -3.1853   15.6942 H         1 <0>         0.2142
@<TRIPOS>BOND
     1    1    2 1
     2    1   30 1
     3    1   31 1
     4    1   32 1
     5    2    3 1
     6    3    8 ar
     7    3    4 ar
     8    4    5 ar
     9    4   33 1
    10    5    6 ar
    11    5   34 1
    12    6    7 ar
    13    6    9 1
    14    7    8 ar
    15    7   35 1
    16    8   36 1
    17    9   10 1
    18    9   37 1
    19    9   38 1
    20   10   11 1
    21   10   39 1
    22   10   40 1
    23   11   12 1
    24   11   41 1
    25   11   42 1
    26   12   16 1
    27   12   13 1
    28   13   23 1
    29   13   14 2
    30   14   15 1
    31   14   17 1
    32   15   16 2
    33   15   43 1
    34   17   21 1
    35   17   18 2
    36   18   19 1
    37   19   20 2
    38   19   25 1
    39   20   21 1
    40   21   22 1
    41   22   23 2
    42   22   24 1
    43   24   44 1
    44   24   45 1
    45   25   29 1
    46   25   26 2
    47   26   27 1
    48   26   46 1
    49   27   28 2
    50   27   47 1
    51   28   29 1
    52   28   48 1
@<TRIPOS>MOLECULE
ZINC03814423
   58    62     0     0     0
SMALL
USER_CHARGES

@<TRIPOS>ATOM
      1 C1         -0.3495    1.1419    0.1565 C.3       1 <0>        -0.2092
      2 C2          0.5123   -0.0432   -0.1956 C.2       1 <0>         0.3555
      3 O1          1.4945   -0.2919    0.4614 O.2       1 <0>        -0.4322
      4 C3          0.1483   -0.9179   -1.3675 C.3       1 <0>         0.0885
      5 C4          1.4042   -1.6523   -1.8999 C.3       1 <0>        -0.1306
      6 C5          1.0874   -3.1711   -1.8263 C.3       1 <0>        -0.1197
      7 C6         -0.4442   -3.2049   -1.8665 C.3       1 <0>        -0.0741
      8 H1         -0.8032   -3.0148   -2.8779 H         1 <0>         0.0895
      9 C7         -0.8066   -2.0212   -0.9267 C.3       1 <0>        -0.0418
     10 C8         -2.2879   -1.7430   -1.0734 C.3       1 <0>        -0.0999
     11 C9         -3.0484   -2.9897   -0.5829 C.3       1 <0>        -0.1142
     12 C10        -2.6175   -4.2238   -1.3633 C.3       1 <0>        -0.0695
     13 H2         -2.8921   -4.0887   -2.4095 H         1 <0>         0.0789
     14 C11        -1.0985   -4.4463   -1.2980 C.3       1 <0>        -0.0570
     15 H3         -0.8122   -4.5485   -0.2513 H         1 <0>         0.1098
     16 C12        -0.6950   -5.6905   -2.0209 C.2       1 <0>        -0.0846
     17 C13        -1.5320   -6.7000   -2.2521 C.2       1 <0>        -0.0701
     18 C14        -2.9357   -6.6244   -1.8124 C.2       1 <0>         0.0207
     19 C15        -3.7999   -7.5601   -2.2489 C.2       1 <0>        -0.2256
     20 C16        -5.1738   -7.5324   -1.9791 C.2       1 <0>         0.4168
     21 O2         -5.8804   -8.4610   -2.3164 O.2       1 <0>        -0.4511
     22 C17        -5.7723   -6.3449   -1.2675 C.3       1 <0>        -0.2014
     23 H4         -6.6716   -6.5474   -0.6859 H         1 <0>         0.1324
     24 C18        -5.6703   -4.9881   -1.9702 C.3       1 <0>        -0.1405
     25 C19        -4.8001   -5.2994   -0.7282 C.3       1 <0>        -0.1250
     26 H5         -5.0902   -4.8025    0.1976 H         1 <0>         0.1198
     27 C20        -3.2955   -5.4856   -0.8402 C.3       1 <0>         0.0141
     28 C21        -2.7140   -5.7800    0.5440 C.3       1 <0>        -0.1492
     29 Cl1        -0.9642   -8.1168   -3.0793 Cl        1 <0>        -0.0614
     30 C22        -0.5095   -2.4082    0.5234 C.3       1 <0>        -0.1637
     31 O3         -0.4458   -0.1338   -2.4041 O.3       1 <0>        -0.3274
     32 C23         0.2993    0.8546   -2.9235 C.2       1 <0>         0.4524
     33 O4          1.4427    1.0029   -2.5624 O.2       1 <0>        -0.5012
     34 C24        -0.2905    1.7793   -3.9570 C.3       1 <0>        -0.1484
     35 H6          0.0609    2.0397   -0.3058 H         1 <0>         0.0951
     36 H7         -1.3628    0.9757   -0.2091 H         1 <0>         0.0891
     37 H8         -0.3698    1.2675    1.2391 H         1 <0>         0.0930
     38 H9          1.5991   -1.3604   -2.9318 H         1 <0>         0.0778
     39 H10         2.2667   -1.4194   -1.2754 H         1 <0>         0.0930
     40 H11         1.5073   -3.6947   -2.6852 H         1 <0>         0.0761
     41 H12         1.4582   -3.5977   -0.8943 H         1 <0>         0.0774
     42 H13        -2.5635   -0.8798   -0.4676 H         1 <0>         0.0713
     43 H14        -2.5263   -1.5525   -2.1198 H         1 <0>         0.0795
     44 H15        -2.8405   -3.1437    0.4760 H         1 <0>         0.0733
     45 H16        -4.1186   -2.8342   -0.7191 H         1 <0>         0.0786
     46 H17         0.3228   -5.7746   -2.3724 H         1 <0>         0.1320
     47 H18        -3.4122   -8.3768   -2.8399 H         1 <0>         0.1411
     48 H19        -5.1793   -4.9604   -2.9430 H         1 <0>         0.1012
     49 H20        -6.4978   -4.2904   -1.8406 H         1 <0>         0.1122
     50 H21        -2.9118   -4.9382    1.2077 H         1 <0>         0.0750
     51 H22        -3.1781   -6.6791    0.9493 H         1 <0>         0.0645
     52 H23        -1.6379   -5.9322    0.4611 H         1 <0>         0.0686
     53 H24        -0.7307   -1.5645    1.1772 H         1 <0>         0.0601
     54 H25        -1.1287   -3.2594    0.8065 H         1 <0>         0.0820
     55 H26         0.5426   -2.6763    0.6197 H         1 <0>         0.0703
     56 H27        -1.3235    1.4925   -4.1539 H         1 <0>         0.0937
     57 H28        -0.2622    2.8039   -3.5862 H         1 <0>         0.1074
     58 H29         0.2877    1.7103   -4.8784 H         1 <0>         0.1070
@<TRIPOS>BOND
     1    1    2 1
     2    1   35 1
     3    1   36 1
     4    1   37 1
     5    2    3 2
     6    2    4 1
     7    4    9 1
     8    4    5 1
     9    4   31 1
    10    5    6 1
    11    5   38 1
    12    5   39 1
    13    6    7 1
    14    6   40 1
    15    6   41 1
    16    7    8 1
    17    7   14 1
    18    7    9 1
    19    9   10 1
    20    9   30 1
    21   10   11 1
    22   10   42 1
    23   10   43 1
    24   11   12 1
    25   11   44 1
    26   11   45 1
    27   12   13 1
    28   12   27 1
    29   12   14 1
    30   14   15 1
    31   14   16 1
    32   16   17 2
    33   16   46 1
    34   17   18 1
    35   17   29 1
    36   18   27 1
    37   18   19 2
    38   19   20 1
    39   19   47 1
    40   20   21 2
    41   20   22 1
    42   22   23 1
    43   22   25 1
    44   22   24 1
    45   24   25 1
    46   24   48 1
    47   24   49 1
    48   25   26 1
    49   25   27 1
    50   27   28 1
    51   28   50 1
    52   28   51 1
    53   28   52 1
    54   30   53 1
    55   30   54 1
    56   30   55 1
    57   31   32 1
    58   32   33 2
    59   32   34 1
    60   34   56 1
    61   34   57 1
    62   34   58 1
@<TRIPOS>MOLECULE
ZINC17539659
   50    51     0     0     0
SMALL
USER_CHARGES

@<TRIPOS>ATOM
      1 C1         -0.9338    1.3855   -0.5035 C.3       1 <0>        -0.1498
      2 C2         -0.7468   -0.1315   -0.4332 C.3       1 <0>         0.0662
      3 O1          0.1172   -0.5544   -1.4900 O.3       1 <0>        -0.3257
      4 C3          0.3862   -1.8731   -1.5700 C.2       1 <0>         0.4854
      5 O2         -0.1466   -2.7165   -0.6867 O.2       1 <0>        -0.6297
      6 C4          1.2195   -2.3529   -2.5742 C.2       1 <0>        -0.3731
      7 C5          1.6238   -3.6782   -2.6033 C.2       1 <0>         0.3018
      8 N1          2.4134   -4.1484   -3.5491 N.2       1 <0>        -0.6461
      9 C6          2.9036   -3.4477   -4.5528 C.2       1 <0>         0.2824
     10 C7          2.6246   -2.0998   -4.7145 C.2       1 <0>        -0.3745
     11 C8          3.1497   -1.3753   -5.7786 C.2       1 <0>         0.4780
     12 O3          2.8640   -0.0803   -5.9084 O.3       1 <0>        -0.6183
     13 O4          3.9480   -1.9831   -6.6792 O.3       1 <0>        -0.3342
     14 C9          4.4521   -1.1780   -7.7468 C.3       1 <0>         0.0603
     15 C10         5.3314   -2.0345   -8.6602 C.3       1 <0>        -0.1494
     16 C11         1.7179   -1.4475   -3.6863 C.3       1 <0>         0.1161
     17 H1          2.2627   -0.6194   -3.2328 H         1 <0>         0.0409
     18 C12         0.5203   -0.8780   -4.4022 C.2       1 <0>        -0.0824
     19 C13         0.3352    0.4340   -4.4441 C.2       1 <0>        -0.1299
     20 C14        -0.8395    0.9925   -5.1463 C.ar      1 <0>        -0.0153
     21 C15        -1.7584    0.1413   -5.7611 C.ar      1 <0>        -0.1273
     22 C16        -2.8527    0.6690   -6.4150 C.ar      1 <0>        -0.1172
     23 C17        -3.0397    2.0389   -6.4622 C.ar      1 <0>        -0.1442
     24 C18        -2.1321    2.8883   -5.8551 C.ar      1 <0>        -0.1195
     25 C19        -1.0372    2.3730   -5.1923 C.ar      1 <0>        -0.1225
     26 C20         3.7955   -4.1339   -5.5551 C.3       1 <0>        -0.1038
     27 C21         1.1466   -4.6110   -1.5202 C.3       1 <0>        -0.1131
     28 H2          0.0341    1.8760   -0.3998 H         1 <0>         0.0617
     29 H3         -1.3758    1.6530   -1.4632 H         1 <0>         0.0641
     30 H4         -1.5928    1.7080    0.3026 H         1 <0>         0.0690
     31 H5         -0.3048   -0.3990    0.5265 H         1 <0>         0.0574
     32 H6         -1.7146   -0.6220   -0.5369 H         1 <0>         0.0576
     33 H7          3.6190   -0.7723   -8.3207 H         1 <0>         0.0585
     34 H8          5.0435   -0.3594   -7.3366 H         1 <0>         0.0586
     35 H9          5.7159   -1.4205   -9.4745 H         1 <0>         0.0696
     36 H10         6.1646   -2.4402   -8.0863 H         1 <0>         0.0622
     37 H11         4.7400   -2.8531   -9.0704 H         1 <0>         0.0620
     38 H12        -0.1871   -1.5388   -4.8810 H         1 <0>         0.0899
     39 H13         1.0426    1.0947   -3.9652 H         1 <0>         0.1105
     40 H14        -1.6131   -0.9283   -5.7255 H         1 <0>         0.1197
     41 H15        -3.5647    0.0112   -6.8913 H         1 <0>         0.1150
     42 H16        -3.8978    2.4470   -6.9756 H         1 <0>         0.1131
     43 H17        -2.2834    3.9569   -5.8961 H         1 <0>         0.1149
     44 H18        -0.3321    3.0369   -4.7143 H         1 <0>         0.1186
     45 H19         3.9106   -5.1826   -5.2811 H         1 <0>         0.0627
     46 H20         3.3484   -4.0644   -6.5468 H         1 <0>         0.0772
     47 H21         4.7727   -3.6509   -5.5625 H         1 <0>         0.0776
     48 H22         0.1592   -4.9933   -1.7790 H         1 <0>         0.0714
     49 H23         1.8444   -5.4427   -1.4234 H         1 <0>         0.0493
     50 H24         1.0909   -4.0715   -0.5747 H         1 <0>         0.1043
@<TRIPOS>BOND
     1    1    2 1
     2    1   28 1
     3    1   29 1
     4    1   30 1
     5    2    3 1
     6    2   31 1
     7    2   32 1
     8    3    4 1
     9    4    5 2
    10    4    6 1
    11    6   16 1
    12    6    7 2
    13    7    8 1
    14    7   27 1
    15    8    9 2
    16    9   10 1
    17    9   26 1
    18   10   11 2
    19   10   16 1
    20   11   12 1
    21   11   13 1
    22   13   14 1
    23   14   15 1
    24   14   33 1
    25   14   34 1
    26   15   35 1
    27   15   36 1
    28   15   37 1
    29   16   17 1
    30   16   18 1
    31   18   19 2
    32   18   38 1
    33   19   20 1
    34   19   39 1
    35   20   25 ar
    36   20   21 ar
    37   21   22 ar
    38   21   40 1
    39   22   23 ar
    40   22   41 1
    41   23   24 ar
    42   23   42 1
    43   24   25 ar
    44   24   43 1
    45   25   44 1
    46   26   45 1
    47   26   46 1
    48   26   47 1
    49   27   48 1
    50   27   49 1
    51   27   50 1
@<TRIPOS>MOLECULE
ZINC04216238
   32    34     0     0     0
SMALL
USER_CHARGES

@<TRIPOS>ATOM
      1 C1         -0.0164    1.3595    0.0095 C.2       1 <0>         0.2905
      2 N1          1.2004    1.8202    0.0004 N.2       1 <0>        -0.4603
      3 C2          2.0746    0.7848   -0.0135 C.ar      1 <0>        -0.1082
      4 C3          3.4758    0.6755   -0.0279 C.ar      1 <0>         0.5404
      5 N2          4.0170   -0.5380   -0.0400 N.ar      1 <0>        -0.6055
      6 C4          3.2621   -1.6244   -0.0386 C.ar      1 <0>         0.5657
      7 N3          1.9447   -1.5690   -0.0253 N.ar      1 <0>        -0.5772
      8 C5          1.3163   -0.3974   -0.0126 C.ar      1 <0>         0.3358
      9 N4          0.0021   -0.0041    0.0020 N.pl3     1 <0>        -0.4529
     10 C6         -1.1670   -0.8869    0.0089 C.3       1 <0>         0.3167
     11 H1         -0.9749   -1.7745   -0.5939 H         1 <0>         0.1268
     12 C7         -1.5297   -1.2878    1.4560 C.3       1 <0>         0.0723
     13 H2         -1.1286   -2.2737    1.6911 H         1 <0>         0.1020
     14 C8         -3.0745   -1.3163    1.4617 C.3       1 <0>         0.0477
     15 H3         -3.4673   -0.5878    2.1709 H         1 <0>         0.0923
     16 C9         -3.4624   -0.9293    0.0174 C.3       1 <0>         0.0511
     17 H4         -3.6242   -1.8235   -0.5846 H         1 <0>         0.0998
     18 O1         -2.3293   -0.1859   -0.4847 O.3       1 <0>        -0.3483
     19 C10        -4.7182   -0.0552    0.0192 C.3       1 <0>         0.0831
     20 O2         -5.1265    0.1947   -1.3272 O.3       1 <0>        -0.5638
     21 O3         -3.5499   -2.6266    1.7767 O.3       1 <0>        -0.5480
     22 O4         -1.0407   -0.3158    2.3823 O.3       1 <0>        -0.5407
     23 F1          3.8626   -2.8345   -0.0517 F         1 <0>        -0.0712
     24 N5          4.2737    1.8060   -0.0299 N.pl3     1 <0>        -0.8069
     25 H5         -0.9091    1.9671    0.0254 H         1 <0>         0.2239
     26 H6         -5.5181   -0.5695    0.5519 H         1 <0>         0.0666
     27 H7         -4.5015    0.8911    0.5147 H         1 <0>         0.0620
     28 H8         -5.9187    0.7441   -1.4024 H         1 <0>         0.3872
     29 H9         -4.5139   -2.7016    1.7941 H         1 <0>         0.3898
     30 H10        -1.2406   -0.5178    3.3066 H         1 <0>         0.3905
     31 H11         3.8670    2.6866   -0.0213 H         1 <0>         0.4243
     32 H12         5.2396    1.7179   -0.0399 H         1 <0>         0.4143
@<TRIPOS>BOND
     1    1    9 1
     2    1    2 2
     3    1   25 1
     4    2    3 1
     5    3    8 ar
     6    3    4 ar
     7    4    5 ar
     8    4   24 1
     9    5    6 ar
    10    6    7 ar
    11    6   23 1
    12    7    8 ar
    13    8    9 1
    14    9   10 1
    15   10   11 1
    16   10   18 1
    17   10   12 1
    18   12   13 1
    19   12   14 1
    20   12   22 1
    21   14   15 1
    22   14   16 1
    23   14   21 1
    24   16   17 1
    25   16   18 1
    26   16   19 1
    27   19   20 1
    28   19   26 1
    29   19   27 1
    30   20   28 1
    31   21   29 1
    32   22   30 1
    33   24   31 1
    34   24   32 1
@<TRIPOS>MOLECULE
ZINC04654890
   33    34     0     0     0
SMALL
USER_CHARGES
1,3-dipropyl-7H-purine-2,6-dione
@<TRIPOS>ATOM
      1 C1          4.8600    4.3313   -1.4654 C.3       1 <0>        -0.1475
      2 C2          3.3301    4.3321   -1.4508 C.3       1 <0>        -0.1381
      3 C3          2.8338    4.3259   -0.0036 C.3       1 <0>         0.1189
      4 N1          1.3689    4.3267    0.0104 N.am      1 <0>        -0.5084
      5 C4          0.6765    3.1266    0.0116 C.2       1 <0>         0.3217
      6 C5         -0.7124    3.1538    0.0245 C.2       1 <0>        -0.1544
      7 C6         -1.3758    4.3997    0.0363 C.2       1 <0>         0.5935
      8 O1         -2.5926    4.4497    0.0477 O.2       1 <0>        -0.5123
      9 N2         -0.6460    5.5347    0.0341 N.am      1 <0>        -0.5489
     10 C7          0.6974    5.4937    0.0215 C.2       1 <0>         0.7070
     11 O2          1.3222    6.5369    0.0207 O.2       1 <0>        -0.5292
     12 C8         -1.3282    6.8311    0.0459 C.3       1 <0>         0.1135
     13 C9         -1.5790    7.2886   -1.3924 C.3       1 <0>        -0.1376
     14 C10        -2.2914    8.6425   -1.3801 C.3       1 <0>        -0.1474
     15 N3         -1.1247    1.8363    0.0168 N.pl3     1 <0>        -0.5215
     16 H1         -2.0695    1.5086    0.0176 H         1 <0>         0.4452
     17 C11        -0.0126    1.0758    0.0080 C.2       1 <0>         0.2766
     18 N4          1.0472    1.8436    0.0020 N.2       1 <0>        -0.4997
     19 H2          5.2135    4.3357   -2.4965 H         1 <0>         0.0608
     20 H3          5.2287    5.2188   -0.9511 H         1 <0>         0.0590
     21 H4          5.2277    3.4388   -0.9590 H         1 <0>         0.0591
     22 H5          2.9613    3.4446   -1.9652 H         1 <0>         0.0678
     23 H6          2.9624    5.2246   -1.9572 H         1 <0>         0.0676
     24 H7          3.2025    5.2134    0.5108 H         1 <0>         0.1001
     25 H8          3.2015    3.4334    0.5028 H         1 <0>         0.0990
     26 H9         -2.2803    6.7359    0.5681 H         1 <0>         0.1015
     27 H10        -0.7051    7.5649    0.5572 H         1 <0>         0.1034
     28 H11        -0.6269    7.3837   -1.9146 H         1 <0>         0.0691
     29 H12        -2.2021    6.5548   -1.9037 H         1 <0>         0.0670
     30 H13        -2.4700    8.9685   -2.4047 H         1 <0>         0.0615
     31 H14        -3.2435    8.5474   -0.8579 H         1 <0>         0.0590
     32 H15        -1.6683    9.3763   -0.8688 H         1 <0>         0.0599
     33 H16         0.0021   -0.0041    0.0020 H         1 <0>         0.2343
@<TRIPOS>BOND
     1    1    2 1
     2    1   19 1
     3    1   20 1
     4    1   21 1
     5    2    3 1
     6    2   22 1
     7    2   23 1
     8    3    4 1
     9    3   24 1
    10    3   25 1
    11    4   10 am
    12    4    5 1
    13    5   18 1
    14    5    6 2
    15    6    7 1
    16    6   15 1
    17    7    8 2
    18    7    9 am
    19    9   10 am
    20    9   12 1
    21   10   11 2
    22   12   13 1
    23   12   26 1
    24   12   27 1
    25   13   14 1
    26   13   28 1
    27   13   29 1
    28   14   30 1
    29   14   31 1
    30   14   32 1
    31   15   16 1
    32   15   17 1
    33   17   18 2
    34   17   33 1
@<TRIPOS>MOLECULE
ZINC03995438
   43    45     0     0     0
SMALL
USER_CHARGES

@<TRIPOS>ATOM
      1 C1         -0.0187    1.5258    0.0104 C.3       1 <0>        -0.1472
      2 C2          0.0021   -0.0041    0.0020 C.3       1 <0>        -0.1385
      3 C3         -1.4333   -0.5336    0.0129 C.3       1 <0>         0.1187
      4 N1         -1.4134   -1.9985    0.0048 N.am      1 <0>        -0.5081
      5 C4         -1.3926   -2.6970    1.2023 C.2       1 <0>         0.3288
      6 C5         -1.3740   -4.0877    1.1665 C.2       1 <0>        -0.1455
      7 C6         -1.3765   -4.7432   -0.0830 C.2       1 <0>         0.5937
      8 O1         -1.3609   -5.9599   -0.1403 O.2       1 <0>        -0.5103
      9 N2         -1.3969   -4.0072   -1.2136 N.am      1 <0>        -0.5482
     10 C7         -1.4210   -2.6642   -1.1652 C.2       1 <0>         0.7077
     11 O2         -1.4444   -2.0343   -2.2051 O.2       1 <0>        -0.5279
     12 C8         -1.3996   -4.6823   -2.5137 C.3       1 <0>         0.1137
     13 C9         -2.8428   -4.9369   -2.9532 C.3       1 <0>        -0.1381
     14 C10        -2.8456   -5.6420   -4.3111 C.3       1 <0>        -0.1473
     15 N3         -1.3558   -4.5129    2.4806 N.pl3     1 <0>        -0.5143
     16 C11        -1.3636   -3.3942    3.2564 C.2       1 <0>         0.3419
     17 N4         -1.3855   -2.3272    2.4824 N.2       1 <0>        -0.4816
     18 H1         -1.3408   -5.4318    2.7909 H         1 <0>         0.4365
     19 C12        -1.3506   -3.3783    4.7345 C.ar      1 <0>        -0.0386
     20 C13        -1.3225   -4.5776    5.4481 C.ar      1 <0>        -0.0983
     21 C14        -1.3099   -4.5557    6.8275 C.ar      1 <0>        -0.1167
     22 C15        -1.3257   -3.3486    7.5035 C.ar      1 <0>        -0.0959
     23 C16        -1.3536   -2.1562    6.8021 C.ar      1 <0>        -0.1189
     24 C17        -1.3605   -2.1639    5.4226 C.ar      1 <0>        -0.0636
     25 H2          1.0039    1.9031    0.0027 H         1 <0>         0.0609
     26 H3         -0.5459    1.8868   -0.8726 H         1 <0>         0.0590
     27 H4         -0.5289    1.8773    0.9072 H         1 <0>         0.0589
     28 H5          0.5123   -0.3556   -0.8948 H         1 <0>         0.0682
     29 H6          0.5293   -0.3651    0.8851 H         1 <0>         0.0680
     30 H7         -1.9435   -0.1821    0.9097 H         1 <0>         0.0988
     31 H8         -1.9605   -0.1726   -0.8702 H         1 <0>         0.1010
     32 H9         -0.9010   -4.0530   -3.2509 H         1 <0>         0.1037
     33 H10        -0.8720   -5.6325   -2.4309 H         1 <0>         0.1018
     34 H11        -3.3414   -5.5663   -2.2160 H         1 <0>         0.0672
     35 H12        -3.3704   -3.9867   -3.0361 H         1 <0>         0.0695
     36 H13        -3.8738   -5.8234   -4.6241 H         1 <0>         0.0616
     37 H14        -2.3470   -5.0126   -5.0482 H         1 <0>         0.0599
     38 H15        -2.3180   -6.5922   -4.2282 H         1 <0>         0.0589
     39 H16        -1.3109   -5.5205    4.9217 H         1 <0>         0.1224
     40 H17        -1.2882   -5.4829    7.3809 H         1 <0>         0.1324
     41 H18        -1.3165   -3.3370    8.5834 H         1 <0>         0.1304
     42 H19        -1.3657   -1.2174    7.3358 H         1 <0>         0.1340
     43 H20        -1.3782   -1.2324    4.8763 H         1 <0>         0.1414
@<TRIPOS>BOND
     1    1    2 1
     2    1   25 1
     3    1   26 1
     4    1   27 1
     5    2    3 1
     6    2   28 1
     7    2   29 1
     8    3   30 1
     9    3   31 1
    10    3    4 1
    11    4    5 1
    12    4   10 am
    13    5   17 1
    14    5    6 2
    15    6    7 1
    16    6   15 1
    17    7    9 am
    18    7    8 2
    19    9   10 am
    20    9   12 1
    21   10   11 2
    22   12   13 1
    23   12   32 1
    24   12   33 1
    25   13   14 1
    26   13   34 1
    27   13   35 1
    28   14   36 1
    29   14   37 1
    30   14   38 1
    31   15   18 1
    32   15   16 1
    33   16   19 1
    34   16   17 2
    35   19   24 ar
    36   19   20 ar
    37   20   21 ar
    38   20   39 1
    39   21   22 ar
    40   21   40 1
    41   22   23 ar
    42   22   41 1
    43   23   24 ar
    44   23   42 1
    45   24   43 1
@<TRIPOS>MOLECULE
ZINC12476360
   34    36     0     0     0
SMALL
USER_CHARGES

@<TRIPOS>ATOM
      1 C1         -0.0167    1.3789    0.0096 C.ar      1 <0>        -0.0779
      2 C2          1.1942    2.0586    0.0017 C.ar      1 <0>        -0.1712
      3 C3          2.3748    1.3407   -0.0134 C.ar      1 <0>         0.1033
      4 N1          2.3655    0.0226   -0.0208 N.ar      1 <0>        -0.4769
      5 C4          1.2301   -0.6649   -0.0137 C.ar      1 <0>         0.1904
      6 C5          0.0021   -0.0041    0.0020 C.ar      1 <0>        -0.1382
      7 C6          1.2677   -2.1460   -0.0230 C.2       1 <0>         0.1042
      8 C7          2.4656   -2.8066   -0.0337 C.2       1 <0>        -0.1902
      9 S1          1.9069   -4.5052   -0.0411 S.3       1 <0>         0.1203
     10 C8          0.1525   -4.1634   -0.0293 C.2       1 <0>         0.3136
     11 N2          0.1413   -2.8441   -0.0155 N.2       1 <0>        -0.5285
     12 N3         -0.9160   -5.0515   -0.0288 N.am      1 <0>        -0.6087
     13 C9         -0.6882   -6.3799   -0.0377 C.2       1 <0>         0.5211
     14 O1          0.4495   -6.7999   -0.0462 O.2       1 <0>        -0.4927
     15 C10        -1.8471   -7.3431   -0.0372 C.3       1 <0>        -0.1040
     16 C11        -2.6697   -7.1795    1.2576 C.3       1 <0>        -0.1202
     17 C12        -3.1023   -8.6225    1.6176 C.3       1 <0>        -0.1238
     18 C13        -1.8539   -9.4579    1.2400 C.3       1 <0>        -0.1260
     19 C14        -1.3284   -8.7918   -0.0484 C.3       1 <0>        -0.1205
     20 H1         -0.9523    1.9182    0.0259 H         1 <0>         0.1372
     21 H2          1.2130    3.1384    0.0070 H         1 <0>         0.1373
     22 H3          3.3180    1.8667   -0.0196 H         1 <0>         0.1607
     23 H4         -0.9212   -0.5643    0.0082 H         1 <0>         0.1430
     24 H5          3.4707   -2.4115   -0.0372 H         1 <0>         0.2062
     25 H6         -1.8259   -4.7155   -0.0221 H         1 <0>         0.4274
     26 H7         -2.4796   -7.1663   -0.9071 H         1 <0>         0.1106
     27 H8         -2.0527   -6.7572    2.0507 H         1 <0>         0.0726
     28 H9         -3.5433   -6.5529    1.0779 H         1 <0>         0.0791
     29 H10        -3.3160   -8.7072    2.6831 H         1 <0>         0.0726
     30 H11        -3.9646   -8.9267    1.0242 H         1 <0>         0.0731
     31 H12        -1.1052   -9.4035    2.0303 H         1 <0>         0.0684
     32 H13        -2.1322  -10.4941    1.0476 H         1 <0>         0.0714
     33 H14        -1.7099   -9.3183   -0.9232 H         1 <0>         0.0747
     34 H15        -0.2385   -8.7981   -0.0542 H         1 <0>         0.0918
@<TRIPOS>BOND
     1    1    6 ar
     2    1    2 ar
     3    1   20 1
     4    2    3 ar
     5    2   21 1
     6    3    4 ar
     7    3   22 1
     8    4    5 ar
     9    5    6 ar
    10    5    7 1
    11    6   23 1
    12    7   11 1
    13    7    8 2
    14    8    9 1
    15    8   24 1
    16    9   10 1
    17   10   11 2
    18   10   12 1
    19   12   13 am
    20   12   25 1
    21   13   14 2
    22   13   15 1
    23   15   19 1
    24   15   16 1
    25   15   26 1
    26   16   17 1
    27   16   27 1
    28   16   28 1
    29   17   18 1
    30   17   29 1
    31   17   30 1
    32   18   19 1
    33   18   31 1
    34   18   32 1
    35   19   33 1
    36   19   34 1
@<TRIPOS>MOLECULE
ZINC06347226
   31    33     0     0     0
SMALL
USER_CHARGES
3-chloro-N-[4-(2-pyridyl)thiazol-2-yl]benzamide
@<TRIPOS>ATOM
      1 C1         -0.0168    1.3844    0.0097 C.ar      1 <0>        -0.0777
      2 C2          0.0021   -0.0041    0.0020 C.ar      1 <0>        -0.1707
      3 C3          1.2151   -0.6658   -0.0131 C.ar      1 <0>         0.1035
      4 N1          2.3509    0.0030   -0.0208 N.ar      1 <0>        -0.4767
      5 C4          2.3767    1.3300   -0.0139 C.ar      1 <0>         0.1900
      6 C5          1.1893    2.0614    0.0018 C.ar      1 <0>        -0.1380
      7 C6          3.6771    2.0400   -0.0235 C.2       1 <0>         0.1043
      8 C7          4.8492    1.3346   -0.0343 C.2       1 <0>        -0.1873
      9 S1          6.0390    2.6694   -0.0449 S.3       1 <0>         0.1270
     10 C8          4.8640    4.0161   -0.0247 C.2       1 <0>         0.3118
     11 N2          3.7165    3.3646   -0.0163 N.2       1 <0>        -0.5251
     12 N3          5.0969    5.3848   -0.0197 N.am      1 <0>        -0.6051
     13 C9          6.3605    5.8534   -0.0303 C.2       1 <0>         0.5671
     14 O1          7.2963    5.0777   -0.0442 O.2       1 <0>        -0.4875
     15 C10         6.6084    7.3105   -0.0249 C.ar      1 <0>        -0.1237
     16 C11         7.9162    7.7991   -0.0358 C.ar      1 <0>        -0.0460
     17 C12         8.1414    9.1600   -0.0312 C.ar      1 <0>        -0.1099
     18 C13         7.0746   10.0411   -0.0163 C.ar      1 <0>        -0.0748
     19 C14         5.7750    9.5638   -0.0059 C.ar      1 <0>        -0.0425
     20 C15         5.5361    8.2037   -0.0148 C.ar      1 <0>        -0.0758
     21 Cl1         4.4432   10.6773    0.0117 Cl        1 <0>        -0.0535
     22 H1         -0.9524    1.9237    0.0171 H         1 <0>         0.1373
     23 H2         -0.9228   -0.5617    0.0082 H         1 <0>         0.1373
     24 H3          1.2327   -1.7456   -0.0191 H         1 <0>         0.1609
     25 H4          1.2113    3.1412    0.0070 H         1 <0>         0.1432
     26 H5          5.0112    0.2668   -0.0371 H         1 <0>         0.2074
     27 H6          4.3501    6.0038   -0.0086 H         1 <0>         0.4263
     28 H7          8.7501    7.1129   -0.0482 H         1 <0>         0.1488
     29 H8          9.1527    9.5387   -0.0397 H         1 <0>         0.1468
     30 H9          7.2565   11.1056   -0.0131 H         1 <0>         0.1440
     31 H10         4.5220    7.8321   -0.0104 H         1 <0>         0.1385
@<TRIPOS>BOND
     1    1    6 ar
     2    1    2 ar
     3    1   22 1
     4    2    3 ar
     5    2   23 1
     6    3    4 ar
     7    3   24 1
     8    4    5 ar
     9    5    6 ar
    10    5    7 1
    11    6   25 1
    12    7   11 1
    13    7    8 2
    14    8    9 1
    15    8   26 1
    16    9   10 1
    17   10   11 2
    18   10   12 1
    19   12   13 am
    20   12   27 1
    21   13   14 2
    22   13   15 1
    23   15   20 ar
    24   15   16 ar
    25   16   17 ar
    26   16   28 1
    27   17   18 ar
    28   17   29 1
    29   18   19 ar
    30   18   30 1
    31   19   20 ar
    32   19   21 1
    33   20   31 1
@<TRIPOS>MOLECULE
ZINC06346108
   31    33     0     0     0
SMALL
USER_CHARGES
N-[4-(2-pyridyl)thiazol-2-yl]benzamide
@<TRIPOS>ATOM
      1 C1         -0.0167    1.3794    0.0096 C.ar      1 <0>        -0.0834
      2 C2          1.1683    2.0936    0.0021 C.ar      1 <0>        -0.1248
      3 C3          2.3774    1.4296   -0.0130 C.ar      1 <0>        -0.0829
      4 C4          2.4035    0.0338   -0.0213 C.ar      1 <0>        -0.1383
      5 C5          1.2042   -0.6806   -0.0136 C.ar      1 <0>        -0.0505
      6 C6          0.0021   -0.0041    0.0020 C.ar      1 <0>        -0.1254
      7 C7          3.6952   -0.6843   -0.0385 C.2       1 <0>         0.5647
      8 O1          3.7148   -1.8997   -0.0460 O.2       1 <0>        -0.4923
      9 N1          4.8513    0.0084   -0.0458 N.am      1 <0>        -0.6058
     10 C8          6.0646   -0.6662   -0.0620 C.2       1 <0>         0.3139
     11 N2          7.2908   -0.1785   -0.0713 N.2       1 <0>        -0.5273
     12 C9          8.3487   -0.9765   -0.0867 C.2       1 <0>         0.1042
     13 C10         8.1657   -2.3322   -0.0930 C.2       1 <0>        -0.1892
     14 S1          6.3802   -2.4255   -0.0679 S.3       1 <0>         0.1253
     15 C11         9.7161   -0.4060   -0.0964 C.ar      1 <0>         0.1905
     16 C12         9.8884    0.9779   -0.0898 C.ar      1 <0>        -0.1382
     17 C13        11.1711    1.4953   -0.0986 C.ar      1 <0>        -0.0778
     18 C14        12.2424    0.6120   -0.1137 C.ar      1 <0>        -0.1711
     19 C15        11.9997   -0.7484   -0.1194 C.ar      1 <0>         0.1035
     20 N3         10.7675   -1.2162   -0.1058 N.ar      1 <0>        -0.4768
     21 H1         -0.9606    1.9042    0.0169 H         1 <0>         0.1322
     22 H2          1.1467    3.1734    0.0078 H         1 <0>         0.1341
     23 H3          3.3017    1.9882   -0.0193 H         1 <0>         0.1278
     24 H4          1.2175   -1.7605   -0.0202 H         1 <0>         0.1409
     25 H5         -0.9265   -0.5555    0.0080 H         1 <0>         0.1355
     26 H6          4.8356    0.9783   -0.0398 H         1 <0>         0.4260
     27 H7          8.8973   -3.1265   -0.1046 H         1 <0>         0.2068
     28 H8          9.0324    1.6363   -0.0784 H         1 <0>         0.1431
     29 H9         11.3358    2.5626   -0.0942 H         1 <0>         0.1372
     30 H10        13.2560    0.9847   -0.1211 H         1 <0>         0.1372
     31 H11        12.8310   -1.4377   -0.1312 H         1 <0>         0.1608
@<TRIPOS>BOND
     1    1    6 ar
     2    1    2 ar
     3    1   21 1
     4    2    3 ar
     5    2   22 1
     6    3    4 ar
     7    3   23 1
     8    4    5 ar
     9    4    7 1
    10    5    6 ar
    11    5   24 1
    12    6   25 1
    13    7    8 2
    14    7    9 am
    15    9   10 1
    16    9   26 1
    17   10   14 1
    18   10   11 2
    19   11   12 1
    20   12   13 2
    21   12   15 1
    22   13   14 1
    23   13   27 1
    24   15   20 ar
    25   15   16 ar
    26   16   17 ar
    27   16   28 1
    28   17   18 ar
    29   17   29 1
    30   18   19 ar
    31   18   30 1
    32   19   20 ar
    33   19   31 1
@<TRIPOS>MOLECULE
ZINC02889428
   31    33     0     0     0
SMALL
USER_CHARGES
N-(3-phenyl-1,2,4-thiadiazol-5-yl)benzamide
@<TRIPOS>ATOM
      1 C1          0.0021   -0.0041    0.0020 C.ar      1 <0>        -0.0982
      2 C2         -0.0167    1.3790    0.0096 C.ar      1 <0>        -0.1284
      3 C3          1.1675    2.0878    0.0021 C.ar      1 <0>        -0.0705
      4 C4          2.3836    1.4075   -0.0132 C.ar      1 <0>        -0.0340
      5 C5          2.3965    0.0141   -0.0208 C.ar      1 <0>        -0.0752
      6 C6          1.2063   -0.6845   -0.0132 C.ar      1 <0>        -0.1263
      7 C7          3.6599    2.1640   -0.0214 C.2       1 <0>         0.3257
      8 N1          3.6517    3.4832   -0.0142 N.2       1 <0>        -0.5554
      9 C8          4.8088    4.1255   -0.0219 C.2       1 <0>         0.3099
     10 S1          5.9410    2.8112   -0.0399 S.3       1 <0>         0.2878
     11 N2          4.8132    1.5235   -0.0304 N.2       1 <0>        -0.4695
     12 N3          5.0522    5.4906   -0.0176 N.am      1 <0>        -0.6025
     13 C9          6.3196    5.9491   -0.0272 C.2       1 <0>         0.5648
     14 O1          7.2491    5.1660   -0.0397 O.2       1 <0>        -0.4859
     15 C10         6.5791    7.4041   -0.0226 C.ar      1 <0>        -0.1401
     16 C11         5.5137    8.3062   -0.0141 C.ar      1 <0>        -0.0818
     17 C12         5.7630    9.6630   -0.0030 C.ar      1 <0>        -0.1244
     18 C13         7.0653   10.1303   -0.0134 C.ar      1 <0>        -0.0810
     19 C14         8.1257    9.2417   -0.0281 C.ar      1 <0>        -0.1250
     20 C15         7.8906    7.8824   -0.0325 C.ar      1 <0>        -0.0487
     21 H1         -0.9270   -0.5547    0.0083 H         1 <0>         0.1270
     22 H2         -0.9598    1.9053    0.0170 H         1 <0>         0.1292
     23 H3          1.1517    3.1677    0.0078 H         1 <0>         0.1355
     24 H4          3.3362   -0.5182   -0.0323 H         1 <0>         0.1340
     25 H5          1.2151   -1.7645   -0.0194 H         1 <0>         0.1299
     26 H6          4.3104    6.1155   -0.0077 H         1 <0>         0.4284
     27 H7          4.4968    7.9427   -0.0108 H         1 <0>         0.1282
     28 H8          4.9398   10.3620    0.0088 H         1 <0>         0.1351
     29 H9          7.2549   11.1935   -0.0096 H         1 <0>         0.1331
     30 H10         9.1399    9.6130   -0.0358 H         1 <0>         0.1364
     31 H11         8.7192    7.1898   -0.0440 H         1 <0>         0.1419
@<TRIPOS>BOND
     1    1    6 ar
     2    1    2 ar
     3    1   21 1
     4    2    3 ar
     5    2   22 1
     6    3    4 ar
     7    3   23 1
     8    4    5 ar
     9    4    7 1
    10    5    6 ar
    11    5   24 1
    12    6   25 1
    13    7   11 2
    14    7    8 1
    15    8    9 2
    16    9   10 1
    17    9   12 1
    18   10   11 1
    19   12   13 am
    20   12   26 1
    21   13   14 2
    22   13   15 1
    23   15   20 ar
    24   15   16 ar
    25   16   17 ar
    26   16   27 1
    27   17   18 ar
    28   17   28 1
    29   18   19 ar
    30   18   29 1
    31   19   20 ar
    32   19   30 1
    33   20   31 1
@<TRIPOS>MOLECULE
ZINC03872013
   28    31     0     0     0
SMALL
USER_CHARGES

@<TRIPOS>ATOM
      1 C1         -0.0162    1.3433    0.0094 C.2       1 <0>        -0.2195
      2 C2          1.3252    1.7744   -0.0011 C.2       1 <0>        -0.1351
      3 C3          2.0962    0.6548   -0.0144 C.2       1 <0>         0.0399
      4 O1          1.2797   -0.4166   -0.0124 O.3       1 <0>        -0.1525
      5 C4          0.0021   -0.0041    0.0020 C.2       1 <0>        -0.0023
      6 C5          3.5737    0.6193   -0.0292 C.2       1 <0>         0.3445
      7 N1          4.3226   -0.4905   -0.0476 N.2       1 <0>        -0.5018
      8 C6          5.5962   -0.1641   -0.0567 C.2       1 <0>         0.3614
      9 C7          6.8502   -0.9263   -0.0770 C.ar      1 <0>        -0.1117
     10 C8          6.8690   -2.3192   -0.0918 C.ar      1 <0>        -0.0298
     11 C9          8.0788   -2.9807   -0.1111 C.ar      1 <0>        -0.0604
     12 C10         9.2722   -2.2687   -0.1153 C.ar      1 <0>        -0.0566
     13 C11         9.2751   -0.9026   -0.1006 C.ar      1 <0>        -0.1000
     14 C12         8.0651   -0.2038   -0.0819 C.ar      1 <0>         0.1923
     15 N2          8.0311    1.1508   -0.0678 N.2       1 <0>        -0.5514
     16 C13         6.9051    1.8155   -0.0498 C.2       1 <0>         0.6594
     17 N3          5.6826    1.2027   -0.0438 N.pl3     1 <0>        -0.3685
     18 N4          4.3637    1.6764   -0.0320 N.2       1 <0>        -0.2877
     19 N5          6.9524    3.1898   -0.0360 N.pl3     1 <0>        -0.8086
     20 Cl1         8.1113   -4.7163   -0.1296 Cl        1 <0>        -0.0542
     21 H1         -0.8931    1.9736    0.0252 H         1 <0>         0.1603
     22 H2          1.6736    2.7966    0.0008 H         1 <0>         0.1603
     23 H3         -0.8667   -0.6456    0.0074 H         1 <0>         0.2151
     24 H4          5.9438   -2.8764   -0.0879 H         1 <0>         0.1517
     25 H5         10.2107   -2.8029   -0.1301 H         1 <0>         0.1482
     26 H6         10.2110   -0.3636   -0.1038 H         1 <0>         0.1535
     27 H7          7.8086    3.6457   -0.0396 H         1 <0>         0.4305
     28 H8          6.1295    3.7032   -0.0225 H         1 <0>         0.4230
@<TRIPOS>BOND
     1    1    5 2
     2    1    2 1
     3    1   21 1
     4    2    3 2
     5    2   22 1
     6    3    4 1
     7    3    6 1
     8    4    5 1
     9    5   23 1
    10    6   18 2
    11    6    7 1
    12    7    8 2
    13    8   17 1
    14    8    9 1
    15    9   14 ar
    16    9   10 ar
    17   10   11 ar
    18   10   24 1
    19   11   12 ar
    20   11   20 1
    21   12   13 ar
    22   12   25 1
    23   13   14 ar
    24   13   26 1
    25   14   15 1
    26   15   16 2
    27   16   17 1
    28   16   19 1
    29   17   18 1
    30   19   27 1
    31   19   28 1
@<TRIPOS>MOLECULE
ZINC00057676
   28    30     0     0     0
SMALL
USER_CHARGES

@<TRIPOS>ATOM
      1 C1         -0.0167    1.3795    0.0096 C.ar      1 <0>        -0.0930
      2 C2          1.1683    2.0940    0.0021 C.ar      1 <0>        -0.1232
      3 C3          2.3774    1.4304   -0.0130 C.ar      1 <0>        -0.0793
      4 C4          2.4038    0.0341   -0.0208 C.ar      1 <0>        -0.0750
      5 C5          1.2040   -0.6806   -0.0131 C.ar      1 <0>        -0.0802
      6 C6          0.0021   -0.0041    0.0020 C.ar      1 <0>        -0.1208
      7 C7          3.6945   -0.6833   -0.0374 C.2       1 <0>         0.2085
      8 C8          3.6864   -2.0427   -0.0502 C.2       1 <0>        -0.3146
      9 C9          4.9142   -2.7473   -0.0663 C.2       1 <0>         0.4212
     10 O1          4.9455   -3.9669   -0.0785 O.2       1 <0>        -0.4549
     11 C10         6.1533   -1.9489   -0.0683 C.ar      1 <0>        -0.2563
     12 C11         7.4125   -2.5590   -0.0842 C.ar      1 <0>         0.1995
     13 C12         8.5505   -1.7700   -0.0860 C.ar      1 <0>        -0.1780
     14 C13         8.4415   -0.3896   -0.0716 C.ar      1 <0>        -0.0390
     15 C14         7.2039    0.2210   -0.0559 C.ar      1 <0>        -0.1519
     16 C15         6.0482   -0.5488   -0.0543 C.ar      1 <0>         0.1630
     17 O2          4.8300    0.0319   -0.0449 O.3       1 <0>        -0.2195
     18 O3          7.5175   -3.9119   -0.0974 O.3       1 <0>        -0.4761
     19 H1         -0.9606    1.9042    0.0260 H         1 <0>         0.1308
     20 H2          1.1464    3.1738    0.0078 H         1 <0>         0.1325
     21 H3          3.3016    1.9893   -0.0192 H         1 <0>         0.1350
     22 H4          1.2172   -1.7605   -0.0194 H         1 <0>         0.1359
     23 H5         -0.9265   -0.5555    0.0079 H         1 <0>         0.1345
     24 H6          2.7502   -2.5812   -0.0477 H         1 <0>         0.1625
     25 H7          9.5263   -2.2328   -0.0982 H         1 <0>         0.1434
     26 H8          9.3355    0.2164   -0.0724 H         1 <0>         0.1472
     27 H9          7.1342    1.2987   -0.0448 H         1 <0>         0.1469
     28 H10         7.5407   -4.2960   -0.9845 H         1 <0>         0.4010
@<TRIPOS>BOND
     1    1    6 ar
     2    1    2 ar
     3    1   19 1
     4    2    3 ar
     5    2   20 1
     6    3    4 ar
     7    3   21 1
     8    4    5 ar
     9    4    7 1
    10    5    6 ar
    11    5   22 1
    12    6   23 1
    13    7   17 1
    14    7    8 2
    15    8    9 1
    16    8   24 1
    17    9   10 2
    18    9   11 1
    19   11   16 ar
    20   11   12 ar
    21   12   13 ar
    22   12   18 1
    23   13   14 ar
    24   13   25 1
    25   14   15 ar
    26   14   26 1
    27   15   16 ar
    28   15   27 1
    29   16   17 1
    30   18   28 1
@<TRIPOS>MOLECULE
ZINC00006170
   41    45     0     0     0
SMALL
USER_CHARGES

@<TRIPOS>ATOM
      1 C1         -0.0167    1.3781    0.0096 C.ar      1 <0>        -0.1193
      2 C2          1.1709    2.0855    0.0021 C.ar      1 <0>        -0.1177
      3 C3          2.3773    1.4107   -0.0130 C.ar      1 <0>        -0.1123
      4 C4          2.3960    0.0285   -0.0201 C.ar      1 <0>        -0.0863
      5 C5          1.2084   -0.6789   -0.0117 C.ar      1 <0>        -0.1124
      6 C6          0.0021   -0.0041    0.0020 C.ar      1 <0>        -0.1183
      7 C7          3.7112   -0.7071   -0.0376 C.3       1 <0>        -0.0949
      8 C8          4.1714   -0.9633    1.3989 C.3       1 <0>         0.1442
      9 N1          5.4498   -1.6784    1.3820 N.pl3     1 <0>        -0.3547
     10 C9          5.6077   -3.0319    1.3681 C.2       1 <0>         0.3701
     11 C10         6.9900   -3.2725    1.3542 C.2       1 <0>        -0.2670
     12 C11         7.6325   -2.0214    1.3604 C.2       1 <0>         0.1312
     13 N2          6.7200   -1.0888    1.3711 N.2       1 <0>        -0.2630
     14 C12         7.4452   -4.6631    1.3378 C.2       1 <0>         0.4065
     15 N3          8.6257   -5.2466    1.3226 N.2       1 <0>        -0.5161
     16 C13         8.4699   -6.5766    1.3120 C.2       1 <0>         0.3506
     17 N4          7.1818   -6.8637    1.3203 N.2       1 <0>        -0.2997
     18 N5          6.4899   -5.6460    1.3371 N.pl3     1 <0>        -0.3763
     19 C14         5.1670   -5.3111    1.3510 C.2       1 <0>         0.6919
     20 N6          4.7561   -4.0669    1.3656 N.2       1 <0>        -0.5613
     21 N7          4.2296   -6.3175    1.3499 N.pl3     1 <0>        -0.8022
     22 C15         9.5672   -7.5665    1.2938 C.2       1 <0>         0.0423
     23 C16         9.4221   -8.9181    1.2774 C.2       1 <0>        -0.1371
     24 C17        10.7203   -9.4655    1.2629 C.2       1 <0>        -0.2200
     25 C18        11.5847   -8.4318    1.2711 C.2       1 <0>        -0.0041
     26 O1         10.8847   -7.2861    1.2846 O.3       1 <0>        -0.1521
     27 H1         -0.9591    1.9053    0.0259 H         1 <0>         0.1226
     28 H2          1.1563    3.1654    0.0076 H         1 <0>         0.1238
     29 H3          3.3051    1.9634   -0.0196 H         1 <0>         0.1240
     30 H4          1.2231   -1.7588   -0.0176 H         1 <0>         0.1230
     31 H5         -0.9258   -0.5567    0.0082 H         1 <0>         0.1232
     32 H6          3.5884   -1.6586   -0.5549 H         1 <0>         0.0796
     33 H7          4.4573   -0.1052   -0.5563 H         1 <0>         0.0839
     34 H8          4.2941   -0.0118    1.9163 H         1 <0>         0.1036
     35 H9          3.4252   -1.5652    1.9176 H         1 <0>         0.1014
     36 H10         8.7003   -1.8600    1.3531 H         1 <0>         0.2026
     37 H11         4.5137   -7.2449    1.3395 H         1 <0>         0.4264
     38 H12         3.2844   -6.0999    1.3596 H         1 <0>         0.4303
     39 H13         8.4916   -9.4663    1.2762 H         1 <0>         0.1599
     40 H14        10.9745  -10.5151    1.2484 H         1 <0>         0.1594
     41 H15        12.6618   -8.5115    1.2638 H         1 <0>         0.2142
@<TRIPOS>BOND
     1    1    6 ar
     2    1    2 ar
     3    1   27 1
     4    2    3 ar
     5    2   28 1
     6    3    4 ar
     7    3   29 1
     8    4    5 ar
     9    4    7 1
    10    5    6 ar
    11    5   30 1
    12    6   31 1
    13    7    8 1
    14    7   32 1
    15    7   33 1
    16    8    9 1
    17    8   34 1
    18    8   35 1
    19    9   13 1
    20    9   10 1
    21   10   20 1
    22   10   11 2
    23   11   12 1
    24   11   14 1
    25   12   13 2
    26   12   36 1
    27   14   18 1
    28   14   15 2
    29   15   16 1
    30   16   17 2
    31   16   22 1
    32   17   18 1
    33   18   19 1
    34   19   20 2
    35   19   21 1
    36   21   37 1
    37   21   38 1
    38   22   26 1
    39   22   23 2
    40   23   24 1
    41   23   39 1
    42   24   25 2
    43   24   40 1
    44   25   26 1
    45   25   41 1
@<TRIPOS>MOLECULE
ZINC03814313
   34    36     0     0     0
SMALL
USER_CHARGES

@<TRIPOS>ATOM
      1 C1         -0.0168    1.3861    0.0097 C.ar      1 <0>        -0.2443
      2 C2          1.1782    2.0824    0.0020 C.ar      1 <0>         0.2226
      3 N1          2.3382    1.4569   -0.0129 N.ar      1 <0>        -0.4888
      4 C3          2.4172    0.1336   -0.0208 C.ar      1 <0>         0.2727
      5 C4          1.2518   -0.6475   -0.0134 C.ar      1 <0>        -0.0190
      6 C5          0.0021   -0.0041    0.0020 C.ar      1 <0>         0.3894
      7 N2         -1.1804   -0.7364    0.0098 N.pl3     1 <0>        -0.7887
      8 N3          1.6393   -1.9475   -0.0242 N.2       1 <0>        -0.4459
      9 C6          2.9384   -2.0127   -0.0374 C.2       1 <0>         0.3051
     10 N4          3.4679   -0.7577   -0.0360 N.pl3     1 <0>        -0.4678
     11 C7          4.8929   -0.4179   -0.0487 C.3       1 <0>         0.2942
     12 H1          5.0627    0.4803   -0.6424 H         1 <0>         0.1255
     13 C8          5.4104   -0.2158    1.3927 C.3       1 <0>         0.0729
     14 H2          4.7848   -0.7569    2.1025 H         1 <0>         0.0952
     15 C9          6.8368   -0.8092    1.3661 C.3       1 <0>         0.0502
     16 H3          6.9163   -1.6437    2.0628 H         1 <0>         0.0952
     17 C10         7.0122   -1.2997   -0.0882 C.3       1 <0>         0.0495
     18 H4          7.5089   -0.5374   -0.6884 H         1 <0>         0.1065
     19 O1          5.6677   -1.5194   -0.5705 O.3       1 <0>        -0.3359
     20 C11         7.8117   -2.6039   -0.1177 C.3       1 <0>         0.0798
     21 O2          8.0625   -2.9783   -1.4737 O.3       1 <0>        -0.5648
     22 O3          7.8032    0.1960    1.6784 O.3       1 <0>        -0.5394
     23 O4          5.4496    1.1746    1.7202 O.3       1 <0>        -0.5452
     24 H5         -0.9567    1.9179    0.0260 H         1 <0>         0.1890
     25 H6          1.1605    3.1623    0.0080 H         1 <0>         0.2169
     26 H7         -2.0350   -0.2775    0.0208 H         1 <0>         0.4265
     27 H8         -1.1505   -1.7059    0.0043 H         1 <0>         0.4297
     28 H9          3.5127   -2.9273   -0.0481 H         1 <0>         0.2433
     29 H10         8.7596   -2.4607    0.4010 H         1 <0>         0.0733
     30 H11         7.2420   -3.3905    0.3770 H         1 <0>         0.0636
     31 H12         8.5663   -3.7982   -1.5686 H         1 <0>         0.3935
     32 H13         8.7164   -0.1220    1.6760 H         1 <0>         0.3967
     33 H14         5.7674    1.3592    2.6147 H         1 <0>         0.4072
     34 H15         3.1559    1.9787   -0.0185 H         1 <0>         0.4414
@<TRIPOS>BOND
     1    1    6 ar
     2    1    2 ar
     3    1   24 1
     4    2    3 ar
     5    2   25 1
     6    3    4 ar
     7    3   34 1
     8    4   10 1
     9    4    5 ar
    10    5    6 ar
    11    5    8 1
    12    6    7 1
    13    7   26 1
    14    7   27 1
    15    8    9 2
    16    9   10 1
    17    9   28 1
    18   10   11 1
    19   11   12 1
    20   11   19 1
    21   11   13 1
    22   13   14 1
    23   13   15 1
    24   13   23 1
    25   15   16 1
    26   15   17 1
    27   15   22 1
    28   17   18 1
    29   17   19 1
    30   17   20 1
    31   20   21 1
    32   20   29 1
    33   20   30 1
    34   21   31 1
    35   22   32 1
    36   23   33 1
@<TRIPOS>MOLECULE
ZINC03814313
   33    35     0     0     0
SMALL
USER_CHARGES

@<TRIPOS>ATOM
      1 C1         -0.0168    1.3861    0.0097 C.ar      1 <0>        -0.2828
      2 C2          1.1782    2.0824    0.0020 C.ar      1 <0>         0.1858
      3 N1          2.3382    1.4569   -0.0129 N.ar      1 <0>        -0.5191
      4 C3          2.4172    0.1336   -0.0208 C.ar      1 <0>         0.2915
      5 C4          1.2518   -0.6475   -0.0134 C.ar      1 <0>        -0.0681
      6 C5          0.0021   -0.0041    0.0020 C.ar      1 <0>         0.3135
      7 N2         -1.1804   -0.7364    0.0098 N.pl3     1 <0>        -0.8493
      8 N3          1.6393   -1.9475   -0.0242 N.2       1 <0>        -0.4750
      9 C6          2.9384   -2.0127   -0.0374 C.2       1 <0>         0.2645
     10 N4          3.4679   -0.7577   -0.0360 N.pl3     1 <0>        -0.4800
     11 C7          4.8929   -0.4179   -0.0487 C.3       1 <0>         0.3160
     12 H1          5.0627    0.4803   -0.6424 H         1 <0>         0.1211
     13 C8          5.4104   -0.2158    1.3927 C.3       1 <0>         0.0798
     14 H2          4.7848   -0.7569    2.1025 H         1 <0>         0.0847
     15 C9          6.8368   -0.8092    1.3661 C.3       1 <0>         0.0468
     16 H3          6.9163   -1.6437    2.0628 H         1 <0>         0.0862
     17 C10         7.0122   -1.2997   -0.0882 C.3       1 <0>         0.0504
     18 H4          7.5089   -0.5374   -0.6884 H         1 <0>         0.0994
     19 O1          5.6677   -1.5194   -0.5705 O.3       1 <0>        -0.3480
     20 C11         7.8117   -2.6039   -0.1177 C.3       1 <0>         0.0821
     21 O2          8.0625   -2.9783   -1.4737 O.3       1 <0>        -0.5634
     22 O3          7.8032    0.1960    1.6784 O.3       1 <0>        -0.5390
     23 O4          5.4496    1.1746    1.7202 O.3       1 <0>        -0.5251
     24 H5         -0.9567    1.9179    0.0260 H         1 <0>         0.1407
     25 H6          1.1605    3.1623    0.0080 H         1 <0>         0.1653
     26 H7         -2.0350   -0.2775    0.0208 H         1 <0>         0.4044
     27 H8         -1.1505   -1.7059    0.0043 H         1 <0>         0.4091
     28 H9          3.5127   -2.9273   -0.0481 H         1 <0>         0.2186
     29 H10         8.7596   -2.4607    0.4010 H         1 <0>         0.0665
     30 H11         7.2420   -3.3905    0.3770 H         1 <0>         0.0607
     31 H12         8.5663   -3.7982   -1.5686 H         1 <0>         0.3864
     32 H13         8.7164   -0.1220    1.6760 H         1 <0>         0.3867
     33 H14         5.7674    1.3592    2.6147 H         1 <0>         0.3895
@<TRIPOS>BOND
     1    1    6 ar
     2    1    2 ar
     3    1   24 1
     4    2    3 ar
     5    2   25 1
     6    3    4 ar
     7    4   10 1
     8    4    5 ar
     9    5    6 ar
    10    5    8 1
    11    6    7 1
    12    7   26 1
    13    7   27 1
    14    8    9 2
    15    9   10 1
    16    9   28 1
    17   10   11 1
    18   11   12 1
    19   11   19 1
    20   11   13 1
    21   13   14 1
    22   13   15 1
    23   13   23 1
    24   15   16 1
    25   15   17 1
    26   15   22 1
    27   17   18 1
    28   17   19 1
    29   17   20 1
    30   20   21 1
    31   20   29 1
    32   20   30 1
    33   21   31 1
    34   22   32 1
    35   23   33 1
@<TRIPOS>MOLECULE
ZINC03777854
   58    60     0     0     0
SMALL
USER_CHARGES
8-[2-(3,4-dimethoxyphenyl)vinyl]-7-methyl-1,3-dipropyl-purine-2,6-dione
@<TRIPOS>ATOM
      1 C1          4.8978    4.2719   -1.4656 C.3       1 <0>        -0.1469
      2 C2          3.4469    3.7865   -1.4538 C.3       1 <0>        -0.1382
      3 C3          2.9776    3.6168   -0.0075 C.3       1 <0>         0.1198
      4 N1          1.5884    3.1520    0.0038 N.am      1 <0>        -0.5087
      5 C4          1.3129    1.7928   -0.0008 C.2       1 <0>         0.3262
      6 C5         -0.0167    1.3786    0.0096 C.2       1 <0>        -0.1515
      7 C6         -1.0384    2.3497    0.0297 C.2       1 <0>         0.5946
      8 O1         -2.2089    2.0120    0.0441 O.2       1 <0>        -0.5131
      9 N2         -0.7059    3.6571    0.0284 N.am      1 <0>        -0.5492
     10 C7          0.5810    4.0447    0.0182 C.2       1 <0>         0.7076
     11 O2          0.8420    5.2324    0.0225 O.2       1 <0>        -0.5306
     12 C8         -1.7640    4.6703    0.0445 C.3       1 <0>         0.1142
     13 C9         -2.1463    5.0312   -1.3923 C.3       1 <0>        -0.1372
     14 C10        -3.2513    6.0893   -1.3756 C.3       1 <0>        -0.1472
     15 N3          0.0021   -0.0041    0.0020 N.pl3     1 <0>        -0.4096
     16 C11         1.3152   -0.3793   -0.0125 C.2       1 <0>         0.3257
     17 N4          2.0762    0.7027   -0.0140 N.2       1 <0>        -0.4894
     18 C12         1.8030   -1.7597   -0.0242 C.2       1 <0>        -0.1249
     19 C13         3.1286   -2.0062   -0.0382 C.2       1 <0>        -0.0161
     20 C14         3.6188   -3.3932   -0.0499 C.ar      1 <0>        -0.0744
     21 C15         2.7114   -4.4579   -0.0464 C.ar      1 <0>        -0.0952
     22 C16         3.1732   -5.7562   -0.0574 C.ar      1 <0>        -0.1761
     23 C17         4.5376   -6.0112   -0.0722 C.ar      1 <0>         0.1147
     24 C18         5.4480   -4.9557   -0.0762 C.ar      1 <0>         0.0988
     25 C19         4.9936   -3.6511   -0.0702 C.ar      1 <0>        -0.1474
     26 O3          6.7838   -5.2103   -0.0907 O.3       1 <0>        -0.3052
     27 C20         7.6594   -4.0810   -0.0940 C.3       1 <0>         0.0239
     28 O4          4.9870   -7.2935   -0.0834 O.3       1 <0>        -0.3033
     29 C21         4.0000   -8.3270   -0.0790 C.3       1 <0>         0.0240
     30 C22        -1.1615   -0.8942    0.0083 C.3       1 <0>         0.0695
     31 H1          4.9651    5.2284   -0.9471 H         1 <0>         0.0589
     32 H2          5.5298    3.5404   -0.9619 H         1 <0>         0.0585
     33 H3          5.2322    4.3928   -2.4959 H         1 <0>         0.0605
     34 H4          3.3796    2.8300   -1.9722 H         1 <0>         0.0676
     35 H5          2.8149    4.5179   -1.9574 H         1 <0>         0.0677
     36 H6          3.0449    4.5732    0.5109 H         1 <0>         0.0999
     37 H7          3.6096    2.8853    0.4962 H         1 <0>         0.0980
     38 H8         -2.6369    4.2757    0.5645 H         1 <0>         0.1011
     39 H9         -1.4060    5.5614    0.5600 H         1 <0>         0.1028
     40 H10        -1.2733    5.4258   -1.9124 H         1 <0>         0.0689
     41 H11        -2.5043    4.1401   -1.9079 H         1 <0>         0.0668
     42 H12        -4.1242    5.6948   -0.8555 H         1 <0>         0.0588
     43 H13        -2.8933    6.9805   -0.8601 H         1 <0>         0.0598
     44 H14        -3.5237    6.3465   -2.3992 H         1 <0>         0.0613
     45 H15         1.1011   -2.5805   -0.0215 H         1 <0>         0.1415
     46 H16         3.8305   -1.1854   -0.0408 H         1 <0>         0.1396
     47 H17         1.6493   -4.2624   -0.0356 H         1 <0>         0.1317
     48 H18         2.4718   -6.5774   -0.0547 H         1 <0>         0.1399
     49 H19         5.6980   -2.8325   -0.0774 H         1 <0>         0.1422
     50 H20         7.4672   -3.4747   -0.9791 H         1 <0>         0.0568
     51 H21         7.4849   -3.4834    0.8007 H         1 <0>         0.0569
     52 H22         8.6941   -4.4236   -0.1060 H         1 <0>         0.1028
     53 H23         4.4922   -9.2995   -0.0890 H         1 <0>         0.1031
     54 H24         3.3863   -8.2395    0.8176 H         1 <0>         0.0571
     55 H25         3.3687   -8.2302   -0.9623 H         1 <0>         0.0571
     56 H26        -1.4599   -1.1094   -1.0177 H         1 <0>         0.0878
     57 H27        -0.9044   -1.8246    0.5148 H         1 <0>         0.0956
     58 H28        -1.9858   -0.4109    0.5327 H         1 <0>         0.1025
@<TRIPOS>BOND
     1    1    2 1
     2    1   31 1
     3    1   32 1
     4    1   33 1
     5    2    3 1
     6    2   34 1
     7    2   35 1
     8    3    4 1
     9    3   36 1
    10    3   37 1
    11    4   10 am
    12    4    5 1
    13    5   17 1
    14    5    6 2
    15    6    7 1
    16    6   15 1
    17    7    8 2
    18    7    9 am
    19    9   10 am
    20    9   12 1
    21   10   11 2
    22   12   13 1
    23   12   38 1
    24   12   39 1
    25   13   14 1
    26   13   40 1
    27   13   41 1
    28   14   42 1
    29   14   43 1
    30   14   44 1
    31   15   16 1
    32   15   30 1
    33   16   17 2
    34   16   18 1
    35   18   19 2
    36   18   45 1
    37   19   20 1
    38   19   46 1
    39   20   25 ar
    40   20   21 ar
    41   21   22 ar
    42   21   47 1
    43   22   23 ar
    44   22   48 1
    45   23   24 ar
    46   23   28 1
    47   24   25 ar
    48   24   26 1
    49   25   49 1
    50   26   27 1
    51   27   50 1
    52   27   51 1
    53   27   52 1
    54   28   29 1
    55   29   53 1
    56   29   54 1
    57   29   55 1
    58   30   56 1
    59   30   57 1
    60   30   58 1
@<TRIPOS>MOLECULE
ZINC03777854
   59    61     0     0     0
SMALL
USER_CHARGES
8-[2-(3,4-dimethoxyphenyl)vinyl]-7-methyl-1,3-dipropyl-purine-2,6-dione
@<TRIPOS>ATOM
      1 C1          4.8978    4.2719   -1.4656 C.3       1 <0>        -0.1533
      2 C2          3.4469    3.7865   -1.4538 C.3       1 <0>        -0.1443
      3 C3          2.9776    3.6168   -0.0075 C.3       1 <0>         0.0964
      4 N1          1.5884    3.1520    0.0038 N.am      1 <0>        -0.5120
      5 C4          1.3129    1.7928   -0.0008 C.2       1 <0>         0.3546
      6 C5         -0.0167    1.3786    0.0096 C.2       1 <0>        -0.0804
      7 C6         -1.0384    2.3497    0.0297 C.2       1 <0>         0.5901
      8 O1         -2.2089    2.0120    0.0441 O.2       1 <0>        -0.4679
      9 N2         -0.7059    3.6571    0.0284 N.am      1 <0>        -0.5401
     10 C7          0.5810    4.0447    0.0182 C.2       1 <0>         0.7084
     11 O2          0.8420    5.2324    0.0225 O.2       1 <0>        -0.4838
     12 C8         -1.7640    4.6703    0.0445 C.3       1 <0>         0.1075
     13 C9         -2.1463    5.0312   -1.3923 C.3       1 <0>        -0.1377
     14 C10        -3.2513    6.0893   -1.3756 C.3       1 <0>        -0.1509
     15 N3          0.0021   -0.0041    0.0020 N.pl3     1 <0>        -0.3572
     16 C11         1.3152   -0.3793   -0.0125 C.cat     1 <0>         0.4130
     17 C12         1.8030   -1.7597   -0.0242 C.2       1 <0>        -0.1952
     18 C13         3.1286   -2.0062   -0.0382 C.2       1 <0>         0.0501
     19 C14         3.6188   -3.3932   -0.0499 C.ar      1 <0>        -0.1173
     20 C15         2.7114   -4.4579   -0.0464 C.ar      1 <0>        -0.0677
     21 C16         3.1732   -5.7562   -0.0574 C.ar      1 <0>        -0.1844
     22 C17         4.5376   -6.0112   -0.0722 C.ar      1 <0>         0.1495
     23 C18         5.4480   -4.9557   -0.0762 C.ar      1 <0>         0.0982
     24 C19         4.9936   -3.6511   -0.0702 C.ar      1 <0>        -0.1343
     25 O3          6.7838   -5.2103   -0.0907 O.3       1 <0>        -0.2990
     26 C20         7.6594   -4.0810   -0.0940 C.3       1 <0>         0.0226
     27 O4          4.9870   -7.2935   -0.0834 O.3       1 <0>        -0.2946
     28 C21         4.0000   -8.3270   -0.0790 C.3       1 <0>         0.0196
     29 C22        -1.1615   -0.8942    0.0083 C.3       1 <0>         0.0544
     30 H1          4.9651    5.2284   -0.9471 H         1 <0>         0.0682
     31 H2          5.5298    3.5404   -0.9619 H         1 <0>         0.0598
     32 H3          5.2322    4.3928   -2.4959 H         1 <0>         0.0715
     33 H4          3.3796    2.8300   -1.9722 H         1 <0>         0.0637
     34 H5          2.8149    4.5179   -1.9574 H         1 <0>         0.0832
     35 H6          3.0449    4.5732    0.5109 H         1 <0>         0.1273
     36 H7          3.6096    2.8853    0.4962 H         1 <0>         0.0950
     37 H8         -2.6369    4.2757    0.5645 H         1 <0>         0.1119
     38 H9         -1.4060    5.5614    0.5600 H         1 <0>         0.1126
     39 H10        -1.2733    5.4258   -1.9124 H         1 <0>         0.0707
     40 H11        -2.5043    4.1401   -1.9079 H         1 <0>         0.0693
     41 H12        -4.1242    5.6948   -0.8555 H         1 <0>         0.0624
     42 H13        -2.8933    6.9805   -0.8601 H         1 <0>         0.0630
     43 H14        -3.5237    6.3465   -2.3992 H         1 <0>         0.0670
     44 H15         1.1011   -2.5805   -0.0215 H         1 <0>         0.1768
     45 H16         3.8305   -1.1854   -0.0408 H         1 <0>         0.1285
     46 H17         1.6493   -4.2624   -0.0356 H         1 <0>         0.1364
     47 H18         2.4718   -6.5774   -0.0547 H         1 <0>         0.1488
     48 H19         5.6980   -2.8325   -0.0774 H         1 <0>         0.1450
     49 H20         7.4672   -3.4747   -0.9791 H         1 <0>         0.0576
     50 H21         7.4849   -3.4834    0.8007 H         1 <0>         0.0576
     51 H22         8.6941   -4.4236   -0.1060 H         1 <0>         0.1091
     52 H23         4.4922   -9.2995   -0.0890 H         1 <0>         0.1109
     53 H24         3.3863   -8.2395    0.8176 H         1 <0>         0.0624
     54 H25         3.3687   -8.2302   -0.9623 H         1 <0>         0.0624
     55 H26        -1.4599   -1.1094   -1.0177 H         1 <0>         0.1182
     56 H27        -0.9044   -1.8246    0.5148 H         1 <0>         0.1204
     57 H28        -1.9858   -0.4109    0.5327 H         1 <0>         0.1282
     58 N4          2.0788    0.7027   -0.0140 N.pl3     1 <0>        -0.5084
     59 H29         3.1055    0.7016   -0.0239 H         1 <0>         0.4765
@<TRIPOS>BOND
     1    1    2 1
     2    1   30 1
     3    1   31 1
     4    1   32 1
     5    2    3 1
     6    2   33 1
     7    2   34 1
     8    3    4 1
     9    3   35 1
    10    3   36 1
    11    4   10 am
    12    4    5 1
    13    5    6 2
    14    5   58 1
    15    6    7 1
    16    6   15 1
    17    7    8 2
    18    7    9 am
    19    9   10 am
    20    9   12 1
    21   10   11 2
    22   12   13 1
    23   12   37 1
    24   12   38 1
    25   13   14 1
    26   13   39 1
    27   13   40 1
    28   14   41 1
    29   14   42 1
    30   14   43 1
    31   15   16 1
    32   15   29 1
    33   16   17 1
    34   16   58 2
    35   17   18 2
    36   17   44 1
    37   18   19 1
    38   18   45 1
    39   19   24 ar
    40   19   20 ar
    41   20   21 ar
    42   20   46 1
    43   21   22 ar
    44   21   47 1
    45   22   23 ar
    46   22   27 1
    47   23   24 ar
    48   23   25 1
    49   24   48 1
    50   25   26 1
    51   26   49 1
    52   26   50 1
    53   26   51 1
    54   27   28 1
    55   28   52 1
    56   28   53 1
    57   28   54 1
    58   29   55 1
    59   29   56 1
    60   29   57 1
    61   58   59 1
@<TRIPOS>MOLECULE
ZINC03977757
   46    48     0     0     0
SMALL
USER_CHARGES

@<TRIPOS>ATOM
      1 C1         -0.0187    1.5258    0.0104 C.3       1 <0>        -0.1472
      2 C2          0.0021   -0.0041    0.0020 C.3       1 <0>        -0.1381
      3 C3          0.7182   -0.4975   -1.2568 C.3       1 <0>         0.1189
      4 N1          0.7381   -1.9623   -1.2648 N.am      1 <0>        -0.5078
      5 C4         -0.2978   -2.6649   -1.8590 C.2       1 <0>         0.3255
      6 C5         -0.2556   -4.0535   -1.8540 C.2       1 <0>        -0.1555
      7 C6          0.8381   -4.7062   -1.2456 C.2       1 <0>         0.5940
      8 O1          0.8979   -5.9226   -1.2287 O.2       1 <0>        -0.5124
      9 N2          1.8167   -3.9668   -0.6832 N.am      1 <0>        -0.5486
     10 C7          1.7657   -2.6237   -0.6997 C.2       1 <0>         0.7072
     11 O2          2.6683   -1.9900   -0.1875 O.2       1 <0>        -0.5292
     12 C8          2.9547   -4.6379   -0.0500 C.3       1 <0>         0.1138
     13 C9          4.0598   -4.8545   -1.0857 C.3       1 <0>        -0.1378
     14 C10         5.2482   -5.5554   -0.4244 C.3       1 <0>        -0.1473
     15 N3         -1.3974   -4.4770   -2.5042 N.pl3     1 <0>        -0.5132
     16 C11        -2.0744   -3.3715   -2.8713 C.2       1 <0>         0.3078
     17 N4         -1.4199   -2.3052   -2.4875 N.2       1 <0>        -0.4912
     18 H1         -1.6621   -5.3960   -2.6660 H         1 <0>         0.4346
     19 C12        -3.3868   -3.3639   -3.6120 C.3       1 <0>        -0.0167
     20 C13        -4.2245   -4.5971   -3.2154 C.3       1 <0>        -0.1246
     21 C14        -4.9262   -5.0185   -4.5304 C.3       1 <0>        -0.1243
     22 C15        -3.8330   -4.7644   -5.5978 C.3       1 <0>        -0.1288
     23 C16        -3.1379   -3.4703   -5.1267 C.3       1 <0>        -0.1169
     24 H2          1.0039    1.9031    0.0027 H         1 <0>         0.0589
     25 H3         -0.5459    1.8868   -0.8726 H         1 <0>         0.0589
     26 H4         -0.5289    1.8773    0.9072 H         1 <0>         0.0608
     27 H5          0.5293   -0.3651    0.8851 H         1 <0>         0.0678
     28 H6         -1.0205   -0.3814    0.0098 H         1 <0>         0.0678
     29 H7          0.1910   -0.1364   -2.1398 H         1 <0>         0.0985
     30 H8          1.7408   -0.1202   -1.2645 H         1 <0>         0.1003
     31 H9          3.3348   -4.0193    0.7630 H         1 <0>         0.1032
     32 H10         2.6339   -5.6014    0.3460 H         1 <0>         0.1014
     33 H11         3.6796   -5.4731   -1.8987 H         1 <0>         0.0670
     34 H12         4.3806   -3.8910   -1.4817 H         1 <0>         0.0693
     35 H13         6.0355   -5.7097   -1.1623 H         1 <0>         0.0615
     36 H14         5.6284   -4.9368    0.3886 H         1 <0>         0.0599
     37 H15         4.9274   -6.5189   -0.0284 H         1 <0>         0.0589
     38 H16        -3.9368   -2.4501   -3.3872 H         1 <0>         0.1178
     39 H17        -3.5783   -5.3972   -2.8545 H         1 <0>         0.0623
     40 H18        -4.9618   -4.3300   -2.4582 H         1 <0>         0.0823
     41 H19        -5.2000   -6.0732   -4.5013 H         1 <0>         0.0738
     42 H20        -5.8012   -4.3962   -4.7179 H         1 <0>         0.0762
     43 H21        -3.1235   -5.5916   -5.6216 H         1 <0>         0.0665
     44 H22        -4.2844   -4.6194   -6.5792 H         1 <0>         0.0743
     45 H23        -3.5678   -2.6085   -5.6372 H         1 <0>         0.0823
     46 H24        -2.0678   -3.5274   -5.3261 H         1 <0>         0.0684
@<TRIPOS>BOND
     1    1    2 1
     2    1   24 1
     3    1   25 1
     4    1   26 1
     5    2    3 1
     6    2   27 1
     7    2   28 1
     8    3   29 1
     9    3   30 1
    10    3    4 1
    11    4    5 1
    12    4   10 am
    13    5   17 1
    14    5    6 2
    15    6    7 1
    16    6   15 1
    17    7    9 am
    18    7    8 2
    19    9   10 am
    20    9   12 1
    21   10   11 2
    22   12   13 1
    23   12   31 1
    24   12   32 1
    25   13   14 1
    26   13   33 1
    27   13   34 1
    28   14   35 1
    29   14   36 1
    30   14   37 1
    31   15   18 1
    32   15   16 1
    33   16   19 1
    34   16   17 2
    35   19   23 1
    36   19   20 1
    37   19   38 1
    38   20   21 1
    39   20   39 1
    40   20   40 1
    41   21   22 1
    42   21   41 1
    43   21   42 1
    44   22   23 1
    45   22   43 1
    46   22   44 1
    47   23   45 1
    48   23   46 1
@<TRIPOS>MOLECULE
ZINC03995845
   48    51     0     0     0
SMALL
USER_CHARGES
5-[2-chloro-6-[(3-iodophenyl)methylamino]purin-9-yl]-3,4-dihydroxy-N-methyl-tetrahydrofuran-2-carboxamide
@<TRIPOS>ATOM
      1 C1         -3.5156   -0.8102    1.9233 C.3       1 <0>         0.0861
      2 N1         -2.6417    0.1999    1.3215 N.am      1 <0>        -0.7300
      3 C2         -1.5096    0.5727    1.9507 C.2       1 <0>         0.5159
      4 O1         -1.2144    0.0718    3.0151 O.2       1 <0>        -0.5022
      5 C3         -0.6107    1.6118    1.3317 C.3       1 <0>         0.0319
      6 H1         -1.1613    2.5364    1.1584 H         1 <0>         0.1217
      7 C4         -0.0127    1.0858    0.0080 C.3       1 <0>         0.0511
      8 H2          0.0021   -0.0041    0.0020 H         1 <0>         0.0923
      9 C5          1.4269    1.6468   -0.0027 C.3       1 <0>         0.0805
     10 H3          2.1534    0.8343   -0.0140 H         1 <0>         0.0905
     11 C6          1.5284    2.4454    1.3158 C.3       1 <0>         0.3123
     12 H4          1.3078    3.4982    1.1397 H         1 <0>         0.1301
     13 O2          0.5316    1.8583    2.1804 O.3       1 <0>        -0.3264
     14 N2          2.8630    2.2959    1.9011 N.pl3     1 <0>        -0.4705
     15 C7          3.2280    1.3965    2.8585 C.2       1 <0>         0.2840
     16 N3          4.4896    1.5386    3.1441 N.2       1 <0>        -0.4479
     17 C8          5.0109    2.5415    2.3970 C.ar      1 <0>        -0.0590
     18 C9          3.9735    3.0393    1.5906 C.ar      1 <0>         0.3145
     19 N4          4.2284    4.0408    0.7548 N.ar      1 <0>        -0.5110
     20 C10         5.4360    4.5628    0.6810 C.ar      1 <0>         0.4116
     21 N5          6.4423    4.1279    1.4192 N.ar      1 <0>        -0.5534
     22 C11         6.2816    3.1303    2.2825 C.ar      1 <0>         0.4581
     23 N6          7.3414    2.6815    3.0508 N.pl3     1 <0>        -0.5899
     24 C12         8.6593    3.3075    2.9179 C.3       1 <0>         0.1056
     25 C13         9.6298    2.6396    3.8576 C.ar      1 <0>        -0.0890
     26 C14        10.3623    1.5466    3.4327 C.ar      1 <0>        -0.0720
     27 C15        11.2531    0.9343    4.2939 C.ar      1 <0>        -0.1148
     28 C16        11.4113    1.4139    5.5808 C.ar      1 <0>        -0.0782
     29 C17        10.6786    2.5066    6.0062 C.ar      1 <0>        -0.0999
     30 C18         9.7917    3.1230    5.1421 C.ar      1 <0>        -0.0750
     31 I1         10.9181    3.2339    7.9562 I         1 <0>        -0.0401
     32 Cl1         5.7156    5.8697   -0.4269 Cl        1 <0>         0.0391
     33 O3          1.6201    2.5086   -1.1262 O.3       1 <0>        -0.5236
     34 O4         -0.7516    1.5814   -1.1102 O.3       1 <0>        -0.5325
     35 H5         -2.9634   -1.7420    2.0457 H         1 <0>         0.0652
     36 H6         -3.8585   -0.4605    2.8971 H         1 <0>         0.0657
     37 H7         -4.3752   -0.9798    1.2749 H         1 <0>         0.0828
     38 H8         -2.8779    0.6005    0.4703 H         1 <0>         0.4001
     39 H9          2.5679    0.6715    3.3114 H         1 <0>         0.2324
     40 H10         7.1195    2.7889    4.0199 H         1 <0>         0.3725
     41 H11         9.0121    3.1974    1.8925 H         1 <0>         0.0987
     42 H12         8.5850    4.3666    3.1648 H         1 <0>         0.0697
     43 H13        10.2386    1.1715    2.4275 H         1 <0>         0.1318
     44 H14        11.8255    0.0808    3.9616 H         1 <0>         0.1339
     45 H15        12.1075    0.9354    6.2537 H         1 <0>         0.1305
     46 H16         9.2225    3.9793    5.4726 H         1 <0>         0.1288
     47 H17         1.5077    2.0712   -1.9813 H         1 <0>         0.3936
     48 H18        -1.6713    1.2840   -1.1370 H         1 <0>         0.3843
@<TRIPOS>BOND
     1    1    2 1
     2    1   35 1
     3    1   36 1
     4    1   37 1
     5    2    3 am
     6    2   38 1
     7    3    4 2
     8    3    5 1
     9    5    6 1
    10    5   13 1
    11    5    7 1
    12    7    8 1
    13    7    9 1
    14    7   34 1
    15    9   10 1
    16    9   11 1
    17    9   33 1
    18   11   12 1
    19   11   13 1
    20   11   14 1
    21   14   18 1
    22   14   15 1
    23   15   16 2
    24   15   39 1
    25   16   17 1
    26   17   22 ar
    27   17   18 ar
    28   18   19 ar
    29   19   20 ar
    30   20   21 ar
    31   20   32 1
    32   21   22 ar
    33   22   23 1
    34   23   24 1
    35   23   40 1
    36   24   25 1
    37   24   41 1
    38   24   42 1
    39   25   30 ar
    40   25   26 ar
    41   26   27 ar
    42   26   43 1
    43   27   28 ar
    44   27   44 1
    45   28   29 ar
    46   28   45 1
    47   29   30 ar
    48   29   31 1
    49   30   46 1
    50   33   47 1
    51   34   48 1
@<TRIPOS>MOLECULE
ZINC18043251
   21    22     0     0     0
SMALL
USER_CHARGES

@<TRIPOS>ATOM
      1 C1         -0.0178    1.4608    0.0101 C.3       1 <0>         0.0852
      2 N1          0.0021   -0.0041    0.0020 N.am      1 <0>        -0.5114
      3 C2         -1.1889   -0.7120    0.0039 C.2       1 <0>         0.3216
      4 C3         -1.1437   -2.1005   -0.0039 C.2       1 <0>        -0.1538
      5 C4          0.1107   -2.7476   -0.0134 C.2       1 <0>         0.5936
      6 O1          0.1765   -3.9638   -0.0207 O.2       1 <0>        -0.5134
      7 N2          1.2361   -2.0032   -0.0148 N.am      1 <0>        -0.5513
      8 C5          1.1776   -0.6603   -0.0127 C.2       1 <0>         0.7076
      9 O2          2.2126   -0.0219   -0.0196 O.2       1 <0>        -0.5305
     10 C6          2.5413   -2.6685   -0.0246 C.3       1 <0>         0.0826
     11 N3         -2.4557   -2.5297    0.0001 N.pl3     1 <0>        -0.5179
     12 H1         -2.7618   -3.4502   -0.0030 H         1 <0>         0.4389
     13 C7         -3.2306   -1.4275    0.0098 C.2       1 <0>         0.2785
     14 N4         -2.4766   -0.3579    0.0120 N.2       1 <0>        -0.4991
     15 H2          1.0048    1.8381    0.0023 H         1 <0>         0.1033
     16 H3         -0.5450    1.8219   -0.8730 H         1 <0>         0.0800
     17 H4         -0.5280    1.8123    0.9069 H         1 <0>         0.0801
     18 H5          2.3982   -3.7491   -0.0298 H         1 <0>         0.1039
     19 H6          3.0941   -2.3709   -0.9157 H         1 <0>         0.0832
     20 H7          3.1026   -2.3806    0.8643 H         1 <0>         0.0832
     21 H8         -4.3106   -1.4268    0.0144 H         1 <0>         0.2358
@<TRIPOS>BOND
     1    1    2 1
     2    1   15 1
     3    1   16 1
     4    1   17 1
     5    2    8 am
     6    2    3 1
     7    3   14 1
     8    3    4 2
     9    4    5 1
    10    4   11 1
    11    5    6 2
    12    5    7 am
    13    7    8 am
    14    7   10 1
    15    8    9 2
    16   10   18 1
    17   10   19 1
    18   10   20 1
    19   11   12 1
    20   11   13 1
    21   13   14 2
    22   13   21 1
@<TRIPOS>MOLECULE
ZINC19594578
   42    43     0     0     0
SMALL
USER_CHARGES

@<TRIPOS>ATOM
      1 C1          2.2963   -1.7884   -0.7145 C.3       1 <0>        -0.0923
      2 C2          1.4718   -3.0131   -0.4122 C.2       1 <0>         0.3012
      3 C3          0.0896   -2.9174   -0.4479 C.2       1 <0>        -0.3659
      4 C4         -0.7042   -4.1738   -0.1379 C.3       1 <0>         0.1078
      5 H1         -1.3383   -4.3964   -0.9961 H         1 <0>         0.0608
      6 C5          0.1142   -5.4119    0.1811 C.2       1 <0>        -0.3854
      7 C6         -0.4961   -6.6246    0.4812 C.2       1 <0>         0.4775
      8 O1         -1.8126   -6.7635    0.3291 O.3       1 <0>        -0.6205
      9 O2          0.2441   -7.6599    0.9261 O.3       1 <0>        -0.3341
     10 C7         -0.4487   -8.8759    1.2150 C.3       1 <0>         0.0364
     11 C8          1.4942   -5.2852    0.1607 C.2       1 <0>         0.2892
     12 N1          2.0880   -4.1435   -0.1272 N.2       1 <0>        -0.6421
     13 C9          2.3427   -6.4910    0.4723 C.3       1 <0>        -0.1054
     14 C10        -1.5971   -3.8874    1.0419 C.ar      1 <0>         0.0222
     15 C11        -1.0432   -3.6451    2.2853 C.ar      1 <0>        -0.1052
     16 C12        -1.8620   -3.3825    3.3673 C.ar      1 <0>        -0.0902
     17 C13        -3.2350   -3.3617    3.2062 C.ar      1 <0>        -0.1344
     18 C14        -3.7887   -3.6031    1.9630 C.ar      1 <0>        -0.0786
     19 C15        -2.9694   -3.8615    0.8798 C.ar      1 <0>        -0.0045
     20 N2         -3.5622   -4.1150   -0.4527 N.pl3     1 <0>         0.0414
     21 O3         -4.4639   -4.9114   -0.5715 O.2       1 <0>        -0.1804
     22 O4         -3.1445   -3.5256   -1.4221 O.3       1 <0>        -0.1243
     23 C16        -0.5445   -1.7188   -0.7549 C.2       1 <0>         0.4850
     24 O5          0.1786   -0.6320   -1.0224 O.2       1 <0>        -0.6277
     25 O6         -1.8910   -1.6562   -0.7820 O.3       1 <0>        -0.3126
     26 C17        -2.4753   -0.3927   -1.1050 C.3       1 <0>         0.0441
     27 H2          3.3553   -2.0378   -0.6477 H         1 <0>         0.0511
     28 H3          2.0687   -1.4364   -1.7207 H         1 <0>         0.0825
     29 H4          2.0613   -1.0052    0.0062 H         1 <0>         0.0805
     30 H5         -1.1939   -8.6944    1.9895 H         1 <0>         0.0514
     31 H6         -0.9429   -9.2357    0.3125 H         1 <0>         0.0531
     32 H7          0.2622   -9.6252    1.5632 H         1 <0>         0.0877
     33 H8          2.0952   -7.2976   -0.2177 H         1 <0>         0.0761
     34 H9          3.3960   -6.2316    0.3652 H         1 <0>         0.0659
     35 H10         2.1507   -6.8159    1.4949 H         1 <0>         0.0804
     36 H11         0.0294   -3.6613    2.4111 H         1 <0>         0.1319
     37 H12        -1.4294   -3.1939    4.3387 H         1 <0>         0.1296
     38 H13        -3.8749   -3.1572    4.0519 H         1 <0>         0.1333
     39 H14        -4.8612   -3.5872    1.8373 H         1 <0>         0.1319
     40 H15        -3.5617   -0.4808   -1.0919 H         1 <0>         0.0816
     41 H16        -2.1623    0.3504   -0.3716 H         1 <0>         0.0468
     42 H17        -2.1477   -0.0840   -2.0977 H         1 <0>         0.0541
@<TRIPOS>BOND
     1    1    2 1
     2    1   27 1
     3    1   28 1
     4    1   29 1
     5    2   12 1
     6    2    3 2
     7    3    4 1
     8    3   23 1
     9    4    5 1
    10    4    6 1
    11    4   14 1
    12    6    7 2
    13    6   11 1
    14    7    8 1
    15    7    9 1
    16    9   10 1
    17   10   30 1
    18   10   31 1
    19   10   32 1
    20   11   12 2
    21   11   13 1
    22   13   33 1
    23   13   34 1
    24   13   35 1
    25   14   19 ar
    26   14   15 ar
    27   15   16 ar
    28   15   36 1
    29   16   17 ar
    30   16   37 1
    31   17   18 ar
    32   17   38 1
    33   18   19 ar
    34   18   39 1
    35   19   20 1
    36   20   21 2
    37   20   22 1
    38   23   24 2
    39   23   25 1
    40   25   26 1
    41   26   40 1
    42   26   41 1
    43   26   42 1
@<TRIPOS>MOLECULE
ZINC35923133
   64    68     0     0     0
SMALL
USER_CHARGES

@<TRIPOS>ATOM
      1 C1         -0.0187    1.5258    0.0104 C.3       1 <0>        -0.1479
      2 C2          0.0021   -0.0041    0.0020 C.3       1 <0>        -0.1386
      3 C3          0.7182   -0.4975   -1.2568 C.3       1 <0>         0.1123
      4 N1          0.7381   -1.9623   -1.2648 N.am      1 <0>        -0.5465
      5 C4          1.7667   -2.6158   -0.6861 C.2       1 <0>         0.5939
      6 O1          2.6733   -1.9949   -0.1603 O.2       1 <0>        -0.5037
      7 C5          1.7804   -4.0268   -0.6965 C.2       1 <0>        -0.1325
      8 C6          0.7318   -4.7103   -1.3037 C.2       1 <0>         0.3236
      9 N2         -0.2956   -3.9801   -1.8812 N.am      1 <0>        -0.6111
     10 H1         -1.0352   -4.4395   -2.3088 H         1 <0>         0.4408
     11 C7         -0.2715   -2.6346   -1.8438 C.2       1 <0>         0.7130
     12 O2         -1.1843   -2.0115   -2.3510 O.2       1 <0>        -0.5253
     13 N3          0.9764   -6.0143   -1.1804 N.2       1 <0>        -0.4737
     14 C8          2.1111   -6.1978   -0.5349 C.2       1 <0>         0.3253
     15 N4          2.6470   -4.9882   -0.2138 N.pl3     1 <0>        -0.5076
     16 H2          3.4777   -4.8315    0.2619 H         1 <0>         0.4390
     17 C9          2.7077   -7.5108   -0.2102 C.ar      1 <0>         0.0227
     18 C10         3.9156   -7.5790    0.4859 C.ar      1 <0>        -0.1203
     19 C11         4.4667   -8.8076    0.7861 C.ar      1 <0>        -0.0153
     20 C12         3.8247   -9.9705    0.3988 C.ar      1 <0>        -0.6631
     21 C13         2.6271   -9.9099   -0.2914 C.ar      1 <0>        -0.0173
     22 C14         2.0626   -8.6878   -0.5933 C.ar      1 <0>        -0.0855
     23 S1          4.5358  -11.5355    0.7859 S.o2      1 <0>         2.6879
     24 O3          4.0202  -12.4611   -0.1610 O.2       1 <0>        -0.9462
     25 O4          5.9295  -11.3172    0.9568 O.2       1 <0>        -0.9475
     26 N5          3.9432  -11.9905    2.2637 N.pl3     1 <0>        -0.9964
     27 C15         4.6374  -11.6130    3.5042 C.3       1 <0>         0.1252
     28 C16         3.6224  -10.9657    4.4524 C.3       1 <0>         0.0399
     29 N6          2.4785  -11.8698    4.6312 N.3       1 <0>        -0.5284
     30 C17         1.7697  -12.0895    3.3635 C.3       1 <0>         0.0346
     31 C18         2.7054  -12.7777    2.3709 C.3       1 <0>         0.1253
     32 C19         1.5647  -11.3645    5.6645 C.3       1 <0>         0.0947
     33 C20         0.5446  -12.4235    5.9945 C.ar      1 <0>        -0.0816
     34 C21        -0.6441  -12.4811    5.2913 C.ar      1 <0>        -0.1164
     35 C22        -1.5798  -13.4526    5.5939 C.ar      1 <0>        -0.1201
     36 C23        -1.3266  -14.3667    6.5995 C.ar      1 <0>        -0.1181
     37 C24        -0.1375  -14.3097    7.3021 C.ar      1 <0>        -0.1198
     38 C25         0.8000  -13.3409    6.9965 C.ar      1 <0>        -0.0969
     39 H3          1.0039    1.9031    0.0027 H         1 <0>         0.0594
     40 H4         -0.5459    1.8868   -0.8726 H         1 <0>         0.0605
     41 H5         -0.5289    1.8773    0.9072 H         1 <0>         0.0622
     42 H6          0.5293   -0.3651    0.8851 H         1 <0>         0.0676
     43 H7         -1.0205   -0.3814    0.0098 H         1 <0>         0.0701
     44 H8          0.1910   -0.1364   -2.1398 H         1 <0>         0.1058
     45 H9          1.7408   -0.1202   -1.2645 H         1 <0>         0.1034
     46 H10         4.4179   -6.6721    0.7884 H         1 <0>         0.1342
     47 H11         5.4014   -8.8618    1.3244 H         1 <0>         0.1497
     48 H12         2.1311  -10.8213   -0.5908 H         1 <0>         0.1508
     49 H13         1.1255   -8.6419   -1.1282 H         1 <0>         0.1530
     50 H14         5.0604  -12.5020    3.9721 H         1 <0>         0.0878
     51 H15         5.4318  -10.9020    3.2774 H         1 <0>         0.0947
     52 H16         4.0935  -10.7799    5.4176 H         1 <0>         0.0910
     53 H17         3.2780  -10.0228    4.0278 H         1 <0>         0.0401
     54 H18         0.8971  -12.7187    3.5389 H         1 <0>         0.0955
     55 H19         1.4510  -11.1309    2.9540 H         1 <0>         0.0393
     56 H20         2.2231  -12.8363    1.3952 H         1 <0>         0.0948
     57 H21         2.9391  -13.7807    2.7278 H         1 <0>         0.0867
     58 H22         2.1323  -11.1149    6.5610 H         1 <0>         0.0861
     59 H23         1.0569  -10.4731    5.2961 H         1 <0>         0.0437
     60 H24        -0.8420  -11.7669    4.5057 H         1 <0>         0.1175
     61 H25        -2.5089  -13.4972    5.0450 H         1 <0>         0.1216
     62 H26        -2.0580  -15.1253    6.8364 H         1 <0>         0.1213
     63 H27         0.0602  -15.0237    8.0879 H         1 <0>         0.1222
     64 H28         1.7307  -13.2986    7.5429 H         1 <0>         0.1224
@<TRIPOS>BOND
     1    1    2 1
     2    1   39 1
     3    1   40 1
     4    1   41 1
     5    2    3 1
     6    2   42 1
     7    2   43 1
     8    3    4 1
     9    3   44 1
    10    3   45 1
    11    4   11 am
    12    4    5 am
    13    5    6 2
    14    5    7 1
    15    7   15 1
    16    7    8 2
    17    8    9 1
    18    8   13 1
    19    9   10 1
    20    9   11 am
    21   11   12 2
    22   13   14 2
    23   14   15 1
    24   14   17 1
    25   15   16 1
    26   17   22 ar
    27   17   18 ar
    28   18   19 ar
    29   18   46 1
    30   19   20 ar
    31   19   47 1
    32   20   21 ar
    33   20   23 1
    34   21   22 ar
    35   21   48 1
    36   22   49 1
    37   23   24 2
    38   23   25 2
    39   23   26 1
    40   26   31 1
    41   26   27 1
    42   27   28 1
    43   27   50 1
    44   27   51 1
    45   28   29 1
    46   28   52 1
    47   28   53 1
    48   29   30 1
    49   29   32 1
    50   30   31 1
    51   30   54 1
    52   30   55 1
    53   31   56 1
    54   31   57 1
    55   32   33 1
    56   32   58 1
    57   32   59 1
    58   33   38 ar
    59   33   34 ar
    60   34   35 ar
    61   34   60 1
    62   35   36 ar
    63   35   61 1
    64   36   37 ar
    65   36   62 1
    66   37   38 ar
    67   37   63 1
    68   38   64 1
@<TRIPOS>MOLECULE
ZINC35923133
   63    67     0     0     0
SMALL
USER_CHARGES

@<TRIPOS>ATOM
      1 C1         -0.0187    1.5258    0.0104 C.3       1 <0>        -0.1437
      2 C2          0.0021   -0.0041    0.0020 C.3       1 <0>        -0.1380
      3 C3         -1.4333   -0.5336    0.0129 C.3       1 <0>         0.1179
      4 N1         -1.4134   -1.9985    0.0048 N.am      1 <0>        -0.5339
      5 C4         -1.4101   -2.6605   -1.1861 C.2       1 <0>         0.5565
      6 O1         -1.4245   -1.9767   -2.3446 O.3       1 <0>        -0.5915
      7 C5         -1.3912   -4.0581   -1.1906 C.2       1 <0>        -0.1451
      8 C6         -1.3759   -4.7445    0.0464 C.2       1 <0>         0.2264
      9 N2         -1.3806   -4.0098    1.2200 N.am      1 <0>        -0.6082
     10 H1         -1.3700   -4.4644    2.0768 H         1 <0>         0.4218
     11 C7         -1.3933   -2.6640    1.1719 C.2       1 <0>         0.7117
     12 O2         -1.3916   -2.0345    2.2124 O.2       1 <0>        -0.5707
     13 N3         -1.3602   -6.0339   -0.2354 N.2       1 <0>        -0.5278
     14 C8         -1.3647   -6.1838   -1.5654 C.2       1 <0>         0.1466
     15 N4         -1.3834   -5.0000   -2.1519 N.2       1 <0>        -0.4349
     16 C9         -1.3505   -7.4852   -2.2752 C.ar      1 <0>         0.1077
     17 C10        -1.3506   -7.5221   -3.6689 C.ar      1 <0>        -0.1270
     18 C11        -1.3373   -8.7365   -4.3242 C.ar      1 <0>        -0.0213
     19 C12        -1.3244   -9.9157   -3.6010 C.ar      1 <0>        -0.6980
     20 C13        -1.3242   -9.8853   -2.2180 C.ar      1 <0>        -0.0231
     21 C14        -1.3311   -8.6768   -1.5517 C.ar      1 <0>        -0.1271
     22 S1         -1.3087  -11.4625   -4.4447 S.o2      1 <0>         2.6934
     23 O3         -1.8488  -12.4211   -3.5455 O.2       1 <0>        -0.9606
     24 O4         -1.8629  -11.2285   -5.7321 O.2       1 <0>        -0.9600
     25 N5          0.2776  -11.8756   -4.6803 N.pl3     1 <0>        -1.0003
     26 C15         0.9953  -11.4544   -5.8930 C.3       1 <0>         0.1286
     27 C16         2.3087  -10.7855   -5.4738 C.3       1 <0>         0.0380
     28 N6          3.0567  -11.6920   -4.5926 N.3       1 <0>        -0.5282
     29 C17         2.3190  -11.9566   -3.3501 C.3       1 <0>         0.0331
     30 C18         1.0078  -12.6683   -3.6795 C.3       1 <0>         0.1290
     31 C19         4.3965  -11.1616   -4.3067 C.3       1 <0>         0.0916
     32 C20         5.2170  -12.2175   -3.6117 C.ar      1 <0>        -0.0761
     33 C21         5.2043  -12.3060   -2.2323 C.ar      1 <0>        -0.1147
     34 C22         5.9569  -13.2745   -1.5948 C.ar      1 <0>        -0.1204
     35 C23         6.7219  -14.1549   -2.3369 C.ar      1 <0>        -0.1215
     36 C24         6.7339  -14.0670   -3.7164 C.ar      1 <0>        -0.1223
     37 C25         5.9779  -13.1012   -4.3540 C.ar      1 <0>        -0.0980
     38 H2          1.0039    1.9031    0.0027 H         1 <0>         0.0561
     39 H3         -0.5459    1.8868   -0.8726 H         1 <0>         0.0572
     40 H4         -0.5289    1.8773    0.9072 H         1 <0>         0.0558
     41 H5          0.5123   -0.3556   -0.8948 H         1 <0>         0.0689
     42 H6          0.5293   -0.3651    0.8851 H         1 <0>         0.0655
     43 H7         -1.9435   -0.1821    0.9097 H         1 <0>         0.0935
     44 H8         -1.9605   -0.1726   -0.8702 H         1 <0>         0.0973
     45 H9         -1.3614   -6.6022   -4.2345 H         1 <0>         0.1398
     46 H10        -1.3374   -8.7664   -5.4038 H         1 <0>         0.1341
     47 H11        -1.3144  -10.8090   -1.6586 H         1 <0>         0.1332
     48 H12        -1.3260   -8.6541   -0.4720 H         1 <0>         0.1380
     49 H13         1.2094  -12.3251   -6.5128 H         1 <0>         0.0813
     50 H14         0.3850  -10.7449   -6.4518 H         1 <0>         0.0945
     51 H15         2.9042  -10.5661   -6.3600 H         1 <0>         0.0881
     52 H16         2.0915   -9.8589   -4.9424 H         1 <0>         0.0455
     53 H17         2.9221  -12.5865   -2.6962 H         1 <0>         0.0914
     54 H18         2.1017  -11.0137   -2.8484 H         1 <0>         0.0436
     55 H19         0.4059  -12.7610   -2.7755 H         1 <0>         0.0932
     56 H20         1.2232  -13.6580   -4.0824 H         1 <0>         0.0802
     57 H21         4.8827  -10.8799   -5.2407 H         1 <0>         0.0850
     58 H22         4.3108  -10.2860   -3.6631 H         1 <0>         0.0458
     59 H23         4.6066  -11.6181   -1.6525 H         1 <0>         0.1199
     60 H24         5.9476  -13.3431   -0.5171 H         1 <0>         0.1209
     61 H25         7.3105  -14.9111   -1.8388 H         1 <0>         0.1191
     62 H26         7.3318  -14.7546   -4.2961 H         1 <0>         0.1200
     63 H27         5.9844  -13.0349   -5.4320 H         1 <0>         0.1218
@<TRIPOS>BOND
     1    1    2 1
     2    1   38 1
     3    1   39 1
     4    1   40 1
     5    2    3 1
     6    2   41 1
     7    2   42 1
     8    3    4 1
     9    3   43 1
    10    3   44 1
    11    4   11 am
    12    4    5 1
    13    5    6 1
    14    5    7 2
    15    7   15 1
    16    7    8 1
    17    8    9 1
    18    8   13 2
    19    9   10 1
    20    9   11 am
    21   11   12 2
    22   13   14 1
    23   14   15 2
    24   14   16 1
    25   16   21 ar
    26   16   17 ar
    27   17   18 ar
    28   17   45 1
    29   18   19 ar
    30   18   46 1
    31   19   20 ar
    32   19   22 1
    33   20   21 ar
    34   20   47 1
    35   21   48 1
    36   22   23 2
    37   22   24 2
    38   22   25 1
    39   25   30 1
    40   25   26 1
    41   26   27 1
    42   26   49 1
    43   26   50 1
    44   27   28 1
    45   27   51 1
    46   27   52 1
    47   28   29 1
    48   28   31 1
    49   29   30 1
    50   29   53 1
    51   29   54 1
    52   30   55 1
    53   30   56 1
    54   31   32 1
    55   31   57 1
    56   31   58 1
    57   32   37 ar
    58   32   33 ar
    59   33   34 ar
    60   33   59 1
    61   34   35 ar
    62   34   60 1
    63   35   36 ar
    64   35   61 1
    65   36   37 ar
    66   36   62 1
    67   37   63 1
@<TRIPOS>MOLECULE
ZINC28638129
   46    49     0     0     0
SMALL
USER_CHARGES
(2R,3S,4R,5R)-2-(hydroxymethyl)-5-[6-[(4-hydroxyphenyl)methylamino]purin-9-yl]tetrahydrofuran-3,4-diol
@<TRIPOS>ATOM
      1 C1          3.0964    2.4090   -1.2127 C.ar      1 <0>        -0.0546
      2 C2          1.8422    1.8301   -1.2066 C.ar      1 <0>        -0.1659
      3 C3          1.2228    1.5324   -0.0014 C.ar      1 <0>         0.1665
      4 C4          1.8627    1.8224    1.1949 C.ar      1 <0>        -0.2178
      5 C5          3.1191    2.3965    1.1833 C.ar      1 <0>        -0.0556
      6 C6          3.7345    2.6918   -0.0191 C.ar      1 <0>        -0.1556
      7 C7          5.1027    3.3234   -0.0288 C.3       1 <0>         0.1770
      8 N1          4.9673    4.7821   -0.0197 N.pl3     1 <0>        -0.7007
      9 C8          6.0966    5.5819   -0.0261 C.ar      1 <0>         0.5082
     10 C9          5.9856    6.9830   -0.0235 C.ar      1 <0>        -0.1088
     11 C10         7.1678    7.7420   -0.0257 C.ar      1 <0>         0.3150
     12 N2          8.3389    7.1136   -0.0402 N.ar      1 <0>        -0.5512
     13 C11         8.3946    5.7986   -0.0474 C.ar      1 <0>         0.3635
     14 N3          7.3113    5.0431   -0.0407 N.ar      1 <0>        -0.5935
     15 N4          6.7736    9.0561   -0.0149 N.pl3     1 <0>        -0.4761
     16 C12         5.4106    9.0738   -0.0013 C.2       1 <0>         0.2565
     17 N5          4.9503    7.8565   -0.0032 N.2       1 <0>        -0.4620
     18 C13         7.6557   10.2257   -0.0182 C.3       1 <0>         0.3220
     19 H1          8.4955    9.9527    0.6377 H         1 <0>         0.1220
     20 C14         8.0262   10.6259   -1.4690 C.3       1 <0>         0.0950
     21 H2          7.2825   10.3791   -2.2410 H         1 <0>         0.0931
     22 C15         8.3658   12.1284   -1.3144 C.3       1 <0>         0.0650
     23 H3          8.1095   12.7520   -2.1836 H         1 <0>         0.0848
     24 C16         7.6642   12.5414   -0.0060 C.3       1 <0>         0.0550
     25 H4          8.3730   12.8514    0.7760 H         1 <0>         0.0992
     26 O1          6.9627   11.3866    0.4886 O.3       1 <0>        -0.3530
     27 C17         6.6770   13.6775   -0.2812 C.3       1 <0>         0.0861
     28 O2          6.1178   14.1320    0.9527 O.3       1 <0>        -0.5937
     29 O3          9.7787   12.3134   -1.2074 O.3       1 <0>        -0.5774
     30 O4          9.1630    9.8906   -1.9263 O.3       1 <0>        -0.5635
     31 O5         -0.0110    0.9628    0.0073 O.3       1 <0>        -0.5101
     32 H5          3.5789    2.6413   -2.1507 H         1 <0>         0.1299
     33 H6          1.3440    1.6097   -2.1391 H         1 <0>         0.1299
     34 H7          1.3807    1.5957    2.1344 H         1 <0>         0.1281
     35 H8          3.6196    2.6184    2.1143 H         1 <0>         0.1256
     36 H9          5.6615    3.0015    0.8623 H         1 <0>         0.0760
     37 H10         5.6443    3.0111   -0.9338 H         1 <0>         0.0765
     38 H11         3.9680    5.2416   -0.0078 H         1 <0>         0.4421
     39 H12         9.3624    5.3194   -0.0596 H         1 <0>         0.2024
     40 H13         4.8026    9.9663    0.0091 H         1 <0>         0.2201
     41 H14         7.2027   14.5088   -0.7738 H         1 <0>         0.0613
     42 H15         5.8720   13.3132   -0.9364 H         1 <0>         0.0541
     43 H16         5.3824   14.9501    0.9550 H         1 <0>         0.4158
     44 H17        10.1936   13.3255   -1.0913 H         1 <0>         0.4162
     45 H18         9.5548   10.0582   -2.9404 H         1 <0>         0.4170
     46 H19        -0.5013    0.7271    0.9634 H         1 <0>         0.4356
@<TRIPOS>BOND
     1    1    6 ar
     2    1    2 ar
     3    1   32 1
     4    2    3 ar
     5    2   33 1
     6    3    4 ar
     7    3   31 1
     8    4    5 ar
     9    4   34 1
    10    5    6 ar
    11    5   35 1
    12    6    7 1
    13    7    8 1
    14    7   36 1
    15    7   37 1
    16    8    9 1
    17    8   38 1
    18    9   14 ar
    19    9   10 ar
    20   10   17 1
    21   10   11 ar
    22   11   12 ar
    23   11   15 1
    24   12   13 ar
    25   13   14 ar
    26   13   39 1
    27   15   16 1
    28   15   18 1
    29   16   17 2
    30   16   40 1
    31   18   19 1
    32   18   26 1
    33   18   20 1
    34   20   21 1
    35   20   22 1
    36   20   30 1
    37   22   23 1
    38   22   24 1
    39   22   29 1
    40   24   25 1
    41   24   26 1
    42   24   27 1
    43   27   28 1
    44   27   41 1
    45   27   42 1
    46   28   43 1
    47   29   44 1
    48   30   45 1
    49   31   46 1
@<TRIPOS>MOLECULE
ZINC00000999
   27    28     0     0     0
SMALL
USER_CHARGES

@<TRIPOS>ATOM
      1 C1         -0.0178    1.4608    0.0101 C.3       1 <0>         0.0851
      2 N1          0.0021   -0.0041    0.0020 N.am      1 <0>        -0.5111
      3 C2         -1.1889   -0.7120    0.0039 C.2       1 <0>         0.3225
      4 C3         -1.1437   -2.1005   -0.0039 C.2       1 <0>        -0.1552
      5 C4          0.1107   -2.7476   -0.0134 C.2       1 <0>         0.5930
      6 O1          0.1765   -3.9638   -0.0207 O.2       1 <0>        -0.5095
      7 N2          1.2361   -2.0032   -0.0148 N.am      1 <0>        -0.5511
      8 C5          1.1776   -0.6603   -0.0127 C.2       1 <0>         0.7076
      9 O2          2.2126   -0.0219   -0.0196 O.2       1 <0>        -0.5311
     10 C6          2.5413   -2.6685   -0.0246 C.3       1 <0>         0.0833
     11 N3         -2.4557   -2.5297    0.0001 N.pl3     1 <0>        -0.4138
     12 C7         -3.2306   -1.4275    0.0098 C.2       1 <0>         0.2739
     13 N4         -2.4766   -0.3579    0.0120 N.2       1 <0>        -0.4942
     14 C8         -2.9179   -3.9199   -0.0060 C.3       1 <0>         0.0959
     15 C9         -2.9524   -4.4522    1.4280 C.3       1 <0>        -0.0526
     16 Cl1        -3.5211   -6.1631    1.4205 Cl        1 <0>        -0.1494
     17 H1          1.0048    1.8381    0.0023 H         1 <0>         0.1035
     18 H2         -0.5450    1.8219   -0.8730 H         1 <0>         0.0800
     19 H3         -0.5280    1.8123    0.9069 H         1 <0>         0.0801
     20 H4          2.8601   -2.8279   -1.0547 H         1 <0>         0.0773
     21 H5          3.2716   -2.0434    0.4891 H         1 <0>         0.0970
     22 H6          2.4632   -3.6292    0.4844 H         1 <0>         0.0957
     23 H7         -4.3106   -1.4268    0.0144 H         1 <0>         0.2331
     24 H8         -3.9185   -3.9683   -0.4356 H         1 <0>         0.1175
     25 H9         -2.2367   -4.5267   -0.6025 H         1 <0>         0.1172
     26 H10        -1.9518   -4.4038    1.8576 H         1 <0>         0.1027
     27 H11        -3.6336   -3.8454    2.0245 H         1 <0>         0.1024
@<TRIPOS>BOND
     1    1    2 1
     2    1   17 1
     3    1   18 1
     4    1   19 1
     5    2    8 am
     6    2    3 1
     7    3   13 1
     8    3    4 2
     9    4    5 1
    10    4   11 1
    11    5    6 2
    12    5    7 am
    13    7    8 am
    14    7   10 1
    15    8    9 2
    16   10   20 1
    17   10   21 1
    18   10   22 1
    19   11   12 1
    20   11   14 1
    21   12   13 2
    22   12   23 1
    23   14   15 1
    24   14   24 1
    25   14   25 1
    26   15   16 1
    27   15   26 1
    28   15   27 1
@<TRIPOS>MOLECULE
ZINC04249262
   46    49     0     0     0
SMALL
USER_CHARGES

@<TRIPOS>ATOM
      1 C1         -0.0178    1.4608    0.0101 C.3       1 <0>         0.0866
      2 N1          0.0021   -0.0041    0.0020 N.am      1 <0>        -0.5095
      3 C2         -1.1887   -0.7115    0.0039 C.2       1 <0>         0.3466
      4 C3         -1.1433   -2.1038   -0.0029 C.2       1 <0>        -0.1664
      5 C4          0.1082   -2.7458   -0.0126 C.2       1 <0>         0.5944
      6 O1          0.1747   -3.9627   -0.0194 O.2       1 <0>        -0.5227
      7 N2          1.2338   -2.0030   -0.0149 N.am      1 <0>        -0.5522
      8 C5          1.1777   -0.6600   -0.0127 C.2       1 <0>         0.7084
      9 O2          2.2132   -0.0225   -0.0193 O.2       1 <0>        -0.5363
     10 C6          2.5380   -2.6702   -0.0251 C.3       1 <0>         0.0849
     11 N3         -2.4572   -2.5309    0.0022 N.pl3     1 <0>        -0.4473
     12 C7         -3.2384   -1.4112    0.0079 C.2       1 <0>         0.5526
     13 N4         -2.4744   -0.3469    0.0105 N.2       1 <0>        -0.5263
     14 N5         -4.6204   -1.4790    0.0077 N.pl3     1 <0>        -0.5937
     15 C8         -5.2118   -2.7955   -0.2957 C.3       1 <0>         0.1199
     16 C9         -4.4385   -3.8697    0.4775 C.3       1 <0>        -0.1563
     17 C10        -2.9806   -3.8982    0.0029 C.3       1 <0>         0.1108
     18 C11        -5.4511   -0.3067    0.2940 C.3       1 <0>         0.1526
     19 C12        -5.7564    0.4328   -1.0102 C.3       1 <0>        -0.0983
     20 C13        -6.6109    1.6387   -0.7158 C.ar      1 <0>        -0.0835
     21 C14        -7.9887    1.5272   -0.7204 C.ar      1 <0>        -0.1173
     22 C15        -8.7725    2.6334   -0.4504 C.ar      1 <0>        -0.1192
     23 C16        -8.1785    3.8509   -0.1752 C.ar      1 <0>        -0.1223
     24 C17        -6.8006    3.9621   -0.1697 C.ar      1 <0>        -0.1178
     25 C18        -6.0168    2.8550   -0.4355 C.ar      1 <0>        -0.1115
     26 H1          1.0048    1.8381    0.0023 H         1 <0>         0.1021
     27 H2         -0.5450    1.8219   -0.8730 H         1 <0>         0.0783
     28 H3         -0.5280    1.8123    0.9069 H         1 <0>         0.0785
     29 H4          2.8561   -2.8305   -1.0552 H         1 <0>         0.0752
     30 H5          3.2695   -2.0459    0.4880 H         1 <0>         0.0952
     31 H6          2.4589   -3.6305    0.4844 H         1 <0>         0.0941
     32 H7         -6.2578   -2.8060    0.0106 H         1 <0>         0.1017
     33 H8         -5.1393   -2.9913   -1.3655 H         1 <0>         0.0731
     34 H9         -4.4687   -3.6420    1.5431 H         1 <0>         0.0845
     35 H10        -4.8962   -4.8432    0.3020 H         1 <0>         0.1100
     36 H11        -2.9329   -4.3080   -1.0059 H         1 <0>         0.0900
     37 H12        -2.3885   -4.5156    0.6784 H         1 <0>         0.1043
     38 H13        -6.3844   -0.6270    0.7570 H         1 <0>         0.0851
     39 H14        -4.9183    0.3591    0.9730 H         1 <0>         0.0869
     40 H15        -4.8231    0.7531   -1.4733 H         1 <0>         0.0819
     41 H16        -6.2891   -0.2330   -1.6892 H         1 <0>         0.0732
     42 H17        -8.4528    0.5760   -0.9354 H         1 <0>         0.1203
     43 H18        -9.8490    2.5464   -0.4547 H         1 <0>         0.1215
     44 H19        -8.7909    4.7152    0.0351 H         1 <0>         0.1211
     45 H20        -6.3366    4.9134    0.0450 H         1 <0>         0.1223
     46 H21        -4.9402    2.9410   -0.4276 H         1 <0>         0.1242
@<TRIPOS>BOND
     1    1    2 1
     2    1   26 1
     3    1   27 1
     4    1   28 1
     5    2    8 am
     6    2    3 1
     7    3   13 1
     8    3    4 2
     9    4    5 1
    10    4   11 1
    11    5    6 2
    12    5    7 am
    13    7    8 am
    14    7   10 1
    15    8    9 2
    16   10   29 1
    17   10   30 1
    18   10   31 1
    19   11   17 1
    20   11   12 1
    21   12   13 2
    22   12   14 1
    23   14   15 1
    24   14   18 1
    25   15   16 1
    26   15   32 1
    27   15   33 1
    28   16   17 1
    29   16   34 1
    30   16   35 1
    31   17   36 1
    32   17   37 1
    33   18   19 1
    34   18   38 1
    35   18   39 1
    36   19   20 1
    37   19   40 1
    38   19   41 1
    39   20   25 ar
    40   20   21 ar
    41   21   22 ar
    42   21   42 1
    43   22   23 ar
    44   22   43 1
    45   23   24 ar
    46   23   44 1
    47   24   25 ar
    48   24   45 1
    49   25   46 1
@<TRIPOS>MOLECULE
ZINC04249250
   40    43     0     0     0
SMALL
USER_CHARGES
2-furylmethyl-dimethyl-BLAHdione
@<TRIPOS>ATOM
      1 C1         -1.2959    2.0950    0.0196 C.3       1 <0>         0.0894
      2 N1         -0.0167    1.3811    0.0096 N.am      1 <0>        -0.5088
      3 C2          0.0021   -0.0041    0.0020 C.2       1 <0>         0.3412
      4 C3          1.2310   -0.6583   -0.0134 C.2       1 <0>        -0.1571
      5 C4          2.4124    0.1049   -0.0210 C.2       1 <0>         0.5952
      6 O1          3.4998   -0.4451   -0.0346 O.2       1 <0>        -0.5184
      7 N2          2.3305    1.4511   -0.0126 N.am      1 <0>        -0.5518
      8 C5          1.1386    2.0723    0.0023 C.2       1 <0>         0.7076
      9 O2          1.1029    3.2878    0.0090 O.2       1 <0>        -0.5332
     10 C6          3.5594    2.2486   -0.0198 C.3       1 <0>         0.0845
     11 N3          0.9453   -2.0109   -0.0168 N.pl3     1 <0>        -0.4287
     12 C7         -0.4110   -2.1371   -0.0034 C.2       1 <0>         0.4726
     13 N4         -0.9526   -0.9371    0.0070 N.2       1 <0>        -0.5001
     14 N5         -1.0807   -3.3421   -0.0003 N.pl3     1 <0>        -0.4315
     15 C8         -0.2023   -4.4306   -0.4515 C.3       1 <0>         0.0329
     16 C9          1.1055   -4.4031    0.3464 C.3       1 <0>        -0.1404
     17 C10         1.8861   -3.1354   -0.0314 C.3       1 <0>         0.1041
     18 C11        -2.2958   -3.2711   -0.8228 C.3       1 <0>         0.1415
     19 C12        -1.9138   -3.0770   -2.2676 C.2       1 <0>        -0.0620
     20 C13        -1.6845   -4.0577   -3.1592 C.2       1 <0>        -0.1907
     21 C14        -1.3581   -3.4301   -4.3834 C.2       1 <0>        -0.2181
     22 C15        -1.4074   -2.1035   -4.1666 C.2       1 <0>        -0.0294
     23 O3         -1.7502   -1.8954   -2.8848 O.3       1 <0>        -0.1596
     24 H1         -1.6084    2.2665    1.0497 H         1 <0>         0.0736
     25 H2         -1.1819    3.0520   -0.4896 H         1 <0>         0.0931
     26 H3         -2.0494    1.4978   -0.4940 H         1 <0>         0.0919
     27 H4          3.8544    2.4522   -1.0492 H         1 <0>         0.0757
     28 H5          3.3848    3.1900    0.5011 H         1 <0>         0.0962
     29 H6          4.3535    1.6969    0.4833 H         1 <0>         0.0944
     30 H7          0.0170   -4.3040   -1.5117 H         1 <0>         0.0696
     31 H8         -0.7019   -5.3868   -0.2961 H         1 <0>         0.1126
     32 H9          1.6999   -5.2842    0.1046 H         1 <0>         0.1107
     33 H10         0.8827   -4.3910    1.4133 H         1 <0>         0.0925
     34 H11         2.3124   -3.2474   -1.0283 H         1 <0>         0.0939
     35 H12         2.6817   -2.9608    0.6929 H         1 <0>         0.1064
     36 H13        -2.8604   -4.1975   -0.7176 H         1 <0>         0.1276
     37 H14        -2.9091   -2.4324   -0.4933 H         1 <0>         0.1196
     38 H15        -1.7388   -5.1205   -2.9752 H         1 <0>         0.1509
     39 H16        -1.1154   -3.9216   -5.3139 H         1 <0>         0.1503
     40 H17        -1.2101   -1.3359   -4.9002 H         1 <0>         0.2021
@<TRIPOS>BOND
     1    1    2 1
     2    1   24 1
     3    1   25 1
     4    1   26 1
     5    2    8 am
     6    2    3 1
     7    3   13 1
     8    3    4 2
     9    4    5 1
    10    4   11 1
    11    5    6 2
    12    5    7 am
    13    7    8 am
    14    7   10 1
    15    8    9 2
    16   10   27 1
    17   10   28 1
    18   10   29 1
    19   11   17 1
    20   11   12 1
    21   12   13 2
    22   12   14 1
    23   14   15 1
    24   14   18 1
    25   15   16 1
    26   15   30 1
    27   15   31 1
    28   16   17 1
    29   16   32 1
    30   16   33 1
    31   17   34 1
    32   17   35 1
    33   18   19 1
    34   18   36 1
    35   18   37 1
    36   19   23 1
    37   19   20 2
    38   20   21 1
    39   20   38 1
    40   21   22 2
    41   21   39 1
    42   22   23 1
    43   22   40 1
@<TRIPOS>MOLECULE
ZINC53006885
   66    71     0     0     0
SMALL
USER_CHARGES

@<TRIPOS>ATOM
      1 C1         -2.2238    1.2650    1.5137 C.3       1 <0>         0.0303
      2 O1         -1.8301   -0.0695    1.8394 O.3       1 <0>        -0.3850
      3 C2         -0.4160   -0.2511    1.9364 C.3       1 <0>         0.0617
      4 C3         -0.1119   -1.7089    2.2874 C.3       1 <0>         0.0633
      5 O2         -0.5287   -2.5543    1.2134 O.3       1 <0>        -0.3105
      6 C4         -0.3284   -3.8908    1.3662 C.ar      1 <0>         0.0736
      7 C5          0.2521   -4.3762    2.5286 C.ar      1 <0>        -0.1586
      8 C6          0.4560   -5.7332    2.6846 C.ar      1 <0>        -0.1606
      9 C7          0.0796   -6.6118    1.6772 C.ar      1 <0>         0.1866
     10 C8         -0.5015   -6.1249    0.5138 C.ar      1 <0>        -0.1588
     11 C9         -0.7098   -4.7681    0.3619 C.ar      1 <0>        -0.0997
     12 N1          0.2862   -7.9869    1.8342 N.pl3     1 <0>        -0.6339
     13 C10        -0.2111   -8.9440    0.8343 C.3       1 <0>         0.1289
     14 C11        -1.0125  -10.0315    1.5577 C.3       1 <0>         0.0423
     15 N2         -0.1867  -10.6177    2.6218 N.3       1 <0>        -0.5309
     16 C12         0.1570   -9.6178    3.6416 C.3       1 <0>         0.0342
     17 C13         1.0116   -8.5129    3.0005 C.3       1 <0>         0.1286
     18 C14        -0.8534  -11.7787    3.2264 C.3       1 <0>         0.0416
     19 C15         0.1275  -12.5083    4.1463 C.3       1 <0>         0.1418
     20 N3         -0.5374  -13.6661    4.7493 N.pl3     1 <0>        -0.3543
     21 C16        -1.2311  -13.6674    5.9222 C.2       1 <0>         0.3698
     22 C17        -1.6931  -14.9788    6.1115 C.2       1 <0>        -0.2662
     23 C18        -1.2490  -15.7409    5.0161 C.2       1 <0>         0.1316
     24 N4         -0.5747  -14.9607    4.2165 N.2       1 <0>        -0.2603
     25 C19        -2.4787  -15.2638    7.3126 C.2       1 <0>         0.4064
     26 N5         -3.0558  -16.3414    7.8025 N.2       1 <0>        -0.5155
     27 C20        -3.6593  -16.0417    8.9597 C.2       1 <0>         0.3511
     28 N6         -3.4759  -14.7625    9.2275 N.2       1 <0>        -0.2997
     29 N7         -2.7146  -14.2289    8.1798 N.pl3     1 <0>        -0.3764
     30 C21        -2.2223  -12.9855    7.9076 C.2       1 <0>         0.6925
     31 N8         -1.5185  -12.7270    6.8330 N.2       1 <0>        -0.5629
     32 N9         -2.4741  -11.9653    8.7950 N.pl3     1 <0>        -0.8021
     33 C22        -4.4120  -16.9933    9.8038 C.2       1 <0>         0.0418
     34 C23        -5.0333  -16.7003   10.9769 C.2       1 <0>        -0.1368
     35 C24        -5.6212  -17.8963   11.4345 C.2       1 <0>        -0.2200
     36 C25        -5.3327  -18.8502   10.5275 C.2       1 <0>        -0.0037
     37 O3         -4.6064  -18.3001    9.5413 O.3       1 <0>        -0.1520
     38 H1         -3.3111    1.3199    1.4588 H         1 <0>         0.0878
     39 H2         -1.8639    1.9480    2.2831 H         1 <0>         0.0417
     40 H3         -1.7968    1.5449    0.5507 H         1 <0>         0.0431
     41 H4          0.0485   -0.0025    0.9822 H         1 <0>         0.0615
     42 H5         -0.0186    0.4005    2.7146 H         1 <0>         0.0708
     43 H6          0.9596   -1.8278    2.4486 H         1 <0>         0.0755
     44 H7         -0.6486   -1.9836    3.1954 H         1 <0>         0.0686
     45 H8          0.5451   -3.6927    3.3118 H         1 <0>         0.1253
     46 H9          0.9083   -6.1110    3.5896 H         1 <0>         0.1243
     47 H10        -0.7945   -6.8075   -0.2702 H         1 <0>         0.1289
     48 H11        -1.1661   -4.3897   -0.5409 H         1 <0>         0.1298
     49 H12        -0.8545   -8.4279    0.1217 H         1 <0>         0.0869
     50 H13         0.6308   -9.3969    0.3105 H         1 <0>         0.0708
     51 H14        -1.9099   -9.5925    1.9938 H         1 <0>         0.0404
     52 H15        -1.2954  -10.8082    0.8472 H         1 <0>         0.0878
     53 H16        -0.7567   -9.1847    4.0487 H         1 <0>         0.0424
     54 H17         0.7222  -10.0945    4.4425 H         1 <0>         0.0862
     55 H18         1.9688   -8.9252    2.6810 H         1 <0>         0.0706
     56 H19         1.1770   -7.7117    3.7208 H         1 <0>         0.0858
     57 H20        -1.7135  -11.4428    3.8057 H         1 <0>         0.0420
     58 H21        -1.1870  -12.4562    2.4404 H         1 <0>         0.0875
     59 H22         0.9876  -12.8442    3.5670 H         1 <0>         0.1119
     60 H23         0.4611  -11.8308    4.9323 H         1 <0>         0.0989
     61 H24        -1.4377  -16.7929    4.8608 H         1 <0>         0.2031
     62 H25        -2.9929  -12.1367    9.5965 H         1 <0>         0.4266
     63 H26        -2.1328  -11.0745    8.6194 H         1 <0>         0.4301
     64 H27        -5.0690  -15.7371   11.4642 H         1 <0>         0.1599
     65 H28        -6.1943  -18.0243   12.3409 H         1 <0>         0.1595
     66 H29        -5.6384  -19.8846   10.5827 H         1 <0>         0.2144
@<TRIPOS>BOND
     1    1    2 1
     2    1   38 1
     3    1   39 1
     4    1   40 1
     5    2    3 1
     6    3    4 1
     7    3   41 1
     8    3   42 1
     9    4    5 1
    10    4   43 1
    11    4   44 1
    12    5    6 1
    13    6   11 ar
    14    6    7 ar
    15    7    8 ar
    16    7   45 1
    17    8    9 ar
    18    8   46 1
    19    9   10 ar
    20    9   12 1
    21   10   11 ar
    22   10   47 1
    23   11   48 1
    24   12   17 1
    25   12   13 1
    26   13   14 1
    27   13   49 1
    28   13   50 1
    29   14   15 1
    30   14   51 1
    31   14   52 1
    32   15   16 1
    33   15   18 1
    34   16   17 1
    35   16   53 1
    36   16   54 1
    37   17   55 1
    38   17   56 1
    39   18   19 1
    40   18   57 1
    41   18   58 1
    42   19   20 1
    43   19   59 1
    44   19   60 1
    45   20   24 1
    46   20   21 1
    47   21   31 1
    48   21   22 2
    49   22   23 1
    50   22   25 1
    51   23   24 2
    52   23   61 1
    53   25   29 1
    54   25   26 2
    55   26   27 1
    56   27   28 2
    57   27   33 1
    58   28   29 1
    59   29   30 1
    60   30   31 2
    61   30   32 1
    62   32   62 1
    63   32   63 1
    64   33   37 1
    65   33   34 2
    66   34   35 1
    67   34   64 1
    68   35   36 2
    69   35   65 1
    70   36   37 1
    71   36   66 1
@<TRIPOS>MOLECULE
ZINC23360505
   49    52     0     0     0
SMALL
USER_CHARGES

@<TRIPOS>ATOM
      1 C1         -0.0124    1.4656    0.0037 C.3       1 <0>        -0.0458
      2 N1          0.0067   -0.0032   -0.0036 N.4       1 <0>        -0.3893
      3 C2          0.6936   -0.4777   -1.2121 C.3       1 <0>        -0.0014
      4 C3          0.6972   -2.0078   -1.2295 C.3       1 <0>         0.0267
      5 N2          1.3814   -2.5070   -0.0283 N.3       1 <0>        -0.5235
      6 C4          0.7195   -2.0195    1.1900 C.3       1 <0>         0.0173
      7 C5          0.7157   -0.4893    1.1875 C.3       1 <0>         0.0006
      8 C6          1.4557   -3.9741   -0.0361 C.3       1 <0>         0.0379
      9 C7          2.3678   -4.4368    1.0706 C.2       1 <0>         0.5069
     10 O1          2.9033   -3.6245    1.7945 O.2       1 <0>        -0.4476
     11 N3          2.5885   -5.7534    1.2559 N.am      1 <0>        -0.6509
     12 C8          3.5107   -6.1769    2.2072 C.ar      1 <0>         0.4340
     13 C9          3.8235   -7.5290    2.3340 C.ar      1 <0>        -0.2633
     14 C10         4.7511   -7.9079    3.2986 C.ar      1 <0>         0.4597
     15 N4          5.3068   -6.9755    4.0643 N.ar      1 <0>        -0.5486
     16 C11         4.9862   -5.6952    3.9172 C.ar      1 <0>         0.4662
     17 N5          4.1087   -5.2973    3.0027 N.ar      1 <0>        -0.5093
     18 C12         5.6249   -4.6891    4.7873 C.2       1 <0>         0.0102
     19 C13         5.3957   -3.3481    4.7594 C.2       1 <0>        -0.1161
     20 C14         6.2122   -2.7766    5.7532 C.2       1 <0>        -0.2284
     21 C15         6.8933   -3.7855    6.3337 C.2       1 <0>         0.0021
     22 O2          6.5322   -4.9390    5.7517 O.3       1 <0>        -0.1521
     23 N6          5.0937   -9.2518    3.4604 N.pl3     1 <0>        -0.3369
     24 C16         5.9771   -9.7496    4.3651 C.2       1 <0>         0.0828
     25 C17         6.0227  -11.0909    4.1970 C.2       1 <0>        -0.2519
     26 C18         5.1433  -11.4264    3.1607 C.2       1 <0>         0.0814
     27 N7          4.5835  -10.3283    2.7232 N.2       1 <0>        -0.2854
     28 H1          1.0105    1.8423   -0.0032 H         1 <0>         0.1237
     29 H2         -0.5385    1.8266   -0.8801 H         1 <0>         0.1243
     30 H3         -0.5232    1.8179    0.8998 H         1 <0>         0.1245
     31 H4          0.1741   -0.1055   -2.0951 H         1 <0>         0.1380
     32 H5          1.7204   -0.1119   -1.2136 H         1 <0>         0.1392
     33 H6         -0.3294   -2.3738   -1.2418 H         1 <0>         0.0640
     34 H7          1.2199   -2.3602   -2.1187 H         1 <0>         0.1263
     35 H8         -0.3068   -2.3857    1.2176 H         1 <0>         0.0588
     36 H9          1.2584   -2.3805    2.0660 H         1 <0>         0.1394
     37 H10         1.7424   -0.1235    1.1736 H         1 <0>         0.1404
     38 H11         0.2125   -0.1257    2.0834 H         1 <0>         0.1367
     39 H12         0.4594   -4.3891    0.1167 H         1 <0>         0.0830
     40 H13         1.8472   -4.3130   -0.9953 H         1 <0>         0.1246
     41 H14         2.1042   -6.4056    0.7259 H         1 <0>         0.4267
     42 H15         3.3558   -8.2660    1.6980 H         1 <0>         0.1652
     43 H16         4.7184   -2.8236    4.1016 H         1 <0>         0.1631
     44 H17         6.2805   -1.7283    6.0035 H         1 <0>         0.1581
     45 H18         7.6079   -3.6824    7.1370 H         1 <0>         0.2141
     46 H19         6.5409   -9.1779    5.0873 H         1 <0>         0.1877
     47 H20         6.6305  -11.7815    4.7627 H         1 <0>         0.1644
     48 H21         4.9558  -12.4228    2.7888 H         1 <0>         0.2008
     49 H22        -0.9402   -0.3517    0.0033 H         1 <0>         0.4218
@<TRIPOS>BOND
     1    1    2 1
     2    1   28 1
     3    1   29 1
     4    1   30 1
     5    2    7 1
     6    2    3 1
     7    2   49 1
     8    3    4 1
     9    3   31 1
    10    3   32 1
    11    4    5 1
    12    4   33 1
    13    4   34 1
    14    5    6 1
    15    5    8 1
    16    6    7 1
    17    6   35 1
    18    6   36 1
    19    7   37 1
    20    7   38 1
    21    8    9 1
    22    8   39 1
    23    8   40 1
    24    9   10 2
    25    9   11 am
    26   11   12 1
    27   11   41 1
    28   12   17 ar
    29   12   13 ar
    30   13   14 ar
    31   13   42 1
    32   14   15 ar
    33   14   23 1
    34   15   16 ar
    35   16   17 ar
    36   16   18 1
    37   18   22 1
    38   18   19 2
    39   19   20 1
    40   19   43 1
    41   20   21 2
    42   20   44 1
    43   21   22 1
    44   21   45 1
    45   23   27 1
    46   23   24 1
    47   24   25 2
    48   24   46 1
    49   25   26 1
    50   25   47 1
    51   26   27 2
    52   26   48 1
@<TRIPOS>MOLECULE
ZINC23360511
   55    58     0     0     0
SMALL
USER_CHARGES

@<TRIPOS>ATOM
      1 C1         -0.0267    1.5052    0.0151 C.3       1 <0>        -0.0782
      2 C2         -0.0056   -0.0017    0.0058 C.2       1 <0>         0.1079
      3 C3         -0.0008   -0.8138   -1.1344 C.2       1 <0>        -0.2564
      4 C4          0.0197   -2.1036   -0.7279 C.2       1 <0>         0.1178
      5 N1          0.0275   -2.1063    0.6310 N.pl3     1 <0>        -0.3382
      6 N2          0.0170   -0.7732    1.0617 N.2       1 <0>        -0.2875
      7 C5          0.0480   -3.2358    1.4515 C.ar      1 <0>         0.4609
      8 C6          0.5563   -3.1581    2.7443 C.ar      1 <0>        -0.2595
      9 C7          0.5575   -4.3096    3.5284 C.ar      1 <0>         0.4330
     10 N3          0.0763   -5.4388    3.0203 N.ar      1 <0>        -0.5073
     11 C8         -0.4013   -5.4769    1.7816 C.ar      1 <0>         0.4621
     12 N4         -0.4223   -4.3964    1.0094 N.ar      1 <0>        -0.5426
     13 C9         -0.9273   -6.7498    1.2522 C.2       1 <0>         0.0104
     14 C10        -0.9826   -7.9322    1.9236 C.2       1 <0>        -0.1162
     15 C11        -1.5534   -8.8712    1.0442 C.2       1 <0>        -0.2281
     16 C12        -1.8163   -8.2240   -0.1094 C.2       1 <0>         0.0022
     17 O1         -1.4420   -6.9424    0.0217 O.3       1 <0>        -0.1524
     18 N5          1.0565   -4.2775    4.8264 N.am      1 <0>        -0.6509
     19 C13         0.9605   -5.3681    5.6124 C.2       1 <0>         0.5069
     20 O2          0.5235   -6.4050    5.1601 O.2       1 <0>        -0.4475
     21 C14         1.3961   -5.2991    7.0534 C.3       1 <0>         0.0377
     22 N6          1.1926   -6.6074    7.6897 N.3       1 <0>        -0.5232
     23 C15        -0.2378   -6.9335    7.7777 C.3       1 <0>         0.0172
     24 C16        -0.4038   -8.3259    8.3902 C.3       1 <0>         0.0007
     25 N7          0.2042   -8.3485    9.7272 N.4       1 <0>        -0.3894
     26 C17         1.6375   -8.0453    9.6203 C.3       1 <0>        -0.0013
     27 C18         1.8204   -6.6505    9.0180 C.3       1 <0>         0.0266
     28 C19         0.0288   -9.6802   10.3221 C.3       1 <0>        -0.0457
     29 C20         0.0308   -3.3179   -1.6203 C.3       1 <0>        -0.1095
     30 H1          0.9957    1.8829    0.0063 H         1 <0>         0.0856
     31 H2         -0.5551    1.8665   -0.8672 H         1 <0>         0.0861
     32 H3         -0.5360    1.8559    0.9127 H         1 <0>         0.0777
     33 H4         -0.0118   -0.4708   -2.1584 H         1 <0>         0.1617
     34 H5          0.9415   -2.2262    3.1312 H         1 <0>         0.1627
     35 H6         -0.6519   -8.1148    2.9353 H         1 <0>         0.1630
     36 H7         -1.7447   -9.9133    1.2536 H         1 <0>         0.1579
     37 H8         -2.2587   -8.6635   -0.9911 H         1 <0>         0.2140
     38 H9          1.4736   -3.4703    5.1659 H         1 <0>         0.4267
     39 H10         2.4518   -5.0321    7.1014 H         1 <0>         0.1241
     40 H11         0.8066   -4.5455    7.5756 H         1 <0>         0.0836
     41 H12        -0.7407   -6.1978    8.4053 H         1 <0>         0.0586
     42 H13        -0.6758   -6.9207    6.7796 H         1 <0>         0.1393
     43 H14        -1.4645   -8.5639    8.4695 H         1 <0>         0.1366
     44 H15         0.0875   -9.0631    7.7552 H         1 <0>         0.1405
     45 H16         2.0900   -8.0752   10.6115 H         1 <0>         0.1380
     46 H17         2.1183   -8.7839    8.9790 H         1 <0>         0.1393
     47 H18         2.8840   -6.4312    8.9248 H         1 <0>         0.1263
     48 H19         1.3515   -5.9101    9.6661 H         1 <0>         0.0639
     49 H20         0.5110  -10.4265    9.6909 H         1 <0>         0.1237
     50 H21         0.4799   -9.6971   11.3142 H         1 <0>         0.1243
     51 H22        -1.0347   -9.9049   10.4027 H         1 <0>         0.1245
     52 H23         1.0610   -3.5967   -1.8416 H         1 <0>         0.0792
     53 H24        -0.4688   -4.1446   -1.1153 H         1 <0>         0.1030
     54 H25        -0.4917   -3.0907   -2.5495 H         1 <0>         0.0888
     55 H26        -0.2428   -7.6580   10.3114 H         1 <0>         0.4218
@<TRIPOS>BOND
     1    1    2 1
     2    1   30 1
     3    1   31 1
     4    1   32 1
     5    2    6 2
     6    2    3 1
     7    3    4 2
     8    3   33 1
     9    4    5 1
    10    4   29 1
    11    5    6 1
    12    5    7 1
    13    7   12 ar
    14    7    8 ar
    15    8    9 ar
    16    8   34 1
    17    9   10 ar
    18    9   18 1
    19   10   11 ar
    20   11   12 ar
    21   11   13 1
    22   13   17 1
    23   13   14 2
    24   14   15 1
    25   14   35 1
    26   15   16 2
    27   15   36 1
    28   16   17 1
    29   16   37 1
    30   18   19 am
    31   18   38 1
    32   19   20 2
    33   19   21 1
    34   21   22 1
    35   21   39 1
    36   21   40 1
    37   22   27 1
    38   22   23 1
    39   23   24 1
    40   23   41 1
    41   23   42 1
    42   24   25 1
    43   24   43 1
    44   24   44 1
    45   25   26 1
    46   25   28 1
    47   25   55 1
    48   26   27 1
    49   26   45 1
    50   26   46 1
    51   27   47 1
    52   27   48 1
    53   28   49 1
    54   28   50 1
    55   28   51 1
    56   29   52 1
    57   29   53 1
    58   29   54 1
@<TRIPOS>MOLECULE
ZINC03809416
   38    40     0     0     0
SMALL
USER_CHARGES

@<TRIPOS>ATOM
      1 C1         -0.0178    1.4608    0.0101 C.3       1 <0>         0.0683
      2 N1          0.0021   -0.0041    0.0020 N.pl3     1 <0>        -0.4076
      3 C2          0.0086   -0.8126   -1.0981 C.2       1 <0>         0.3219
      4 N2          0.0273   -2.0762   -0.7086 N.2       1 <0>        -0.4878
      5 C3          0.0336   -2.1396    0.6207 C.2       1 <0>         0.3242
      6 C4          0.0238   -0.8345    1.1065 C.2       1 <0>        -0.1479
      7 C5          0.0334   -0.6204    2.5005 C.2       1 <0>         0.5944
      8 O1          0.0219    0.5119    2.9498 O.2       1 <0>        -0.5124
      9 N3          0.0551   -1.6834    3.3309 N.am      1 <0>        -0.5517
     10 C6          0.0676   -2.9383    2.8497 C.2       1 <0>         0.7075
     11 O2          0.0871   -3.8714    3.6292 O.2       1 <0>        -0.5312
     12 N4          0.0510   -3.1889    1.5272 N.am      1 <0>        -0.5112
     13 C7          0.0679   -4.5721    1.0446 C.3       1 <0>         0.0892
     14 C8          0.0656   -1.4666    4.7797 C.3       1 <0>         0.0837
     15 C9         -0.0040   -0.3532   -2.4893 C.2       1 <0>        -0.1128
     16 C10         0.0042   -1.2498   -3.4949 C.2       1 <0>        -0.0263
     17 C11        -0.0084   -0.7882   -4.8930 C.ar      1 <0>        -0.0596
     18 C12        -0.0231    0.5802   -5.1810 C.ar      1 <0>        -0.1011
     19 C13        -0.0350    1.0055   -6.4925 C.ar      1 <0>        -0.1060
     20 C14        -0.0323    0.0822   -7.5234 C.ar      1 <0>        -0.0999
     21 C15        -0.0182   -1.2748   -7.2469 C.ar      1 <0>        -0.0359
     22 C16         0.0001   -1.7155   -5.9389 C.ar      1 <0>        -0.0865
     23 Cl1        -0.0155   -2.4239   -8.5482 Cl        1 <0>        -0.0625
     24 H1          1.0048    1.8381    0.0023 H         1 <0>         0.0891
     25 H2         -0.5450    1.8219   -0.8730 H         1 <0>         0.0963
     26 H3         -0.5280    1.8123    0.9069 H         1 <0>         0.1035
     27 H4          1.0996   -4.9013    0.9212 H         1 <0>         0.0734
     28 H5         -0.4347   -5.2151    1.7672 H         1 <0>         0.0940
     29 H6         -0.4488   -4.6289    0.0865 H         1 <0>         0.0922
     30 H7         -0.9593   -1.4263    5.1485 H         1 <0>         0.0770
     31 H8          0.5948   -2.2861    5.2659 H         1 <0>         0.0969
     32 H9          0.5692   -0.5259    5.0026 H         1 <0>         0.0950
     33 H10        -0.0198    0.7042   -2.7087 H         1 <0>         0.1430
     34 H11         0.0201   -2.3072   -3.2755 H         1 <0>         0.1434
     35 H12        -0.0256    1.3023   -4.3778 H         1 <0>         0.1330
     36 H13        -0.0467    2.0621   -6.7159 H         1 <0>         0.1372
     37 H14        -0.0416    0.4216   -8.5487 H         1 <0>         0.1367
     38 H15         0.0163   -2.7738   -5.7242 H         1 <0>         0.1406
@<TRIPOS>BOND
     1    1    2 1
     2    1   24 1
     3    1   25 1
     4    1   26 1
     5    2    6 1
     6    2    3 1
     7    3    4 2
     8    3   15 1
     9    4    5 1
    10    5   12 1
    11    5    6 2
    12    6    7 1
    13    7    8 2
    14    7    9 am
    15    9   10 am
    16    9   14 1
    17   10   11 2
    18   10   12 am
    19   12   13 1
    20   13   27 1
    21   13   28 1
    22   13   29 1
    23   14   30 1
    24   14   31 1
    25   14   32 1
    26   15   16 2
    27   15   33 1
    28   16   17 1
    29   16   34 1
    30   17   22 ar
    31   17   18 ar
    32   18   19 ar
    33   18   35 1
    34   19   20 ar
    35   19   36 1
    36   20   21 ar
    37   20   37 1
    38   21   22 ar
    39   21   23 1
    40   22   38 1
@<TRIPOS>MOLECULE
ZINC00477239
   37    40     0     0     0
SMALL
USER_CHARGES

@<TRIPOS>ATOM
      1 C1         -0.0184    1.5028    0.0103 C.3       1 <0>        -0.0772
      2 C2          0.0021   -0.0041    0.0020 C.2       1 <0>         0.1912
      3 N1         -0.0839   -0.7743   -1.0552 N.2       1 <0>        -0.2667
      4 N2         -0.0337   -2.0126   -0.7058 N.2       1 <0>        -0.2378
      5 C3          0.0878   -2.0923    0.6020 C.2       1 <0>         0.1220
      6 N3          0.1179   -0.8047    1.0791 N.pl3     1 <0>        -0.3780
      7 C4          0.2461   -0.5912    2.4415 C.ar      1 <0>         0.0436
      8 C5          0.2761    0.6998    2.9533 C.ar      1 <0>        -0.1125
      9 C6          0.4040    0.9019    4.3114 C.ar      1 <0>        -0.1130
     10 C7          0.5031   -0.1784    5.1757 C.ar      1 <0>        -0.0934
     11 C8          0.4754   -1.4648    4.6891 C.ar      1 <0>        -0.0889
     12 C9          0.3460   -1.6893    3.3123 C.ar      1 <0>         0.1516
     13 N4          0.3179   -2.9597    2.8344 N.2       1 <0>        -0.5441
     14 C10         0.1908   -3.2046    1.5500 C.2       1 <0>         0.5071
     15 N5          0.1674   -4.5083    1.0927 N.pl3     1 <0>        -0.6758
     16 C11         0.2705   -5.6194    2.0420 C.3       1 <0>         0.1483
     17 C12         1.7531   -5.9639    2.2933 C.3       1 <0>        -0.1342
     18 C13         1.7678   -7.5073    2.4223 C.3       1 <0>        -0.1247
     19 C14         0.7306   -7.9491    1.3601 C.3       1 <0>        -0.1252
     20 C15        -0.3796   -6.8816    1.4486 C.3       1 <0>        -0.1344
     21 H1          1.0041    1.8799    0.0308 H         1 <0>         0.0942
     22 H2         -0.5210    1.8643   -0.8868 H         1 <0>         0.1057
     23 H3         -0.5530    1.8540    0.8929 H         1 <0>         0.0874
     24 H4          0.1995    1.5463    2.2869 H         1 <0>         0.1395
     25 H5          0.4276    1.9075    4.7045 H         1 <0>         0.1376
     26 H6          0.6029   -0.0085    6.2376 H         1 <0>         0.1382
     27 H7          0.5537   -2.3011    5.3679 H         1 <0>         0.1445
     28 H8          0.0827   -4.6879    0.1433 H         1 <0>         0.4191
     29 H9         -0.2163   -5.3547    2.9806 H         1 <0>         0.1008
     30 H10         2.3668   -5.6456    1.4506 H         1 <0>         0.0695
     31 H11         2.1012   -5.5006    3.2164 H         1 <0>         0.0743
     32 H12         2.7550   -7.9052    2.1871 H         1 <0>         0.0698
     33 H13         1.4540   -7.8146    3.4198 H         1 <0>         0.0709
     34 H14         1.1793   -7.9514    0.3667 H         1 <0>         0.0681
     35 H15         0.3326   -8.9345    1.6023 H         1 <0>         0.0703
     36 H16        -1.1813   -7.2299    2.0997 H         1 <0>         0.0789
     37 H17        -0.7718   -6.6675    0.4545 H         1 <0>         0.0733
@<TRIPOS>BOND
     1    1    2 1
     2    1   21 1
     3    1   22 1
     4    1   23 1
     5    2    6 1
     6    2    3 2
     7    3    4 1
     8    4    5 2
     9    5   14 1
    10    5    6 1
    11    6    7 1
    12    7   12 ar
    13    7    8 ar
    14    8    9 ar
    15    8   24 1
    16    9   10 ar
    17    9   25 1
    18   10   11 ar
    19   10   26 1
    20   11   12 ar
    21   11   27 1
    22   12   13 1
    23   13   14 2
    24   14   15 1
    25   15   16 1
    26   15   28 1
    27   16   20 1
    28   16   17 1
    29   16   29 1
    30   17   18 1
    31   17   30 1
    32   17   31 1
    33   18   19 1
    34   18   32 1
    35   18   33 1
    36   19   20 1
    37   19   34 1
    38   19   35 1
    39   20   36 1
    40   20   37 1
@<TRIPOS>MOLECULE
ZINC13826985
   50    52     0     0     0
SMALL
USER_CHARGES
1,3,7-trimethyl-8-[(E)-2-(2,3,4-trimethoxyphenyl)vinyl]purine-2,6-dione
@<TRIPOS>ATOM
      1 C1          3.0819    0.2381   -0.0260 C.3       1 <0>         0.0696
      2 N1          2.5308    1.5954   -0.0131 N.pl3     1 <0>        -0.4104
      3 C2          3.2397    2.7633   -0.0134 C.2       1 <0>         0.3288
      4 N2          2.3966    3.7831   -0.0000 N.2       1 <0>        -0.4894
      5 C3          1.1437    3.3348    0.0091 C.2       1 <0>         0.3252
      6 C4          1.1916    1.9429    0.0011 C.2       1 <0>        -0.1510
      7 C5         -0.0144    1.2142    0.0087 C.2       1 <0>         0.5944
      8 O1          0.0021   -0.0041    0.0020 O.2       1 <0>        -0.5140
      9 N3         -1.1876    1.8802    0.0179 N.am      1 <0>        -0.5519
     10 C6         -1.2215    3.2237    0.0311 C.2       1 <0>         0.7075
     11 O2         -2.2980    3.7891    0.0449 O.2       1 <0>        -0.5323
     12 N4         -0.0943    3.9596    0.0243 N.am      1 <0>        -0.5111
     13 C7         -0.1754    5.4223    0.0325 C.3       1 <0>         0.0893
     14 C8         -2.4442    1.1271    0.0191 C.3       1 <0>         0.0840
     15 C9          4.6989    2.8695   -0.0258 C.2       1 <0>        -0.1297
     16 C10         5.2871    4.0842   -0.0247 C.2       1 <0>        -0.0080
     17 C11         6.7525    4.1908   -0.0372 C.ar      1 <0>        -0.1217
     18 C12         7.5412    3.0343   -0.0503 C.ar      1 <0>        -0.0511
     19 C13         8.9141    3.1373   -0.0621 C.ar      1 <0>        -0.2047
     20 C14         9.5234    4.3867   -0.0614 C.ar      1 <0>         0.1385
     21 C15         8.7512    5.5432   -0.0490 C.ar      1 <0>         0.0420
     22 C16         7.3670    5.4526   -0.0420 C.ar      1 <0>         0.1456
     23 O3          6.6096    6.5803   -0.0346 O.3       1 <0>        -0.3259
     24 C17         6.2592    7.1181    1.2421 C.3       1 <0>         0.0376
     25 O4          9.3534    6.7638   -0.0484 O.3       1 <0>        -0.3184
     26 C18         9.6291    7.3517   -1.3213 C.3       1 <0>         0.0370
     27 O5         10.8791    4.4783   -0.0726 O.3       1 <0>        -0.3008
     28 C19        11.6122    3.2518   -0.0846 C.3       1 <0>         0.0219
     29 H1          3.2092   -0.0926   -1.0568 H         1 <0>         0.0881
     30 H2          4.0479    0.2333    0.4790 H         1 <0>         0.0955
     31 H3          2.3987   -0.4363    0.4902 H         1 <0>         0.1026
     32 H4         -0.2056    5.7902   -0.9931 H         1 <0>         0.0736
     33 H5         -1.0791    5.7331    0.5567 H         1 <0>         0.0937
     34 H6          0.6980    5.8318    0.5399 H         1 <0>         0.0919
     35 H7         -2.7512    0.9343    1.0471 H         1 <0>         0.0765
     36 H8         -3.2157    1.7067   -0.4879 H         1 <0>         0.0966
     37 H9         -2.3007    0.1799   -0.5008 H         1 <0>         0.0948
     38 H10         5.3053    1.9759   -0.0359 H         1 <0>         0.1411
     39 H11         4.6807    4.9778   -0.0146 H         1 <0>         0.1438
     40 H12         7.0727    2.0613   -0.0509 H         1 <0>         0.1391
     41 H13         9.5202    2.2435   -0.0721 H         1 <0>         0.1415
     42 H14         7.1662    7.3709    1.7912 H         1 <0>         0.0542
     43 H15         5.6555    8.0153    1.1052 H         1 <0>         0.0999
     44 H16         5.6887    6.3785    1.8038 H         1 <0>         0.0503
     45 H17        10.1085    8.3201   -1.1781 H         1 <0>         0.0953
     46 H18        10.2927    6.6980   -1.8874 H         1 <0>         0.0459
     47 H19         8.6965    7.4855   -1.8694 H         1 <0>         0.0501
     48 H20        12.6807    3.4671   -0.0928 H         1 <0>         0.1054
     49 H21        11.3652    2.6721    0.8048 H         1 <0>         0.0600
     50 H22        11.3500    2.6804   -0.9751 H         1 <0>         0.0592
@<TRIPOS>BOND
     1    1    2 1
     2    1   29 1
     3    1   30 1
     4    1   31 1
     5    2    6 1
     6    2    3 1
     7    3    4 2
     8    3   15 1
     9    4    5 1
    10    5   12 1
    11    5    6 2
    12    6    7 1
    13    7    8 2
    14    7    9 am
    15    9   10 am
    16    9   14 1
    17   10   11 2
    18   10   12 am
    19   12   13 1
    20   13   32 1
    21   13   33 1
    22   13   34 1
    23   14   35 1
    24   14   36 1
    25   14   37 1
    26   15   16 2
    27   15   38 1
    28   16   17 1
    29   16   39 1
    30   17   22 ar
    31   17   18 ar
    32   18   19 ar
    33   18   40 1
    34   19   20 ar
    35   19   41 1
    36   20   21 ar
    37   20   27 1
    38   21   22 ar
    39   21   25 1
    40   22   23 1
    41   23   24 1
    42   24   42 1
    43   24   43 1
    44   24   44 1
    45   25   26 1
    46   26   45 1
    47   26   46 1
    48   26   47 1
    49   27   28 1
    50   28   48 1
    51   28   49 1
    52   28   50 1
@<TRIPOS>MOLECULE
ZINC13826985
   51    53     0     0     0
SMALL
USER_CHARGES
1,3,7-trimethyl-8-[(E)-2-(2,3,4-trimethoxyphenyl)vinyl]purine-2,6-dione
@<TRIPOS>ATOM
      1 C1          3.0819    0.2381   -0.0260 C.3       1 <0>         0.0546
      2 N1          2.5308    1.5954   -0.0131 N.pl3     1 <0>        -0.3584
      3 C2          3.2397    2.7633   -0.0134 C.cat     1 <0>         0.4161
      4 C3          1.1437    3.3348    0.0091 C.2       1 <0>         0.3541
      5 C4          1.1916    1.9429    0.0011 C.2       1 <0>        -0.0797
      6 C5         -0.0144    1.2142    0.0087 C.2       1 <0>         0.5899
      7 O1          0.0021   -0.0041    0.0020 O.2       1 <0>        -0.4685
      8 N2         -1.1876    1.8802    0.0179 N.am      1 <0>        -0.5422
      9 C6         -1.2215    3.2237    0.0311 C.2       1 <0>         0.7084
     10 O2         -2.2980    3.7891    0.0449 O.2       1 <0>        -0.4848
     11 N3         -0.0943    3.9596    0.0243 N.am      1 <0>        -0.5141
     12 C7         -0.1754    5.4223    0.0325 C.3       1 <0>         0.0637
     13 C8         -2.4442    1.1271    0.0191 C.3       1 <0>         0.0758
     14 C9          4.6989    2.8695   -0.0258 C.2       1 <0>        -0.1993
     15 C10         5.2871    4.0842   -0.0247 C.2       1 <0>         0.0574
     16 C11         6.7525    4.1908   -0.0372 C.ar      1 <0>        -0.1629
     17 C12         7.5412    3.0343   -0.0503 C.ar      1 <0>        -0.0277
     18 C13         8.9141    3.1373   -0.0621 C.ar      1 <0>        -0.2092
     19 C14         9.5234    4.3867   -0.0614 C.ar      1 <0>         0.1695
     20 C15         8.7512    5.5432   -0.0490 C.ar      1 <0>         0.0405
     21 C16         7.3670    5.4526   -0.0420 C.ar      1 <0>         0.1632
     22 O3          6.6096    6.5803   -0.0346 O.3       1 <0>        -0.3293
     23 C17         6.2592    7.1181    1.2421 C.3       1 <0>         0.0328
     24 O4          9.3534    6.7638   -0.0484 O.3       1 <0>        -0.3159
     25 C18         9.6291    7.3517   -1.3213 C.3       1 <0>         0.0356
     26 O5         10.8791    4.4783   -0.0726 O.3       1 <0>        -0.2922
     27 C19        11.6122    3.2518   -0.0846 C.3       1 <0>         0.0175
     28 H1          3.2092   -0.0926   -1.0568 H         1 <0>         0.1184
     29 H2          4.0479    0.2333    0.4790 H         1 <0>         0.1202
     30 H3          2.3987   -0.4363    0.4902 H         1 <0>         0.1282
     31 H4         -0.2056    5.7902   -0.9931 H         1 <0>         0.0959
     32 H5         -1.0791    5.7331    0.5567 H         1 <0>         0.1206
     33 H6          0.6980    5.8318    0.5399 H         1 <0>         0.0887
     34 H7         -2.7512    0.9343    1.0471 H         1 <0>         0.0893
     35 H8         -3.2157    1.7067   -0.4879 H         1 <0>         0.1064
     36 H9         -2.3007    0.1799   -0.5008 H         1 <0>         0.1056
     37 H10         5.3053    1.9759   -0.0359 H         1 <0>         0.1766
     38 H11         4.6807    4.9778   -0.0146 H         1 <0>         0.1313
     39 H12         7.0727    2.0613   -0.0509 H         1 <0>         0.1439
     40 H13         9.5202    2.2435   -0.0721 H         1 <0>         0.1504
     41 H14         7.1662    7.3709    1.7912 H         1 <0>         0.0635
     42 H15         5.6555    8.0153    1.1052 H         1 <0>         0.1055
     43 H16         5.6887    6.3785    1.8038 H         1 <0>         0.0466
     44 H17        10.1085    8.3201   -1.1781 H         1 <0>         0.1014
     45 H18        10.2927    6.6980   -1.8874 H         1 <0>         0.0498
     46 H19         8.6965    7.4855   -1.8694 H         1 <0>         0.0509
     47 H20        12.6807    3.4671   -0.0928 H         1 <0>         0.1130
     48 H21        11.3652    2.6721    0.8048 H         1 <0>         0.0651
     49 H22        11.3500    2.6804   -0.9751 H         1 <0>         0.0643
     50 N4          2.3973    3.7857    0.0000 N.pl3     1 <0>        -0.5084
     51 H23         2.6694    4.7757    0.0029 H         1 <0>         0.4776
@<TRIPOS>BOND
     1    1    2 1
     2    1   28 1
     3    1   29 1
     4    1   30 1
     5    2    5 1
     6    2    3 1
     7    3   14 1
     8    3   50 2
     9    4   11 1
    10    4    5 2
    11    4   50 1
    12    5    6 1
    13    6    7 2
    14    6    8 am
    15    8    9 am
    16    8   13 1
    17    9   10 2
    18    9   11 am
    19   11   12 1
    20   12   31 1
    21   12   32 1
    22   12   33 1
    23   13   34 1
    24   13   35 1
    25   13   36 1
    26   14   15 2
    27   14   37 1
    28   15   16 1
    29   15   38 1
    30   16   21 ar
    31   16   17 ar
    32   17   18 ar
    33   17   39 1
    34   18   19 ar
    35   18   40 1
    36   19   20 ar
    37   19   26 1
    38   20   21 ar
    39   20   24 1
    40   21   22 1
    41   22   23 1
    42   23   41 1
    43   23   42 1
    44   23   43 1
    45   24   25 1
    46   25   44 1
    47   25   45 1
    48   25   46 1
    49   26   27 1
    50   27   47 1
    51   27   48 1
    52   27   49 1
    53   50   51 1
@<TRIPOS>MOLECULE
ZINC04910686
   34    37     0     0     0
SMALL
USER_CHARGES
N-cyclopentyl-[1,2,4]triazolo[3,4-c]quinoxalin-4-amine
@<TRIPOS>ATOM
      1 C1          2.2537   -4.4406   -0.0442 C.ar      1 <0>        -0.0926
      2 C2          3.2660   -3.4923   -0.0488 C.ar      1 <0>        -0.1129
      3 C3          2.9624   -2.1473   -0.0383 C.ar      1 <0>        -0.1012
      4 C4          1.6364   -1.7333   -0.0229 C.ar      1 <0>         0.0406
      5 C5          0.6068   -2.6893   -0.0182 C.ar      1 <0>         0.1525
      6 C6          0.9343   -4.0514   -0.0286 C.ar      1 <0>        -0.0890
      7 N1         -0.6958   -2.3068   -0.0041 N.2       1 <0>        -0.5434
      8 C7         -1.0359   -1.0379    0.0064 C.2       1 <0>         0.5060
      9 C8          0.0021   -0.0041    0.0020 C.2       1 <0>         0.1253
     10 N2          1.3217   -0.3847   -0.0126 N.pl3     1 <0>        -0.3795
     11 C9          2.0400    0.7547   -0.0134 C.2       1 <0>         0.1673
     12 N3          1.1931    1.7552    0.0001 N.2       1 <0>        -0.2678
     13 N4         -0.0158    1.3116    0.0093 N.2       1 <0>        -0.2403
     14 N5         -2.3703   -0.6790    0.0211 N.pl3     1 <0>        -0.6756
     15 C10        -3.4071   -1.7140    0.0254 C.3       1 <0>         0.1482
     16 C11        -3.7430   -2.1316   -1.4212 C.3       1 <0>        -0.1340
     17 C12        -5.2733   -2.3752   -1.3998 C.3       1 <0>        -0.1248
     18 C13        -5.7855   -1.2548   -0.4610 C.3       1 <0>        -0.1252
     19 C14        -4.7052   -1.1571    0.6360 C.3       1 <0>        -0.1342
     20 H1          2.5030   -5.4914   -0.0526 H         1 <0>         0.1384
     21 H2          4.2984   -3.8094   -0.0604 H         1 <0>         0.1377
     22 H3          3.7562   -1.4149   -0.0416 H         1 <0>         0.1332
     23 H4          0.1515   -4.7954   -0.0251 H         1 <0>         0.1447
     24 H5          3.1173    0.8303   -0.0229 H         1 <0>         0.2315
     25 H6         -2.6204    0.2581    0.0285 H         1 <0>         0.4192
     26 H7         -3.0680   -2.5794    0.5947 H         1 <0>         0.1005
     27 H8         -3.4942   -1.3304   -2.1171 H         1 <0>         0.0695
     28 H9         -3.2139   -3.0468   -1.6867 H         1 <0>         0.0745
     29 H10        -5.5015   -3.3584   -0.9883 H         1 <0>         0.0706
     30 H11        -5.6985   -2.2676   -2.3976 H         1 <0>         0.0698
     31 H12        -6.7463   -1.5307   -0.0266 H         1 <0>         0.0703
     32 H13        -5.8667   -0.3117   -1.0014 H         1 <0>         0.0682
     33 H14        -4.9965   -1.7528    1.5010 H         1 <0>         0.0790
     34 H15        -4.5636   -0.1168    0.9290 H         1 <0>         0.0734
@<TRIPOS>BOND
     1    1    6 ar
     2    1    2 ar
     3    1   20 1
     4    2    3 ar
     5    2   21 1
     6    3    4 ar
     7    3   22 1
     8    4   10 1
     9    4    5 ar
    10    5    6 ar
    11    5    7 1
    12    6   23 1
    13    7    8 2
    14    8    9 1
    15    8   14 1
    16    9   13 2
    17    9   10 1
    18   10   11 1
    19   11   12 2
    20   11   24 1
    21   12   13 1
    22   14   15 1
    23   14   25 1
    24   15   19 1
    25   15   16 1
    26   15   26 1
    27   16   17 1
    28   16   27 1
    29   16   28 1
    30   17   18 1
    31   17   29 1
    32   17   30 1
    33   18   19 1
    34   18   31 1
    35   18   32 1
    36   19   33 1
    37   19   34 1
@<TRIPOS>MOLECULE
ZINC04910771
   30    32     0     0     0
SMALL
USER_CHARGES
N-isopropyl-[1,2,4]triazolo[3,4-c]quinoxalin-4-amine
@<TRIPOS>ATOM
      1 C1          1.6351    2.0768    1.4347 C.3       1 <0>        -0.1645
      2 C2          1.2475    1.7155   -0.0006 C.3       1 <0>         0.1447
      3 C3          2.3488    0.8566   -0.6254 C.3       1 <0>        -0.1648
      4 N1         -0.0111    0.9658    0.0074 N.pl3     1 <0>        -0.6776
      5 C4         -1.2170    1.6404    0.0167 C.2       1 <0>         0.5068
      6 C5         -2.4765    0.8921    0.0186 C.2       1 <0>         0.1252
      7 N2         -2.7812   -0.3879    0.0127 N.2       1 <0>        -0.2401
      8 N3         -4.0620   -0.5221    0.0183 N.2       1 <0>        -0.2679
      9 C6         -4.6383    0.6553    0.0280 C.2       1 <0>         0.1675
     10 N4         -3.6629    1.5842    0.0285 N.pl3     1 <0>        -0.3798
     11 C7         -3.6380    2.9689    0.0357 C.ar      1 <0>         0.0406
     12 C8         -4.8223    3.6948    0.0453 C.ar      1 <0>        -0.1012
     13 C9         -4.7875    5.0733    0.0529 C.ar      1 <0>        -0.1129
     14 C10        -3.5739    5.7449    0.0501 C.ar      1 <0>        -0.0925
     15 C11        -2.3899    5.0446    0.0402 C.ar      1 <0>        -0.0890
     16 C12        -2.4056    3.6437    0.0329 C.ar      1 <0>         0.1524
     17 N5         -1.2363    2.9540    0.0295 N.2       1 <0>        -0.5442
     18 H1          2.5715    2.6346    1.4287 H         1 <0>         0.0697
     19 H2          0.8505    2.6887    1.8798 H         1 <0>         0.0623
     20 H3          1.7593    1.1645    2.0181 H         1 <0>         0.0570
     21 H4          1.1233    2.6278   -0.5840 H         1 <0>         0.0971
     22 H5          2.0727    0.5992   -1.6480 H         1 <0>         0.0638
     23 H6          3.2853    1.4144   -0.6314 H         1 <0>         0.0785
     24 H7          2.4730   -0.0557   -0.0420 H         1 <0>         0.0637
     25 H8          0.0021   -0.0041    0.0020 H         1 <0>         0.4195
     26 H9         -5.7013    0.8457    0.0349 H         1 <0>         0.2315
     27 H10        -5.7712    3.1791    0.0472 H         1 <0>         0.1333
     28 H11        -5.7109    5.6334    0.0607 H         1 <0>         0.1377
     29 H12        -3.5584    6.8247    0.0561 H         1 <0>         0.1384
     30 H13        -1.4487    5.5744    0.0377 H         1 <0>         0.1448
@<TRIPOS>BOND
     1    1    2 1
     2    1   18 1
     3    1   19 1
     4    1   20 1
     5    2    3 1
     6    2    4 1
     7    2   21 1
     8    3   22 1
     9    3   23 1
    10    3   24 1
    11    4    5 1
    12    4   25 1
    13    5   17 2
    14    5    6 1
    15    6   10 1
    16    6    7 2
    17    7    8 1
    18    8    9 2
    19    9   10 1
    20    9   26 1
    21   10   11 1
    22   11   16 ar
    23   11   12 ar
    24   12   13 ar
    25   12   27 1
    26   13   14 ar
    27   13   28 1
    28   14   15 ar
    29   14   29 1
    30   15   16 ar
    31   15   30 1
    32   16   17 1
@<TRIPOS>MOLECULE
ZINC12405396
   47    49     0     0     0
SMALL
USER_CHARGES
1,3-dimethyl-8-[(E)-2-(3,4,5-trimethoxyphenyl)vinyl]-7H-purine-2,6-dione
@<TRIPOS>ATOM
      1 C1         -1.5742    4.8091    2.7089 C.3       1 <0>         0.0887
      2 N1         -1.4517    3.3619    2.5168 N.am      1 <0>        -0.5117
      3 C2         -1.9762    2.4913    3.4603 C.2       1 <0>         0.3275
      4 C3         -1.8453    1.1204    3.2529 C.2       1 <0>        -0.1434
      5 C4         -1.1866    0.6609    2.0944 C.2       1 <0>         0.5929
      6 O1         -1.0601   -0.5337    1.8908 O.2       1 <0>        -0.5129
      7 N2         -0.6984    1.5583    1.2133 N.am      1 <0>        -0.5511
      8 C5         -0.8264    2.8790    1.4268 C.2       1 <0>         0.7072
      9 O2         -0.3693    3.6578    0.6124 O.2       1 <0>        -0.5286
     10 C6         -0.0127    1.0858    0.0080 C.3       1 <0>         0.0826
     11 N3         -2.4487    0.5002    4.3316 N.pl3     1 <0>        -0.5176
     12 H1         -2.5265   -0.4846    4.4868 H         1 <0>         0.4453
     13 C7         -2.9178    1.4928    5.1439 C.2       1 <0>         0.3326
     14 N4         -2.6267    2.6667    4.6080 N.2       1 <0>        -0.4875
     15 C8         -3.6293    1.2900    6.4073 C.2       1 <0>        -0.1128
     16 C9         -4.0456    2.3530    7.1249 C.2       1 <0>        -0.0237
     17 C10        -4.7605    2.1492    8.3943 C.ar      1 <0>        -0.0002
     18 C11        -5.0144    0.8533    8.8557 C.ar      1 <0>        -0.2188
     19 C12        -5.6818    0.6656   10.0516 C.ar      1 <0>         0.1493
     20 C13        -6.1105    1.7644   10.7914 C.ar      1 <0>         0.0404
     21 C14        -5.8646    3.0555   10.3324 C.ar      1 <0>         0.1492
     22 C15        -5.1931    3.2508    9.1400 C.ar      1 <0>        -0.2074
     23 O3         -6.2859    4.1259   11.0579 O.3       1 <0>        -0.3009
     24 C16        -6.0004    5.4219   10.5277 C.3       1 <0>         0.0224
     25 O4         -6.7712    1.5760   11.9648 O.3       1 <0>        -0.3126
     26 C17        -8.1951    1.4746   11.8984 C.3       1 <0>         0.0354
     27 O5         -5.9249   -0.5939   10.5033 O.3       1 <0>        -0.3004
     28 C18        -5.4572   -1.6749    9.6941 C.3       1 <0>         0.0226
     29 H2         -0.7098    5.1766    3.2619 H         1 <0>         0.0740
     30 H3         -1.6205    5.3018    1.7377 H         1 <0>         0.0943
     31 H4         -2.4833    5.0255    3.2699 H         1 <0>         0.0922
     32 H5          0.0021   -0.0041    0.0020 H         1 <0>         0.1040
     33 H6          1.0099    1.4631    0.0003 H         1 <0>         0.0833
     34 H7         -0.5399    1.4469   -0.8751 H         1 <0>         0.0833
     35 H8         -3.8208    0.2889    6.7645 H         1 <0>         0.1436
     36 H9         -3.8542    3.3541    6.7677 H         1 <0>         0.1449
     37 H10        -4.6858    0.0005    8.2803 H         1 <0>         0.1392
     38 H11        -5.0030    4.2527    8.7844 H         1 <0>         0.1427
     39 H12        -6.3897    6.1843   11.2024 H         1 <0>         0.1051
     40 H13        -4.9219    5.5433   10.4258 H         1 <0>         0.0603
     41 H14        -6.4717    5.5266    9.5504 H         1 <0>         0.0590
     42 H15        -8.5959    1.3262   12.9012 H         1 <0>         0.0944
     43 H16        -8.6053    2.3916   11.4753 H         1 <0>         0.0456
     44 H17        -8.4702    0.6288   11.2683 H         1 <0>         0.0453
     45 H18        -5.9243   -1.6211    8.7108 H         1 <0>         0.0576
     46 H19        -4.3747   -1.6062    9.5865 H         1 <0>         0.0589
     47 H20        -5.7159   -2.6218   10.1680 H         1 <0>         0.1054
@<TRIPOS>BOND
     1    1    2 1
     2    1   29 1
     3    1   30 1
     4    1   31 1
     5    2    8 am
     6    2    3 1
     7    3   14 1
     8    3    4 2
     9    4    5 1
    10    4   11 1
    11    5    6 2
    12    5    7 am
    13    7    8 am
    14    7   10 1
    15    8    9 2
    16   10   32 1
    17   10   33 1
    18   10   34 1
    19   11   12 1
    20   11   13 1
    21   13   14 2
    22   13   15 1
    23   15   16 2
    24   15   35 1
    25   16   17 1
    26   16   36 1
    27   17   22 ar
    28   17   18 ar
    29   18   19 ar
    30   18   37 1
    31   19   20 ar
    32   19   27 1
    33   20   21 ar
    34   20   25 1
    35   21   22 ar
    36   21   23 1
    37   22   38 1
    38   23   24 1
    39   24   39 1
    40   24   40 1
    41   24   41 1
    42   25   26 1
    43   26   42 1
    44   26   43 1
    45   26   44 1
    46   27   28 1
    47   28   45 1
    48   28   46 1
    49   28   47 1
@<TRIPOS>MOLECULE
ZINC12405396
   48    50     0     0     0
SMALL
USER_CHARGES
1,3-dimethyl-8-[(E)-2-(3,4,5-trimethoxyphenyl)vinyl]-7H-purine-2,6-dione
@<TRIPOS>ATOM
      1 C1         -1.5742    4.8091    2.7089 C.3       1 <0>         0.0629
      2 N1         -1.4517    3.3619    2.5168 N.am      1 <0>        -0.5134
      3 C2         -1.9762    2.4913    3.4603 C.2       1 <0>         0.3556
      4 C3         -1.8453    1.1204    3.2529 C.2       1 <0>        -0.0692
      5 C4         -1.1866    0.6609    2.0944 C.2       1 <0>         0.5874
      6 O1         -1.0601   -0.5337    1.8908 O.2       1 <0>        -0.4659
      7 N2         -0.6984    1.5583    1.2133 N.am      1 <0>        -0.5413
      8 C5         -0.8264    2.8790    1.4268 C.2       1 <0>         0.7076
      9 O2         -0.3693    3.6578    0.6124 O.2       1 <0>        -0.4805
     10 C6         -0.0127    1.0858    0.0080 C.3       1 <0>         0.0744
     11 N3         -2.4487    0.5002    4.3316 N.pl3     1 <0>        -0.4612
     12 H1         -2.5265   -0.4846    4.4868 H         1 <0>         0.4852
     13 C7         -2.9178    1.4928    5.1439 C.cat     1 <0>         0.4330
     14 C8         -3.6293    1.2900    6.4073 C.2       1 <0>        -0.1843
     15 C9         -4.0456    2.3530    7.1249 C.2       1 <0>         0.0460
     16 C10        -4.7605    2.1492    8.3943 C.ar      1 <0>        -0.0429
     17 C11        -5.0144    0.8533    8.8557 C.ar      1 <0>        -0.1985
     18 C12        -5.6818    0.6656   10.0516 C.ar      1 <0>         0.1469
     19 C13        -6.1105    1.7644   10.7914 C.ar      1 <0>         0.0730
     20 C14        -5.8646    3.0555   10.3324 C.ar      1 <0>         0.1465
     21 C15        -5.1931    3.2508    9.1400 C.ar      1 <0>        -0.1900
     22 O3         -6.2859    4.1259   11.0579 O.3       1 <0>        -0.2945
     23 C16        -6.0004    5.4219   10.5277 C.3       1 <0>         0.0210
     24 O4         -6.7712    1.5760   11.9648 O.3       1 <0>        -0.3118
     25 C17        -8.1951    1.4746   11.8984 C.3       1 <0>         0.0356
     26 O5         -5.9249   -0.5939   10.5033 O.3       1 <0>        -0.2941
     27 C18        -5.4572   -1.6749    9.6941 C.3       1 <0>         0.0207
     28 H2         -0.7098    5.1766    3.2619 H         1 <0>         0.0966
     29 H3         -1.6205    5.3018    1.7377 H         1 <0>         0.1213
     30 H4         -2.4833    5.0255    3.2699 H         1 <0>         0.0893
     31 H5          0.0021   -0.0041    0.0020 H         1 <0>         0.1138
     32 H6          1.0099    1.4631    0.0003 H         1 <0>         0.0951
     33 H7         -0.5399    1.4469   -0.8751 H         1 <0>         0.0951
     34 H8         -3.8208    0.2889    6.7645 H         1 <0>         0.1800
     35 H9         -3.8542    3.3541    6.7677 H         1 <0>         0.1350
     36 H10        -4.6858    0.0005    8.2803 H         1 <0>         0.1431
     37 H11        -5.0030    4.2527    8.7844 H         1 <0>         0.1458
     38 H12        -6.3897    6.1843   11.2024 H         1 <0>         0.1113
     39 H13        -4.9219    5.5433   10.4258 H         1 <0>         0.0608
     40 H14        -6.4717    5.5266    9.5504 H         1 <0>         0.0596
     41 H15        -8.5959    1.3262   12.9012 H         1 <0>         0.1019
     42 H16        -8.6053    2.3916   11.4753 H         1 <0>         0.0494
     43 H17        -8.4702    0.6288   11.2683 H         1 <0>         0.0492
     44 H18        -5.9243   -1.6211    8.7108 H         1 <0>         0.0587
     45 H19        -4.3747   -1.6062    9.5865 H         1 <0>         0.0600
     46 H20        -5.7159   -2.6218   10.1680 H         1 <0>         0.1115
     47 N4         -2.6273    2.6690    4.6090 N.pl3     1 <0>        -0.5059
     48 H21        -2.8675    3.5798    5.0177 H         1 <0>         0.4800
@<TRIPOS>BOND
     1    1    2 1
     2    1   28 1
     3    1   29 1
     4    1   30 1
     5    2    8 am
     6    2    3 1
     7    3    4 2
     8    3   47 1
     9    4    5 1
    10    4   11 1
    11    5    6 2
    12    5    7 am
    13    7    8 am
    14    7   10 1
    15    8    9 2
    16   10   31 1
    17   10   32 1
    18   10   33 1
    19   11   12 1
    20   11   13 1
    21   13   14 1
    22   13   47 2
    23   14   15 2
    24   14   34 1
    25   15   16 1
    26   15   35 1
    27   16   21 ar
    28   16   17 ar
    29   17   18 ar
    30   17   36 1
    31   18   19 ar
    32   18   26 1
    33   19   20 ar
    34   19   24 1
    35   20   21 ar
    36   20   22 1
    37   21   37 1
    38   22   23 1
    39   23   38 1
    40   23   39 1
    41   23   40 1
    42   24   25 1
    43   25   41 1
    44   25   42 1
    45   25   43 1
    46   26   27 1
    47   27   44 1
    48   27   45 1
    49   27   46 1
    50   47   48 1
