@<TRIPOS>MOLECULE
ZINC03812863
   60    61     0     0     0
SMALL
USER_CHARGES

@<TRIPOS>ATOM
      1 C1         -0.0167    1.3781    0.0096 C.ar      1 <0>        -0.1226
      2 C2          1.1709    2.0855    0.0021 C.ar      1 <0>        -0.1142
      3 C3          2.3773    1.4107   -0.0130 C.ar      1 <0>        -0.1110
      4 C4          2.3960    0.0285   -0.0201 C.ar      1 <0>        -0.0815
      5 C5          1.2084   -0.6789   -0.0117 C.ar      1 <0>        -0.1204
      6 C6          0.0021   -0.0041    0.0020 C.ar      1 <0>        -0.1197
      7 C7          3.7112   -0.7071   -0.0376 C.3       1 <0>        -0.0911
      8 C8          4.1714   -0.9633    1.3989 C.3       1 <0>        -0.1116
      9 C9          5.5066   -1.7102    1.3812 C.3       1 <0>        -0.0640
     10 H1          6.2284   -1.1499    0.7869 H         1 <0>         0.1541
     11 C10         6.0202   -1.8544    2.7906 C.2       1 <0>         0.4964
     12 O1          5.7155   -2.8312    3.4535 O.co2     1 <0>        -0.6834
     13 O2          6.7405   -0.9942    3.2679 O.co2     1 <0>        -0.6319
     14 N1          5.3150   -3.0418    0.7912 N.4       1 <0>        -0.4659
     15 C11         6.6156   -3.7127    0.6641 C.3       1 <0>         0.0163
     16 H2          7.1096   -3.7348    1.6355 H         1 <0>         0.1621
     17 C12         6.4045   -5.1442    0.1667 C.3       1 <0>        -0.1434
     18 C13         5.6383   -5.9433    1.2228 C.3       1 <0>        -0.1296
     19 C14         5.4273   -7.3747    0.7254 C.3       1 <0>        -0.1514
     20 C15         4.6611   -8.1738    1.7815 C.3       1 <0>        -0.0111
     21 N2          4.4584   -9.5481    1.3040 N.4       1 <0>        -0.6381
     22 C16         7.4748   -2.9608   -0.3195 C.2       1 <0>         0.5267
     23 O3          7.0459   -1.9640   -0.8612 O.2       1 <0>        -0.5136
     24 N3          8.7198   -3.3959   -0.5971 N.am      1 <0>        -0.5659
     25 C17         9.3614   -4.5905   -0.0185 C.3       1 <0>         0.0904
     26 C18        10.8822   -4.3203   -0.1369 C.3       1 <0>        -0.1346
     27 C19        10.9632   -3.5887   -1.5027 C.3       1 <0>        -0.1080
     28 C20         9.6606   -2.7615   -1.5319 C.3       1 <0>         0.0624
     29 H3          9.8658   -1.7391   -1.2145 H         1 <0>         0.0774
     30 C21         9.0805   -2.7628   -2.9228 C.2       1 <0>         0.5007
     31 O4          9.6205   -2.1230   -3.8091 O.co2     1 <0>        -0.6849
     32 O5          8.0713   -3.4037   -3.1617 O.co2     1 <0>        -0.6885
     33 H4         -0.9591    1.9053    0.0259 H         1 <0>         0.1218
     34 H5          1.1563    3.1654    0.0076 H         1 <0>         0.1242
     35 H6          3.3051    1.9634   -0.0196 H         1 <0>         0.1259
     36 H7          1.2231   -1.7588   -0.0176 H         1 <0>         0.1162
     37 H8         -0.9258   -0.5567    0.0082 H         1 <0>         0.1206
     38 H9          3.5884   -1.6586   -0.5549 H         1 <0>         0.0612
     39 H10         4.4573   -0.1052   -0.5563 H         1 <0>         0.0932
     40 H11         4.2941   -0.0118    1.9163 H         1 <0>         0.1068
     41 H12         3.4252   -1.5652    1.9176 H         1 <0>         0.0779
     42 H13         4.7108   -3.5892    1.3856 H         1 <0>         0.4180
     43 H14         5.8324   -5.1259   -0.7609 H         1 <0>         0.0971
     44 H15         7.3721   -5.6130   -0.0124 H         1 <0>         0.1187
     45 H16         6.2104   -5.9616    2.1504 H         1 <0>         0.0972
     46 H17         4.6707   -5.4745    1.4019 H         1 <0>         0.0731
     47 H18         4.8551   -7.3564   -0.2022 H         1 <0>         0.0925
     48 H19         6.3949   -7.8435    0.5463 H         1 <0>         0.0955
     49 H20         5.2332   -8.1921    2.7091 H         1 <0>         0.1379
     50 H21         3.6935   -7.7050    1.9606 H         1 <0>         0.1351
     51 H22         3.9288   -9.5312    0.4453 H         1 <0>         0.4352
     52 H23         5.3541   -9.9821    1.1382 H         1 <0>         0.4360
     53 H24         9.0767   -4.7050    1.0274 H         1 <0>         0.0721
     54 H25         9.0888   -5.4801   -0.5864 H         1 <0>         0.0717
     55 H26        11.2288   -3.6772    0.6720 H         1 <0>         0.0789
     56 H27        11.4442   -5.2540   -0.1598 H         1 <0>         0.0838
     57 H28        11.8369   -2.9380   -1.5404 H         1 <0>         0.0835
     58 H29        10.9791   -4.3054   -2.3238 H         1 <0>         0.0752
     59 H30         3.9531  -10.0751    2.0004 H         1 <0>         0.4381
     60 H31         4.8943   -2.9480   -0.1211 H         1 <0>         0.4129
@<TRIPOS>BOND
     1    1    6 ar
     2    1    2 ar
     3    1   33 1
     4    2    3 ar
     5    2   34 1
     6    3    4 ar
     7    3   35 1
     8    4    5 ar
     9    4    7 1
    10    5    6 ar
    11    5   36 1
    12    6   37 1
    13    7    8 1
    14    7   38 1
    15    7   39 1
    16    8    9 1
    17    8   40 1
    18    8   41 1
    19    9   10 1
    20    9   11 1
    21    9   14 1
    22   11   12 2
    23   11   13 1
    24   14   15 1
    25   14   42 1
    26   14   60 1
    27   15   16 1
    28   15   17 1
    29   15   22 1
    30   17   18 1
    31   17   43 1
    32   17   44 1
    33   18   19 1
    34   18   45 1
    35   18   46 1
    36   19   20 1
    37   19   47 1
    38   19   48 1
    39   20   21 1
    40   20   49 1
    41   20   50 1
    42   21   51 1
    43   21   52 1
    44   21   59 1
    45   22   23 2
    46   22   24 am
    47   24   28 1
    48   24   25 1
    49   25   26 1
    50   25   53 1
    51   25   54 1
    52   26   27 1
    53   26   55 1
    54   26   56 1
    55   27   28 1
    56   27   57 1
    57   27   58 1
    58   28   29 1
    59   28   30 1
    60   30   31 2
    61   30   32 1
@<TRIPOS>MOLECULE
ZINC12428433
   32    33     0     0     0
SMALL
USER_CHARGES

@<TRIPOS>ATOM
      1 C1         -0.0169    1.3954    0.0097 C.ar      1 <0>        -0.0904
      2 C2          1.1670    2.0999    0.0022 C.ar      1 <0>        -0.1322
      3 C3          2.3804    1.4253   -0.0135 C.ar      1 <0>         0.0958
      4 C4          2.4078    0.0306   -0.0212 C.ar      1 <0>         0.0793
      5 C5          1.2266   -0.6835   -0.0138 C.ar      1 <0>        -0.1038
      6 C6          0.0021   -0.0041    0.0020 C.ar      1 <0>        -0.0735
      7 C7         -1.2589   -0.7581    0.0105 C.2       1 <0>        -0.0126
      8 C8         -2.4394   -0.1004    0.0257 C.2       1 <0>        -0.2314
      9 C9         -3.6941   -0.8507    0.0342 C.2       1 <0>         0.4226
     10 O1         -3.6755   -2.0687    0.0275 O.2       1 <0>        -0.4421
     11 C10        -4.9819   -0.1332    0.0508 C.ar      1 <0>        -0.2013
     12 C11        -5.0066    1.2652    0.0527 C.ar      1 <0>        -0.0413
     13 C12        -6.2101    1.9309    0.0678 C.ar      1 <0>        -0.1682
     14 C13        -7.4056    1.2179    0.0812 C.ar      1 <0>         0.1575
     15 C14        -7.3926   -0.1691    0.0794 C.ar      1 <0>        -0.1902
     16 C15        -6.1880   -0.8506    0.0589 C.ar      1 <0>         0.1855
     17 O2         -6.1733   -2.2072    0.0519 O.3       1 <0>        -0.4786
     18 O3         -8.5888    1.8827    0.0964 O.3       1 <0>        -0.4961
     19 O4          3.5988   -0.6258   -0.0366 O.3       1 <0>        -0.4857
     20 O5          3.5442    2.1254   -0.0217 O.3       1 <0>        -0.4865
     21 H1         -0.9592    1.9228    0.0261 H         1 <0>         0.1364
     22 H2          1.1512    3.1797    0.0081 H         1 <0>         0.1394
     23 H3          1.2466   -1.7633   -0.0205 H         1 <0>         0.1407
     24 H4         -1.2424   -1.8380    0.0045 H         1 <0>         0.1381
     25 H5         -2.4560    0.9794    0.0317 H         1 <0>         0.1347
     26 H6         -4.0812    1.8220    0.0427 H         1 <0>         0.1409
     27 H7         -6.2276    3.0108    0.0696 H         1 <0>         0.1396
     28 H8         -8.3229   -0.7176    0.0899 H         1 <0>         0.1426
     29 H9         -6.1604   -2.6050    0.9333 H         1 <0>         0.3992
     30 H10        -8.9423    2.0766   -0.7825 H         1 <0>         0.4001
     31 H11         3.9520   -0.8204    0.8423 H         1 <0>         0.3901
     32 H12         3.8902    2.3237    0.8592 H         1 <0>         0.3914
@<TRIPOS>BOND
     1    1    6 ar
     2    1    2 ar
     3    1   21 1
     4    2    3 ar
     5    2   22 1
     6    3    4 ar
     7    3   20 1
     8    4    5 ar
     9    4   19 1
    10    5    6 ar
    11    5   23 1
    12    6    7 1
    13    7    8 2
    14    7   24 1
    15    8    9 1
    16    8   25 1
    17    9   10 2
    18    9   11 1
    19   11   16 ar
    20   11   12 ar
    21   12   13 ar
    22   12   26 1
    23   13   14 ar
    24   13   27 1
    25   14   15 ar
    26   14   18 1
    27   15   16 ar
    28   15   28 1
    29   16   17 1
    30   17   29 1
    31   18   30 1
    32   19   31 1
    33   20   32 1
@<TRIPOS>MOLECULE
ZINC00057001
   28    28     0     0     0
SMALL
USER_CHARGES

@<TRIPOS>ATOM
      1 C1         -0.0187    1.5258    0.0104 C.3       1 <0>        -0.1499
      2 C2          0.0021   -0.0041    0.0020 C.3       1 <0>        -0.0861
      3 H1         -1.0205   -0.3814    0.0098 H         1 <0>         0.0991
      4 C3          0.7421   -0.5109    1.2415 C.3       1 <0>        -0.0413
      5 S1         -0.1871   -0.0517    2.7303 S.3       1 <0>        -0.2560
      6 C4          0.7074   -0.4901   -1.2379 C.2       1 <0>         0.5406
      7 O1          1.7039   -1.1744   -1.1398 O.2       1 <0>        -0.5341
      8 N1          0.2309   -0.1642   -2.4557 N.am      1 <0>        -0.5870
      9 C5         -0.9612    0.6622   -2.7190 C.3       1 <0>         0.1001
     10 C6         -1.4323    0.2395   -4.1329 C.3       1 <0>        -0.1344
     11 C7         -0.0792    0.0101   -4.8565 C.3       1 <0>        -0.1069
     12 C8          0.8176   -0.5687   -3.7417 C.3       1 <0>         0.0652
     13 H2          0.8397   -1.6561   -3.8134 H         1 <0>         0.0661
     14 C9          2.2140   -0.0156   -3.8646 C.2       1 <0>         0.4962
     15 O2          2.9386   -0.3858   -4.7726 O.co2     1 <0>        -0.7023
     16 O3          2.6192    0.8020   -3.0561 O.co2     1 <0>        -0.6788
     17 H3          1.0039    1.9031    0.0027 H         1 <0>         0.0664
     18 H4         -0.5459    1.8868   -0.8726 H         1 <0>         0.0680
     19 H5         -0.5289    1.8773    0.9072 H         1 <0>         0.0715
     20 H6          0.8346   -1.5958    1.1912 H         1 <0>         0.0908
     21 H7          1.7350   -0.0630    1.2804 H         1 <0>         0.0927
     22 H8          0.5521   -0.5447    3.7401 H         1 <0>         0.0864
     23 H9         -1.7373    0.4540   -1.9825 H         1 <0>         0.0699
     24 H10        -0.6995    1.7202   -2.7069 H         1 <0>         0.0682
     25 H11        -2.0144   -0.6812   -4.0917 H         1 <0>         0.0709
     26 H12        -2.0003    1.0379   -4.6104 H         1 <0>         0.0779
     27 H13        -0.1941   -0.7041   -5.6719 H         1 <0>         0.0749
     28 H14         0.3271    0.9530   -5.2227 H         1 <0>         0.0719
@<TRIPOS>BOND
     1    1    2 1
     2    1   17 1
     3    1   18 1
     4    1   19 1
     5    2    3 1
     6    2    4 1
     7    2    6 1
     8    4    5 1
     9    4   20 1
    10    4   21 1
    11    5   22 1
    12    6    7 2
    13    6    8 am
    14    8   12 1
    15    8    9 1
    16    9   10 1
    17    9   23 1
    18    9   24 1
    19   10   11 1
    20   10   25 1
    21   10   26 1
    22   11   12 1
    23   11   27 1
    24   11   28 1
    25   12   13 1
    26   12   14 1
    27   14   15 2
    28   14   16 1
@<TRIPOS>MOLECULE
ZINC13646338
   47    48     0     0     0
SMALL
USER_CHARGES
(2S)-1-[(2S)-1-[(2S)-2-amino-3-methyl-butanoyl]pyrrolidine-2-carbonyl]pyrrolidine-2-carboxylic acid
@<TRIPOS>ATOM
      1 C1          7.5196    1.2939    5.5958 C.3       1 <0>        -0.1642
      2 C2          6.5414    1.5880    4.4567 C.3       1 <0>        -0.1074
      3 C3          5.2211    0.8602    4.7177 C.3       1 <0>        -0.1758
      4 C4          6.2866    3.0946    4.3795 C.3       1 <0>         0.0203
      5 H1          7.2272    3.6131    4.1936 H         1 <0>         0.1587
      6 C5          5.3230    3.3843    3.2575 C.2       1 <0>         0.5140
      7 O1          4.1507    3.5783    3.5000 O.2       1 <0>        -0.4948
      8 N1          5.7642    3.4277    1.9847 N.am      1 <0>        -0.5826
      9 C6          7.1322    3.1223    1.5411 C.3       1 <0>         0.0893
     10 C7          7.1620    3.2797    0.0062 C.3       1 <0>        -0.1300
     11 C8          5.6708    3.1141   -0.3891 C.3       1 <0>        -0.1207
     12 C9          4.9550    3.7900    0.8069 C.3       1 <0>         0.1202
     13 H2          4.9365    4.8720    0.6756 H         1 <0>         0.0997
     14 C10         3.5531    3.2558    0.9491 C.2       1 <0>         0.5363
     15 O2          3.3501    2.2500    1.5957 O.2       1 <0>        -0.5093
     16 N2          2.5249    3.8958    0.3578 N.am      1 <0>        -0.5898
     17 C11         2.6287    5.1221   -0.4539 C.3       1 <0>         0.0971
     18 C12         1.2263    5.7745   -0.3679 C.3       1 <0>        -0.1336
     19 C13         0.3017    4.5285   -0.3823 C.3       1 <0>        -0.1064
     20 C14         1.1140    3.4861    0.4147 C.3       1 <0>         0.0957
     21 H3          0.7763    3.4629    1.4508 H         1 <0>         0.0724
     22 C15         0.9505    2.1237   -0.2081 C.2       1 <0>         0.4625
     23 O3          1.9116    1.5454   -0.6573 O.co2     1 <0>        -0.6227
     24 H4          7.0944    1.6393    6.5382 H         1 <0>         0.0537
     25 H5          7.7011    0.2205    5.6509 H         1 <0>         0.0883
     26 H6          8.4602    1.8124    5.4099 H         1 <0>         0.0733
     27 H7          6.9666    1.2426    3.5144 H         1 <0>         0.1215
     28 H8          5.4026   -0.2132    4.7727 H         1 <0>         0.0857
     29 H9          4.7959    1.2056    5.6600 H         1 <0>         0.0518
     30 H10         4.5242    1.0697    3.9062 H         1 <0>         0.0909
     31 H11         7.3906    2.0991    1.8139 H         1 <0>         0.0787
     32 H12         7.8345    3.8188    1.9989 H         1 <0>         0.0783
     33 H13         7.7709    2.4990   -0.4498 H         1 <0>         0.0947
     34 H14         7.5276    4.2679   -0.2731 H         1 <0>         0.0850
     35 H15         5.4005    2.0606   -0.4615 H         1 <0>         0.0949
     36 H16         5.4533    3.6365   -1.3207 H         1 <0>         0.0990
     37 H17         3.3836    5.7894   -0.0381 H         1 <0>         0.0653
     38 H18         2.8688    4.8736   -1.4877 H         1 <0>         0.0684
     39 H19         1.1123    6.3349    0.5600 H         1 <0>         0.0714
     40 H20         1.0380    6.4114   -1.2322 H         1 <0>         0.0823
     41 H21         0.1316    4.1863   -1.4031 H         1 <0>         0.0771
     42 H22        -0.6435    4.7439    0.1160 H         1 <0>         0.0807
     43 H23         4.8402    3.0939    5.8446 H         1 <0>         0.4438
     44 H24         6.3671    3.4359    6.4081 H         1 <0>         0.4388
     45 O4         -0.2630    1.5525   -0.2639 O.co2     1 <0>        -0.7647
     46 N3          5.7101    3.5846    5.6440 N.4       1 <0>        -0.6301
     47 H25         5.5162    4.5893    5.5596 H         1 <0>         0.4425
@<TRIPOS>BOND
     1    1    2 1
     2    1   24 1
     3    1   25 1
     4    1   26 1
     5    2    3 1
     6    2    4 1
     7    2   27 1
     8    3   28 1
     9    3   29 1
    10    3   30 1
    11    4    5 1
    12    4    6 1
    13    4   46 1
    14    6    7 2
    15    6    8 am
    16    8   12 1
    17    8    9 1
    18    9   10 1
    19    9   31 1
    20    9   32 1
    21   10   11 1
    22   10   33 1
    23   10   34 1
    24   11   12 1
    25   11   35 1
    26   11   36 1
    27   12   13 1
    28   12   14 1
    29   14   15 2
    30   14   16 am
    31   16   20 1
    32   16   17 1
    33   17   18 1
    34   17   37 1
    35   17   38 1
    36   18   19 1
    37   18   39 1
    38   18   40 1
    39   19   20 1
    40   19   41 1
    41   19   42 1
    42   20   21 1
    43   20   22 1
    44   22   23 2
    45   22   45 1
    46   43   46 1
    47   44   46 1
    48   46   47 1
@<TRIPOS>MOLECULE
ZINC26990904
   36    37     0     0     0
SMALL
USER_CHARGES
2-[cyclopentyl-(2-nitrobenzoyl)amino]acetic acid
@<TRIPOS>ATOM
      1 C1         -1.9972    2.6793    4.0728 C.ar      1 <0>        -0.0755
      2 C2         -1.2567    1.8194    4.8649 C.ar      1 <0>        -0.1100
      3 C3         -1.0397    0.5135    4.4634 C.ar      1 <0>        -0.0613
      4 C4         -1.5650    0.0587    3.2713 C.ar      1 <0>        -0.0003
      5 C5         -2.3081    0.9222    2.4653 C.ar      1 <0>        -0.0456
      6 C6         -2.5238    2.2387    2.8766 C.ar      1 <0>        -0.0980
      7 C7         -2.8696    0.4431    1.1842 C.2       1 <0>         0.5640
      8 O1         -3.7099   -0.4352    1.1796 O.2       1 <0>        -0.5073
      9 N1         -2.4497    0.9802    0.0216 N.am      1 <0>        -0.5735
     10 C8         -1.3518    1.9501    0.0170 C.3       1 <0>         0.0519
     11 C9         -0.0349    1.2180   -0.0133 C.2       1 <0>         0.4414
     12 O2         -0.0155    0.0100   -0.0294 O.co2     1 <0>        -0.6101
     13 O3          1.1164    1.9080   -0.0280 O.co2     1 <0>        -0.7689
     14 C10        -3.0913    0.5941   -1.2376 C.3       1 <0>         0.1513
     15 C11        -4.6054    0.8815   -1.1690 C.3       1 <0>        -0.1333
     16 C12        -5.2509   -0.2972   -1.9391 C.3       1 <0>        -0.1156
     17 C13        -4.3691   -1.5009   -1.5235 C.3       1 <0>        -0.1071
     18 C14        -2.9411   -0.9206   -1.4629 C.3       1 <0>        -0.1237
     19 N2         -1.3365   -1.3405    2.8459 N.pl3     1 <0>         0.0262
     20 O4         -0.6154   -2.0675    3.5054 O.2       1 <0>        -0.1924
     21 O5         -1.8696   -1.7648    1.8364 O.3       1 <0>        -0.0917
     22 H1         -2.1633    3.6975    4.3922 H         1 <0>         0.1452
     23 H2         -0.8469    2.1693    5.8008 H         1 <0>         0.1472
     24 H3         -0.4612   -0.1526    5.0863 H         1 <0>         0.1545
     25 H4         -3.1015    2.9107    2.2593 H         1 <0>         0.1471
     26 H5         -1.4344    2.5931   -0.8716 H         1 <0>         0.0868
     27 H6         -1.4061    2.5697    0.9243 H         1 <0>         0.0788
     28 H7         -2.5832    1.1859   -2.0132 H         1 <0>         0.0832
     29 H8         -4.9255    0.9120   -0.1170 H         1 <0>         0.0762
     30 H9         -4.8166    1.8505   -1.6448 H         1 <0>         0.0579
     31 H10        -6.2991   -0.4100   -1.6252 H         1 <0>         0.0593
     32 H11        -5.2115   -0.0947   -3.0196 H         1 <0>         0.0596
     33 H12        -4.7026   -1.8796   -0.5461 H         1 <0>         0.0760
     34 H13        -4.4590   -2.2984   -2.2758 H         1 <0>         0.0533
     35 H14        -2.4047   -1.0995   -2.4064 H         1 <0>         0.0572
     36 H15        -2.3739   -1.3608   -0.6295 H         1 <0>         0.0970
@<TRIPOS>BOND
     1    1    6 ar
     2    1    2 ar
     3    1   22 1
     4    2    3 ar
     5    2   23 1
     6    3    4 ar
     7    3   24 1
     8    4    5 ar
     9    4   19 1
    10    5    6 ar
    11    5    7 1
    12    6   25 1
    13    7    8 2
    14    7    9 am
    15    9   10 1
    16    9   14 1
    17   10   11 1
    18   10   26 1
    19   10   27 1
    20   11   12 2
    21   11   13 1
    22   14   18 1
    23   14   15 1
    24   14   28 1
    25   15   16 1
    26   15   29 1
    27   15   30 1
    28   16   17 1
    29   16   31 1
    30   16   32 1
    31   17   18 1
    32   17   33 1
    33   17   34 1
    34   18   35 1
    35   18   36 1
    36   19   20 2
    37   19   21 1
@<TRIPOS>MOLECULE
ZINC03812851
   48    49     0     0     0
SMALL
USER_CHARGES

@<TRIPOS>ATOM
      1 C1         -1.4456   -0.3077    0.0442 C.3       1 <0>        -0.1742
      2 C2          0.0722   -0.1534    0.1596 C.3       1 <0>         0.0100
      3 H1          0.3177    0.8911    0.3515 H         1 <0>         0.1708
      4 C3          0.5789   -1.0052    1.2949 C.2       1 <0>         0.5276
      5 O1          1.3873   -1.8834    1.0802 O.2       1 <0>        -0.5254
      6 N1          0.1335   -0.7910    2.5488 N.am      1 <0>        -0.5683
      7 C4         -0.8487    0.2330    2.9486 C.3       1 <0>         0.0882
      8 C5         -0.5618    0.4936    4.4484 C.3       1 <0>        -0.1335
      9 C6         -0.2014   -0.9302    4.9486 C.3       1 <0>        -0.1074
     10 C7          0.5421   -1.5442    3.7435 C.3       1 <0>         0.0637
     11 H2          1.6185   -1.4533    3.8889 H         1 <0>         0.0738
     12 C8          0.1636   -2.9947    3.5892 C.2       1 <0>         0.4996
     13 O2          0.5749   -3.8203    4.3866 O.co2     1 <0>        -0.6928
     14 O3         -0.5540   -3.3427    2.6670 O.co2     1 <0>        -0.6829
     15 N2          0.7048   -0.5827   -1.0948 N.4       1 <0>        -0.4643
     16 C9          2.1416   -0.2803   -1.0471 C.3       1 <0>        -0.0600
     17 H3          2.5739   -0.7118   -0.1443 H         1 <0>         0.1486
     18 C10         2.8293   -0.8764   -2.2771 C.3       1 <0>        -0.1097
     19 C11         2.7349   -2.4025   -2.2247 C.3       1 <0>        -0.0932
     20 C12         3.4122   -2.9896   -3.4361 C.ar      1 <0>        -0.0771
     21 C13         2.6890   -3.2102   -4.5934 C.ar      1 <0>        -0.1190
     22 C14         3.3103   -3.7487   -5.7046 C.ar      1 <0>        -0.1195
     23 C15         4.6549   -4.0662   -5.6587 C.ar      1 <0>        -0.1259
     24 C16         5.3783   -3.8448   -4.5018 C.ar      1 <0>        -0.1170
     25 C17         4.7580   -3.3023   -3.3919 C.ar      1 <0>        -0.1119
     26 C18         2.3404    1.2135   -1.0350 C.2       1 <0>         0.4980
     27 O4          1.3875    1.9566   -1.1964 O.co2     1 <0>        -0.6788
     28 O5          3.4543    1.6788   -0.8637 O.co2     1 <0>        -0.6404
     29 H4         -1.8224    0.3699   -0.7219 H         1 <0>         0.0871
     30 H5         -1.6867   -1.3350   -0.2289 H         1 <0>         0.0811
     31 H6         -1.9090   -0.0678    1.0012 H         1 <0>         0.1053
     32 H7         -0.7023    1.1453    2.3703 H         1 <0>         0.0765
     33 H8         -1.8634   -0.1424    2.8161 H         1 <0>         0.0757
     34 H9          0.2792    1.1758    4.5725 H         1 <0>         0.0762
     35 H10        -1.4488    0.8730    4.9557 H         1 <0>         0.0832
     36 H11         0.4498   -0.8791    5.8212 H         1 <0>         0.0800
     37 H12        -1.1032   -1.5003    5.1719 H         1 <0>         0.0746
     38 H13         0.5740   -1.5759   -1.2147 H         1 <0>         0.4113
     39 H14         2.3383   -0.5127   -3.1797 H         1 <0>         0.0758
     40 H15         3.8774   -0.5773   -2.2879 H         1 <0>         0.1081
     41 H16         3.2258   -2.7662   -1.3220 H         1 <0>         0.0921
     42 H17         1.6868   -2.7016   -2.2138 H         1 <0>         0.0645
     43 H18         1.6385   -2.9621   -4.6292 H         1 <0>         0.1194
     44 H19         2.7452   -3.9217   -6.6085 H         1 <0>         0.1204
     45 H20         5.1402   -4.4876   -6.5267 H         1 <0>         0.1196
     46 H21         6.4288   -4.0932   -4.4658 H         1 <0>         0.1219
     47 H22         5.3240   -3.1259   -2.4892 H         1 <0>         0.1250
     48 H23         0.2834   -0.0920   -1.8691 H         1 <0>         0.4233
@<TRIPOS>BOND
     1    1    2 1
     2    1   29 1
     3    1   30 1
     4    1   31 1
     5    2    3 1
     6    2    4 1
     7    2   15 1
     8    4    5 2
     9    4    6 am
    10    6   10 1
    11    6    7 1
    12    7    8 1
    13    7   32 1
    14    7   33 1
    15    8    9 1
    16    8   34 1
    17    8   35 1
    18    9   10 1
    19    9   36 1
    20    9   37 1
    21   10   11 1
    22   10   12 1
    23   12   13 2
    24   12   14 1
    25   15   16 1
    26   15   38 1
    27   15   48 1
    28   16   17 1
    29   16   18 1
    30   16   26 1
    31   18   19 1
    32   18   39 1
    33   18   40 1
    34   19   20 1
    35   19   41 1
    36   19   42 1
    37   20   25 ar
    38   20   21 ar
    39   21   22 ar
    40   21   43 1
    41   22   23 ar
    42   22   44 1
    43   23   24 ar
    44   23   45 1
    45   24   25 ar
    46   24   46 1
    47   25   47 1
    48   26   27 2
    49   26   28 1
@<TRIPOS>MOLECULE
ZINC02384776
   40    40     0     0     0
SMALL
USER_CHARGES
2-(2-amino-3-methyl-butanoyl)amino-3-(4-hydroxyphenyl)-propanoic acid
@<TRIPOS>ATOM
      1 C1          2.1627    1.1086    1.2367 C.3       1 <0>        -0.1753
      2 C2          1.4227    1.6154   -0.0028 C.3       1 <0>        -0.1053
      3 C3          2.1388    1.1220   -1.2617 C.3       1 <0>        -0.1654
      4 C4         -0.0127    1.0858    0.0080 C.3       1 <0>         0.0137
      5 H1          0.0021   -0.0041    0.0020 H         1 <0>         0.1556
      6 C5         -0.7181    1.5718    1.2479 C.2       1 <0>         0.5045
      7 O1         -1.4682    2.5228    1.1854 O.2       1 <0>        -0.5308
      8 N1         -0.5154    0.9497    2.4261 N.am      1 <0>        -0.6654
      9 C6         -1.2011    1.4221    3.6315 C.3       1 <0>         0.1052
     10 H2         -2.1952    1.7820    3.3664 H         1 <0>         0.0985
     11 C7         -1.3253    0.2711    4.6318 C.3       1 <0>        -0.0784
     12 C8         -2.2185   -0.7986    4.0584 C.ar      1 <0>        -0.0808
     13 C9         -3.5804   -0.7599    4.2940 C.ar      1 <0>        -0.0955
     14 C10        -4.4021   -1.7363    3.7647 C.ar      1 <0>        -0.1388
     15 C11        -3.8583   -2.7622    3.0055 C.ar      1 <0>         0.0939
     16 C12        -2.4907   -2.8018    2.7753 C.ar      1 <0>        -0.1459
     17 C13        -1.6740   -1.8203    3.3024 C.ar      1 <0>        -0.1087
     18 O2         -4.6638   -3.7269    2.4884 O.3       1 <0>        -0.5027
     19 C14        -0.4097    2.5442    4.2524 C.2       1 <0>         0.4586
     20 O3          0.6214    2.9116    3.7407 O.co2     1 <0>        -0.6265
     21 H3          2.1775    0.0187    1.2307 H         1 <0>         0.0616
     22 H4          3.1853    1.4858    1.2289 H         1 <0>         0.0800
     23 H5          1.6525    1.4601    2.1335 H         1 <0>         0.1034
     24 H6          1.4079    2.7053    0.0031 H         1 <0>         0.1037
     25 H7          1.6116    1.4831   -2.1447 H         1 <0>         0.0505
     26 H8          3.1614    1.4993   -1.2694 H         1 <0>         0.0875
     27 H9          2.1536    0.0321   -1.2676 H         1 <0>         0.0730
     28 H10         0.0845    0.1891    2.4761 H         1 <0>         0.3992
     29 H11        -0.3381   -0.1469    4.8291 H         1 <0>         0.0776
     30 H12        -1.7548    0.6430    5.5621 H         1 <0>         0.1073
     31 H13        -4.0027    0.0365    4.8888 H         1 <0>         0.1322
     32 H14        -5.4664   -1.7030    3.9450 H         1 <0>         0.1288
     33 H15        -2.0651   -3.5993    2.1843 H         1 <0>         0.1253
     34 H16        -0.6094   -1.8507    3.1236 H         1 <0>         0.1207
     35 H17        -4.7878   -4.4892    3.0702 H         1 <0>         0.3911
     36 H18        -1.6533    1.1846   -1.2317 H         1 <0>         0.4392
     37 H19        -0.7506    2.5809   -1.1997 H         1 <0>         0.4435
     38 O4         -0.8501    3.1355    5.3741 O.co2     1 <0>        -0.7440
     39 N2         -0.7082    1.5631   -1.2002 N.4       1 <0>        -0.6286
     40 H20        -0.1938    1.2497   -2.0317 H         1 <0>         0.4377
@<TRIPOS>BOND
     1    1    2 1
     2    1   21 1
     3    1   22 1
     4    1   23 1
     5    2    3 1
     6    2    4 1
     7    2   24 1
     8    3   25 1
     9    3   26 1
    10    3   27 1
    11    4    5 1
    12    4    6 1
    13    4   39 1
    14    6    7 2
    15    6    8 am
    16    8    9 1
    17    8   28 1
    18    9   10 1
    19    9   11 1
    20    9   19 1
    21   11   12 1
    22   11   29 1
    23   11   30 1
    24   12   17 ar
    25   12   13 ar
    26   13   14 ar
    27   13   31 1
    28   14   15 ar
    29   14   32 1
    30   15   16 ar
    31   15   18 1
    32   16   17 ar
    33   16   33 1
    34   17   34 1
    35   18   35 1
    36   19   20 2
    37   19   38 1
    38   36   39 1
    39   37   39 1
    40   39   40 1
@<TRIPOS>MOLECULE
ZINC04899517
   43    43     0     0     0
SMALL
USER_CHARGES
2-(2-amino-3-methyl-pentanoyl)amino-3-(4-hydroxyphenyl)-propanoic acid
@<TRIPOS>ATOM
      1 C1         -0.7527    1.5927   -1.2315 C.3       1 <0>        -0.1587
      2 C2         -0.0127    1.0858    0.0080 C.3       1 <0>        -0.1278
      3 C3         -0.7288    1.5792    1.2668 C.3       1 <0>        -0.1006
      4 H1         -1.7755    1.2768    1.2315 H         1 <0>         0.1038
      5 C4         -0.6410    3.1050    1.3386 C.3       1 <0>        -0.1757
      6 C5         -0.0638    0.9713    2.5033 C.3       1 <0>         0.0142
      7 H2          0.9829    1.2737    2.5386 H         1 <0>         0.1557
      8 C6         -0.7691    1.4573    3.7432 C.2       1 <0>         0.5021
      9 O1         -1.5833    0.7478    4.2952 O.2       1 <0>        -0.5314
     10 N1         -0.4952    2.6804    4.2387 N.am      1 <0>        -0.6650
     11 C7         -1.1809    3.1529    5.4440 C.3       1 <0>         0.1050
     12 H3         -1.3485    2.3137    6.1192 H         1 <0>         0.0984
     13 C8         -0.3174    4.2050    6.1427 C.3       1 <0>        -0.0785
     14 C9          0.9556    3.5649    6.6333 C.ar      1 <0>        -0.0808
     15 C10         1.0094    3.0201    7.9029 C.ar      1 <0>        -0.0956
     16 C11         2.1735    2.4277    8.3529 C.ar      1 <0>        -0.1388
     17 C12         3.2924    2.3895    7.5337 C.ar      1 <0>         0.0940
     18 C13         3.2377    2.9420    6.2623 C.ar      1 <0>        -0.1459
     19 C14         2.0696    3.5286    5.8151 C.ar      1 <0>        -0.1088
     20 O2          4.4405    1.8123    7.9761 O.3       1 <0>        -0.5027
     21 C15        -2.5051    3.7627    5.0622 C.2       1 <0>         0.4586
     22 O3         -2.8415    3.7989    3.9023 O.co2     1 <0>        -0.6261
     23 H4         -0.7675    2.6825   -1.2255 H         1 <0>         0.0690
     24 H5         -0.2425    1.2411   -2.1283 H         1 <0>         0.0633
     25 H6         -1.7753    1.2154   -1.2238 H         1 <0>         0.0612
     26 H7          0.0021   -0.0041    0.0020 H         1 <0>         0.0539
     27 H8          1.0099    1.4631    0.0003 H         1 <0>         0.0792
     28 H9         -1.1148    3.5381    0.4577 H         1 <0>         0.0823
     29 H10        -1.1511    3.4565    2.2354 H         1 <0>         0.1032
     30 H11         0.4057    3.4074    1.3739 H         1 <0>         0.0613
     31 H12         0.1559    3.2479    3.7972 H         1 <0>         0.3993
     32 H13        -0.0758    5.0021    5.4395 H         1 <0>         0.0775
     33 H14        -0.8647    4.6206    6.9889 H         1 <0>         0.1072
     34 H15         0.1393    3.0540    8.5419 H         1 <0>         0.1321
     35 H16         2.2135    1.9980    9.3429 H         1 <0>         0.1288
     36 H17         4.1073    2.9132    5.6226 H         1 <0>         0.1253
     37 H18         2.0265    3.9588    4.8254 H         1 <0>         0.1207
     38 H19         5.0377    2.4222    8.4304 H         1 <0>         0.3911
     39 H20        -1.1091   -0.7993    2.4007 H         1 <0>         0.4435
     40 H21         0.3722   -0.8491    1.6464 H         1 <0>         0.4361
     41 O4         -3.3108    4.2656    6.0107 O.co2     1 <0>        -0.7441
     42 N2         -0.1371   -0.4996    2.4564 N.4       1 <0>        -0.6285
     43 H22         0.2842   -0.8859    3.3093 H         1 <0>         0.4419
@<TRIPOS>BOND
     1    1    2 1
     2    1   23 1
     3    1   24 1
     4    1   25 1
     5    2    3 1
     6    2   26 1
     7    2   27 1
     8    3    4 1
     9    3    5 1
    10    3    6 1
    11    5   28 1
    12    5   29 1
    13    5   30 1
    14    6    7 1
    15    6    8 1
    16    6   42 1
    17    8    9 2
    18    8   10 am
    19   10   11 1
    20   10   31 1
    21   11   12 1
    22   11   13 1
    23   11   21 1
    24   13   14 1
    25   13   32 1
    26   13   33 1
    27   14   19 ar
    28   14   15 ar
    29   15   16 ar
    30   15   34 1
    31   16   17 ar
    32   16   35 1
    33   17   18 ar
    34   17   20 1
    35   18   19 ar
    36   18   36 1
    37   19   37 1
    38   20   38 1
    39   21   22 2
    40   21   41 1
    41   39   42 1
    42   40   42 1
    43   42   43 1
