@<TRIPOS>MOLECULE
ZINC01473469
   20    19     0     0     0
SMALL
USER_CHARGES

@<TRIPOS>ATOM
      1 C1         -0.0178    1.4648    0.0101 C.3       1 <0>        -0.0547
      2 N1          0.0021   -0.0041    0.0020 N.4       1 <0>        -0.2708
      3 C2          0.7126   -0.4907    1.1921 C.3       1 <0>        -0.0547
      4 C3         -1.3761   -0.5125    0.0124 C.3       1 <0>        -0.0448
      5 C4          0.6897   -0.4778   -1.2066 C.3       1 <0>        -0.0181
      6 C5          2.1250    0.0518   -1.2175 C.3       1 <0>        -0.0858
      7 Cl1         2.9690   -0.5297   -2.7009 Cl        1 <0>        -0.1083
      8 H1          1.0047    1.8421    0.0024 H         1 <0>         0.1220
      9 H2         -0.5450    1.8259   -0.8730 H         1 <0>         0.1257
     10 H3         -0.5280    1.8163    0.9069 H         1 <0>         0.1275
     11 H4          0.2024   -0.1392    2.0889 H         1 <0>         0.1275
     12 H5          0.7273   -1.5806    1.1861 H         1 <0>         0.1257
     13 H6          1.7352   -0.1134    1.1844 H         1 <0>         0.1220
     14 H7         -1.9033   -0.1515   -0.8706 H         1 <0>         0.1238
     15 H8         -1.3613   -1.6024    0.0065 H         1 <0>         0.1238
     16 H9         -1.8863   -0.1610    0.9092 H         1 <0>         0.1262
     17 H10         0.7044   -1.5677   -1.2126 H         1 <0>         0.1405
     18 H11         0.1625   -0.1167   -2.0897 H         1 <0>         0.1405
     19 H12         2.1103    1.1417   -1.2115 H         1 <0>         0.1160
     20 H13         2.6522   -0.3093   -0.3344 H         1 <0>         0.1160
@<TRIPOS>BOND
     1    1    2 1
     2    1    8 1
     3    1    9 1
     4    1   10 1
     5    2    3 1
     6    2    4 1
     7    2    5 1
     8    3   11 1
     9    3   12 1
    10    3   13 1
    11    4   14 1
    12    4   15 1
    13    4   16 1
    14    5    6 1
    15    5   17 1
    16    5   18 1
    17    6    7 1
    18    6   19 1
    19    6   20 1
@<TRIPOS>MOLECULE
ZINC01704463
   23    22     0     0     0
SMALL
USER_CHARGES
3-bromopropyl-trimethyl-ammonium
@<TRIPOS>ATOM
      1 C1          0.0021   -0.0041    0.0020 C.3       1 <0>        -0.0527
      2 N1         -0.0178    1.4648    0.0101 N.4       1 <0>        -0.2702
      3 C2          1.3603    1.9732   -0.0003 C.3       1 <0>        -0.0527
      4 C3         -0.7283    1.9514   -1.1800 C.3       1 <0>        -0.0452
      5 C4         -0.7054    1.9385    1.2187 C.3       1 <0>        -0.0080
      6 C5          0.0346    1.4317    2.4582 C.3       1 <0>        -0.1529
      7 C6         -0.6816    1.9251    3.7170 C.3       1 <0>        -0.0935
      8 Br1         0.2693    1.2738    5.3098 Br        1 <0>        -0.1200
      9 H1          0.5293   -0.3651    0.8851 H         1 <0>         0.1236
     10 H2         -1.0205   -0.3814    0.0098 H         1 <0>         0.1231
     11 H3          0.5123   -0.3556   -0.8948 H         1 <0>         0.1244
     12 H4          1.8705    1.6217   -0.8971 H         1 <0>         0.1244
     13 H5          1.3455    3.0631    0.0057 H         1 <0>         0.1231
     14 H6          1.8875    1.6122    0.8827 H         1 <0>         0.1236
     15 H7         -1.7509    1.5741   -1.1723 H         1 <0>         0.1222
     16 H8         -0.7431    3.0413   -1.1740 H         1 <0>         0.1222
     17 H9         -0.2181    1.5999   -2.0768 H         1 <0>         0.1240
     18 H10        -0.7202    3.0284    1.2247 H         1 <0>         0.1321
     19 H11        -1.7280    1.5612    1.2264 H         1 <0>         0.1321
     20 H12         0.0493    0.3418    2.4522 H         1 <0>         0.0998
     21 H13         1.0572    1.8090    2.4505 H         1 <0>         0.0998
     22 H14        -0.6964    3.0150    3.7230 H         1 <0>         0.1103
     23 H15        -1.7042    1.5478    3.7248 H         1 <0>         0.1103
@<TRIPOS>BOND
     1    1    2 1
     2    1    9 1
     3    1   10 1
     4    1   11 1
     5    2    3 1
     6    2    4 1
     7    2    5 1
     8    3   12 1
     9    3   13 1
    10    3   14 1
    11    4   15 1
    12    4   16 1
    13    4   17 1
    14    5    6 1
    15    5   18 1
    16    5   19 1
    17    6    7 1
    18    6   20 1
    19    6   21 1
    20    7    8 1
    21    7   22 1
    22    7   23 1
@<TRIPOS>MOLECULE
ZINC01696214
   32    31     0     0     0
SMALL
USER_CHARGES

@<TRIPOS>ATOM
      1 C1          0.7481    0.8791    0.2701 C.3       1 <0>        -0.1562
      2 C2          0.5402   -0.6361    0.2263 C.3       1 <0>        -0.1177
      3 C3         -0.9582   -0.9449    0.2092 C.3       1 <0>        -0.1130
      4 C4         -1.1630   -2.4373    0.1660 C.2       1 <0>         0.4616
      5 O1         -0.2085   -3.1779    0.1506 O.2       1 <0>        -0.4836
      6 O2         -2.4059   -2.9438    0.1448 O.3       1 <0>        -0.3666
      7 C5         -2.5258   -4.3672    0.1041 C.3       1 <0>         0.0295
      8 C6         -4.0059   -4.7540    0.0849 C.3       1 <0>        -0.0007
      9 N1         -4.6123   -4.3079   -1.1765 N.4       1 <0>        -0.2718
     10 C7         -3.8413   -4.8428   -2.3067 C.3       1 <0>        -0.0543
     11 C8         -5.9961   -4.7947   -1.2538 C.3       1 <0>        -0.0454
     12 C9         -4.6059   -2.8399   -1.2306 C.3       1 <0>        -0.0473
     13 H1          1.8156    1.0991    0.2823 H         1 <0>         0.0669
     14 H2          0.2935    1.3338   -0.6101 H         1 <0>         0.0587
     15 H3          0.2835    1.2838    1.1692 H         1 <0>         0.0597
     16 H4          1.0049   -1.0407   -0.6728 H         1 <0>         0.0735
     17 H5          0.9949   -1.0908    1.1064 H         1 <0>         0.0747
     18 H6         -1.4229   -0.5402    1.1083 H         1 <0>         0.1128
     19 H7         -1.4129   -0.4902   -0.6710 H         1 <0>         0.1093
     20 H8         -2.0392   -4.7473   -0.7942 H         1 <0>         0.0946
     21 H9         -2.0492   -4.7973    0.9850 H         1 <0>         0.1141
     22 H10        -4.0997   -5.8367    0.1701 H         1 <0>         0.1488
     23 H11        -4.5167   -4.2781    0.9219 H         1 <0>         0.1413
     24 H12        -3.8460   -5.9321   -2.2666 H         1 <0>         0.1244
     25 H13        -4.2912   -4.5118   -3.2427 H         1 <0>         0.1264
     26 H14        -2.8144   -4.4816   -2.2494 H         1 <0>         0.1197
     27 H15        -6.5683   -4.3977   -0.4152 H         1 <0>         0.1231
     28 H16        -6.4461   -4.4636   -2.1897 H         1 <0>         0.1241
     29 H17        -6.0009   -5.8839   -1.2136 H         1 <0>         0.1220
     30 H18        -3.5846   -2.4859   -1.3715 H         1 <0>         0.1297
     31 H19        -5.2248   -2.5042   -2.0627 H         1 <0>         0.1185
     32 H20        -5.0035   -2.4402   -0.2977 H         1 <0>         0.1230
@<TRIPOS>BOND
     1    1    2 1
     2    1   13 1
     3    1   14 1
     4    1   15 1
     5    2    3 1
     6    2   16 1
     7    2   17 1
     8    3    4 1
     9    3   18 1
    10    3   19 1
    11    4    5 2
    12    4    6 1
    13    6    7 1
    14    7    8 1
    15    7   20 1
    16    7   21 1
    17    8    9 1
    18    8   22 1
    19    8   23 1
    20    9   10 1
    21    9   11 1
    22    9   12 1
    23   10   24 1
    24   10   25 1
    25   10   26 1
    26   11   27 1
    27   11   28 1
    28   11   29 1
    29   12   30 1
    30   12   31 1
    31   12   32 1
@<TRIPOS>MOLECULE
ZINC05299036
   21    20     0     0     0
SMALL
USER_CHARGES
trimethyl-(2-sulfanylethyl)ammonium
@<TRIPOS>ATOM
      1 C1          1.3603    1.9732   -0.0003 C.3       1 <0>        -0.0528
      2 N1         -0.0178    1.4648    0.0101 N.4       1 <0>        -0.2693
      3 C2         -0.7283    1.9514   -1.1800 C.3       1 <0>        -0.0444
      4 C3         -0.7054    1.9385    1.2187 C.3       1 <0>        -0.0528
      5 C4          0.0021   -0.0041    0.0020 C.3       1 <0>         0.0103
      6 C5          0.7421   -0.5109    1.2415 C.3       1 <0>        -0.1239
      7 S1          0.7667   -2.3247    1.2316 S.3       1 <0>        -0.1927
      8 H1          1.8705    1.6217   -0.8971 H         1 <0>         0.1254
      9 H2          1.3455    3.0631    0.0057 H         1 <0>         0.1255
     10 H3          1.8875    1.6122    0.8827 H         1 <0>         0.1203
     11 H4         -1.7509    1.5741   -1.1723 H         1 <0>         0.1240
     12 H5         -0.7431    3.0413   -1.1740 H         1 <0>         0.1250
     13 H6         -0.2181    1.5999   -2.0768 H         1 <0>         0.1240
     14 H7         -0.1782    1.5774    2.1018 H         1 <0>         0.1203
     15 H8         -0.7202    3.0284    1.2247 H         1 <0>         0.1255
     16 H9         -1.7280    1.5612    1.2264 H         1 <0>         0.1254
     17 H10        -1.0205   -0.3814    0.0098 H         1 <0>         0.1414
     18 H11         0.5123   -0.3556   -0.8948 H         1 <0>         0.1413
     19 H12         1.7647   -0.1336    1.2338 H         1 <0>         0.1067
     20 H13         0.2319   -0.1594    2.1383 H         1 <0>         0.1067
     21 H14         1.4343   -2.6472    2.3537 H         1 <0>         0.1141
@<TRIPOS>BOND
     1    1    2 1
     2    1    8 1
     3    1    9 1
     4    1   10 1
     5    2    3 1
     6    2    4 1
     7    2    5 1
     8    3   11 1
     9    3   12 1
    10    3   13 1
    11    4   14 1
    12    4   15 1
    13    4   16 1
    14    5    6 1
    15    5   17 1
    16    5   18 1
    17    6    7 1
    18    6   19 1
    19    6   20 1
    20    7   21 1
@<TRIPOS>MOLECULE
ZINC01681602
   27    26     0     0     0
SMALL
USER_CHARGES
2-ethoxyethyl-trimethyl-ammonium
@<TRIPOS>ATOM
      1 C1         -0.6219    0.1237    4.8896 C.3       1 <0>        -0.1570
      2 C2          0.2508   -0.4139    3.7536 C.3       1 <0>         0.0555
      3 O1         -0.2926    0.0005    2.4986 O.3       1 <0>        -0.3952
      4 C3          0.4517   -0.4513    1.3654 C.3       1 <0>         0.0279
      5 C4         -0.2176    0.0484    0.0835 C.3       1 <0>        -0.0018
      6 N1         -0.1058    1.5114    0.0110 N.4       1 <0>        -0.2693
      7 C5          1.3050    1.9014    0.1346 C.3       1 <0>        -0.0520
      8 C6         -0.6321    1.9794   -1.2782 C.3       1 <0>        -0.0455
      9 C7         -0.8787    2.1163    1.1040 C.3       1 <0>        -0.0469
     10 H1         -1.6344   -0.2662    4.7856 H         1 <0>         0.0680
     11 H2         -0.2074   -0.1924    5.8469 H         1 <0>         0.0817
     12 H3         -0.6454    1.2125    4.8456 H         1 <0>         0.0639
     13 H4          0.2744   -1.5027    3.7976 H         1 <0>         0.0615
     14 H5          1.2634   -0.0240    3.8576 H         1 <0>         0.0574
     15 H6          0.4794   -1.5409    1.3598 H         1 <0>         0.0967
     16 H7          1.4684   -0.0622    1.4199 H         1 <0>         0.0764
     17 H8         -1.2699   -0.2357    0.0885 H         1 <0>         0.1367
     18 H9          0.2749   -0.3969   -0.7809 H         1 <0>         0.1408
     19 H10         1.8785    1.4525   -0.6765 H         1 <0>         0.1213
     20 H11         1.3880    2.9869    0.0808 H         1 <0>         0.1234
     21 H12         1.6955    1.5542    1.0912 H         1 <0>         0.1214
     22 H13        -1.6789    1.6900   -1.3700 H         1 <0>         0.1215
     23 H14        -0.5491    3.0649   -1.3321 H         1 <0>         0.1224
     24 H15        -0.0586    1.5305   -2.0893 H         1 <0>         0.1204
     25 H16        -0.3897    1.9050    2.0550 H         1 <0>         0.1382
     26 H17        -0.9346    3.1948    0.9559 H         1 <0>         0.1135
     27 H18        -1.8852    1.6981    1.1121 H         1 <0>         0.1191
@<TRIPOS>BOND
     1    1    2 1
     2    1   10 1
     3    1   11 1
     4    1   12 1
     5    2    3 1
     6    2   13 1
     7    2   14 1
     8    3    4 1
     9    4    5 1
    10    4   15 1
    11    4   16 1
    12    5    6 1
    13    5   17 1
    14    5   18 1
    15    6    7 1
    16    6    8 1
    17    6    9 1
    18    7   19 1
    19    7   20 1
    20    7   21 1
    21    8   22 1
    22    8   23 1
    23    8   24 1
    24    9   25 1
    25    9   26 1
    26    9   27 1
@<TRIPOS>MOLECULE
ZINC06637582
   24    23     0     0     0
SMALL
USER_CHARGES
N,N-dimethylpent-4-en-1-amine
@<TRIPOS>ATOM
      1 C1         -4.7246    0.2348   -2.1302 C.3       1 <0>        -0.0469
      2 C2         -5.5211    2.4990   -2.4488 C.3       1 <0>        -0.0428
      3 C3         -3.5176    2.0917   -1.1516 C.3       1 <0>        -0.0073
      4 C4         -2.1824    1.3448   -1.1619 C.3       1 <0>        -0.1463
      5 C5         -1.3278    1.8115    0.0182 C.3       1 <0>        -0.0881
      6 C6         -0.0126    1.0758    0.0080 C.2       1 <0>        -0.1793
      7 C7          1.1129    1.7462    0.0008 C.2       1 <0>        -0.1679
      8 H1         -5.3004    0.1145   -1.2125 H         1 <0>         0.1232
      9 H2         -5.3313   -0.0711   -2.9825 H         1 <0>         0.1226
     10 H3         -3.8289   -0.3843   -2.0809 H         1 <0>         0.1220
     11 H4         -5.2044    3.5260   -2.6311 H         1 <0>         0.1214
     12 H5         -6.1109    2.1451   -3.2944 H         1 <0>         0.1226
     13 H6         -6.1257    2.4607   -1.5427 H         1 <0>         0.1228
     14 H7         -4.0423    1.8850   -0.2188 H         1 <0>         0.1313
     15 H8         -3.3354    3.1630   -1.2362 H         1 <0>         0.1292
     16 H9         -1.6577    1.5515   -2.0947 H         1 <0>         0.0872
     17 H10        -2.3647    0.2735   -1.0773 H         1 <0>         0.0880
     18 H11        -1.8525    1.6048    0.9510 H         1 <0>         0.0817
     19 H12        -1.1455    2.8828   -0.0664 H         1 <0>         0.0769
     20 H13         0.0021   -0.0041    0.0020 H         1 <0>         0.1129
     21 H14         1.0982    2.8261    0.0067 H         1 <0>         0.0997
     22 H15         2.0554    1.2190   -0.0110 H         1 <0>         0.1049
     23 N1         -4.3223    1.6458   -2.3085 N.4       1 <0>        -0.3987
     24 H16        -3.7546    1.7257   -3.1602 H         1 <0>         0.4311
@<TRIPOS>BOND
     1    1    8 1
     2    1    9 1
     3    1   10 1
     4    1   23 1
     5    2   11 1
     6    2   12 1
     7    2   13 1
     8    2   23 1
     9    3    4 1
    10    3   14 1
    11    3   15 1
    12    3   23 1
    13    4    5 1
    14    4   16 1
    15    4   17 1
    16    5    6 1
    17    5   18 1
    18    5   19 1
    19    6    7 2
    20    6   20 1
    21    7   21 1
    22    7   22 1
    23   23   24 1
@<TRIPOS>MOLECULE
ZINC01592591
   32    31     0     0     0
SMALL
USER_CHARGES
2-butanoylsulfanylethyl-trimethyl-ammonium
@<TRIPOS>ATOM
      1 C1         -3.8141    1.6817    0.0293 C.3       1 <0>        -0.1566
      2 C2         -2.4789    0.9348    0.0189 C.3       1 <0>        -0.1140
      3 C3         -1.3296    1.9448    0.0189 C.3       1 <0>        -0.1374
      4 C4         -0.0144    1.2091    0.0087 C.2       1 <0>         0.3370
      5 O1          0.0021   -0.0041    0.0020 O.2       1 <0>        -0.4391
      6 S1          1.4564    2.0852   -0.0006 S.3       1 <0>        -0.0986
      7 C5          2.6385    0.7146   -0.0193 C.3       1 <0>        -0.1555
      8 C6          4.0639    1.2706   -0.0299 C.3       1 <0>         0.0097
      9 N1          5.0233    0.1583   -0.0451 N.4       1 <0>        -0.2688
     10 C7          4.8073   -0.6584   -1.2469 C.3       1 <0>        -0.0539
     11 C8          6.3918    0.6921   -0.0553 C.3       1 <0>        -0.0446
     12 C9          4.8302   -0.6713    1.1518 C.3       1 <0>        -0.0539
     13 H1         -4.6329    0.9622    0.0293 H         1 <0>         0.0650
     14 H2         -3.8762    2.3027    0.9230 H         1 <0>         0.0590
     15 H3         -3.8846    2.3124   -0.8570 H         1 <0>         0.0594
     16 H4         -2.4169    0.3139   -0.8748 H         1 <0>         0.0711
     17 H5         -2.4084    0.3042    0.9051 H         1 <0>         0.0708
     18 H6         -1.3865    2.5145    0.8388 H         1 <0>         0.0997
     19 H7         -1.4000    2.5754   -0.8673 H         1 <0>         0.1120
     20 H8          2.4952    0.0991    0.8688 H         1 <0>         0.1180
     21 H9          2.4782    0.1087   -0.9111 H         1 <0>         0.1181
     22 H10         4.2072    1.8861   -0.9180 H         1 <0>         0.1407
     23 H11         4.2242    1.8766    0.8618 H         1 <0>         0.1407
     24 H12         4.9506   -0.0429   -2.1350 H         1 <0>         0.1251
     25 H13         5.5191   -1.4837   -1.2581 H         1 <0>         0.1270
     26 H14         3.7918   -1.0545   -1.2393 H         1 <0>         0.1218
     27 H15         6.5521    1.2980    0.8365 H         1 <0>         0.1238
     28 H16         7.1037   -0.1333   -0.0665 H         1 <0>         0.1260
     29 H17         6.5351    1.3076   -0.9434 H         1 <0>         0.1238
     30 H18         3.8147   -1.0674    1.1594 H         1 <0>         0.1218
     31 H19         5.5420   -1.4966    1.1406 H         1 <0>         0.1271
     32 H20         4.9905   -0.0653    2.0436 H         1 <0>         0.1251
@<TRIPOS>BOND
     1    1    2 1
     2    1   13 1
     3    1   14 1
     4    1   15 1
     5    2    3 1
     6    2   16 1
     7    2   17 1
     8    3    4 1
     9    3   18 1
    10    3   19 1
    11    4    5 2
    12    4    6 1
    13    6    7 1
    14    7    8 1
    15    7   20 1
    16    7   21 1
    17    8    9 1
    18    8   22 1
    19    8   23 1
    20    9   10 1
    21    9   11 1
    22    9   12 1
    23   10   24 1
    24   10   25 1
    25   10   26 1
    26   11   27 1
    27   11   28 1
    28   11   29 1
    29   12   30 1
    30   12   31 1
    31   12   32 1
@<TRIPOS>MOLECULE
ZINC01627245
   32    31     0     0     0
SMALL
USER_CHARGES
hexyl-trimethyl-ammonium
@<TRIPOS>ATOM
      1 C1          0.0823    1.4049    7.4549 C.3       1 <0>        -0.1574
      2 C2         -0.6577    1.9117    6.2154 C.3       1 <0>        -0.1267
      3 C3          0.0584    1.4183    4.9566 C.3       1 <0>        -0.1214
      4 C4         -0.6816    1.9251    3.7170 C.3       1 <0>        -0.1186
      5 C5          0.0346    1.4317    2.4582 C.3       1 <0>        -0.1507
      6 C6         -0.7054    1.9385    1.2187 C.3       1 <0>        -0.0093
      7 N1         -0.0178    1.4648    0.0101 N.4       1 <0>        -0.2715
      8 C7          0.0021   -0.0041    0.0020 C.3       1 <0>        -0.0507
      9 C8          1.3603    1.9732   -0.0003 C.3       1 <0>        -0.0507
     10 C9         -0.7283    1.9514   -1.1800 C.3       1 <0>        -0.0451
     11 H1          0.0971    0.3150    7.4489 H         1 <0>         0.0552
     12 H2          1.1049    1.7821    7.4472 H         1 <0>         0.0552
     13 H3         -0.4279    1.7564    8.3517 H         1 <0>         0.0591
     14 H4         -0.6725    3.0016    6.2214 H         1 <0>         0.0634
     15 H5         -1.6803    1.5344    6.2231 H         1 <0>         0.0634
     16 H6          0.0732    0.3284    4.9506 H         1 <0>         0.0654
     17 H7          1.0810    1.7956    4.9488 H         1 <0>         0.0654
     18 H8         -0.6964    3.0150    3.7230 H         1 <0>         0.0732
     19 H9         -1.7042    1.5478    3.7248 H         1 <0>         0.0732
     20 H10         0.0493    0.3418    2.4522 H         1 <0>         0.0871
     21 H11         1.0572    1.8090    2.4505 H         1 <0>         0.0871
     22 H12        -0.7202    3.0284    1.2247 H         1 <0>         0.1280
     23 H13        -1.7280    1.5612    1.2264 H         1 <0>         0.1280
     24 H14         0.5293   -0.3651    0.8851 H         1 <0>         0.1231
     25 H15        -1.0205   -0.3814    0.0098 H         1 <0>         0.1216
     26 H16         0.5123   -0.3556   -0.8948 H         1 <0>         0.1222
     27 H17         1.8705    1.6217   -0.8971 H         1 <0>         0.1221
     28 H18         1.3455    3.0631    0.0057 H         1 <0>         0.1215
     29 H19         1.8875    1.6122    0.8827 H         1 <0>         0.1231
     30 H20        -1.7509    1.5741   -1.1723 H         1 <0>         0.1212
     31 H21        -0.7431    3.0413   -1.1740 H         1 <0>         0.1211
     32 H22        -0.2181    1.5999   -2.0768 H         1 <0>         0.1223
@<TRIPOS>BOND
     1    1    2 1
     2    1   11 1
     3    1   12 1
     4    1   13 1
     5    2    3 1
     6    2   14 1
     7    2   15 1
     8    3    4 1
     9    3   16 1
    10    3   17 1
    11    4    5 1
    12    4   18 1
    13    4   19 1
    14    5    6 1
    15    5   20 1
    16    5   21 1
    17    6    7 1
    18    6   22 1
    19    6   23 1
    20    7    8 1
    21    7    9 1
    22    7   10 1
    23    8   24 1
    24    8   25 1
    25    8   26 1
    26    9   27 1
    27    9   28 1
    28    9   29 1
    29   10   30 1
    30   10   31 1
    31   10   32 1
@<TRIPOS>MOLECULE
ZINC02566600
   29    28     0     0     0
SMALL
USER_CHARGES
5-bromopentyl-trimethyl-ammonium
@<TRIPOS>ATOM
      1 C1          0.0021   -0.0041    0.0020 C.3       1 <0>        -0.0511
      2 N1         -0.0178    1.4648    0.0101 N.4       1 <0>        -0.2714
      3 C2          1.3603    1.9732   -0.0003 C.3       1 <0>        -0.0511
      4 C3         -0.7283    1.9514   -1.1800 C.3       1 <0>        -0.0452
      5 C4         -0.7054    1.9385    1.2187 C.3       1 <0>        -0.0091
      6 C5          0.0346    1.4317    2.4582 C.3       1 <0>        -0.1504
      7 C6         -0.6816    1.9251    3.7170 C.3       1 <0>        -0.1175
      8 C7          0.0584    1.4183    4.9566 C.3       1 <0>        -0.1214
      9 C8         -0.6577    1.9117    6.2154 C.3       1 <0>        -0.0884
     10 Br1         0.2932    1.2604    7.8081 Br        1 <0>        -0.1468
     11 H1          0.5293   -0.3651    0.8851 H         1 <0>         0.1233
     12 H2         -1.0205   -0.3814    0.0098 H         1 <0>         0.1219
     13 H3          0.5123   -0.3556   -0.8948 H         1 <0>         0.1226
     14 H4          1.8705    1.6217   -0.8971 H         1 <0>         0.1226
     15 H5          1.3455    3.0631    0.0057 H         1 <0>         0.1219
     16 H6          1.8875    1.6122    0.8827 H         1 <0>         0.1233
     17 H7         -1.7509    1.5741   -1.1723 H         1 <0>         0.1214
     18 H8         -0.7431    3.0413   -1.1740 H         1 <0>         0.1214
     19 H9         -0.2181    1.5999   -2.0768 H         1 <0>         0.1227
     20 H10        -0.7202    3.0284    1.2247 H         1 <0>         0.1287
     21 H11        -1.7280    1.5612    1.2264 H         1 <0>         0.1287
     22 H12         0.0493    0.3418    2.4522 H         1 <0>         0.0895
     23 H13         1.0572    1.8090    2.4505 H         1 <0>         0.0895
     24 H14        -0.6964    3.0150    3.7230 H         1 <0>         0.0775
     25 H15        -1.7042    1.5478    3.7248 H         1 <0>         0.0775
     26 H16         0.0732    0.3284    4.9506 H         1 <0>         0.0791
     27 H17         1.0810    1.7956    4.9488 H         1 <0>         0.0791
     28 H18        -0.6725    3.0016    6.2214 H         1 <0>         0.1010
     29 H19        -1.6803    1.5344    6.2231 H         1 <0>         0.1010
@<TRIPOS>BOND
     1    1    2 1
     2    1   11 1
     3    1   12 1
     4    1   13 1
     5    2    3 1
     6    2    4 1
     7    2    5 1
     8    3   14 1
     9    3   15 1
    10    3   16 1
    11    4   17 1
    12    4   18 1
    13    4   19 1
    14    5    6 1
    15    5   20 1
    16    5   21 1
    17    6    7 1
    18    6   22 1
    19    6   23 1
    20    7    8 1
    21    7   24 1
    22    7   25 1
    23    8    9 1
    24    8   26 1
    25    8   27 1
    26    9   10 1
    27    9   28 1
    28    9   29 1
@<TRIPOS>MOLECULE
ZINC00597013
   58    61     0     0     0
SMALL
USER_CHARGES

@<TRIPOS>ATOM
      1 C1         -0.0173    1.4248    0.0099 C.3       1 <0>         0.0208
      2 O1          0.0021   -0.0041    0.0020 O.3       1 <0>        -0.2950
      3 C2          0.6051   -0.6064   -1.0545 C.ar      1 <0>         0.1532
      4 C3          1.1721    0.1632   -2.0609 C.ar      1 <0>        -0.1821
      5 C4          1.7866   -0.4410   -3.1387 C.ar      1 <0>        -0.0371
      6 C5          1.8416   -1.8340   -3.2219 C.ar      1 <0>        -0.2044
      7 C6          1.2663   -2.6106   -2.2012 C.ar      1 <0>        -0.1044
      8 C7          0.6597   -1.9984   -1.1254 C.ar      1 <0>         0.0877
      9 O2          0.1088   -2.7516   -0.1361 O.3       1 <0>        -0.3011
     10 C8          0.2013   -4.1710   -0.2735 C.3       1 <0>         0.0231
     11 C9          2.5389   -2.2531   -4.4456 C.2       1 <0>         0.4182
     12 O3          2.7420   -3.3976   -4.7923 O.2       1 <0>        -0.4477
     13 C10         2.9584   -1.0129   -5.1966 C.3       1 <0>        -0.1391
     14 H1          4.0434   -0.9806   -5.2959 H         1 <0>         0.1138
     15 C11         2.4673    0.1645   -4.3432 C.3       1 <0>        -0.0780
     16 C12         2.2994   -0.9808   -6.5770 C.3       1 <0>        -0.0982
     17 C13         2.8476   -2.1260   -7.4307 C.3       1 <0>        -0.1155
     18 C14         4.3380   -1.8972   -7.6982 C.3       1 <0>        -0.1415
     19 C15         4.8612   -3.0029   -8.6175 C.3       1 <0>        -0.0066
     20 N1          4.1252   -2.9777   -9.8872 N.4       1 <0>        -0.3801
     21 C16         2.7066   -3.2675   -9.6464 C.3       1 <0>        -0.0118
     22 C17         2.1004   -2.1720   -8.7666 C.3       1 <0>        -0.1383
     23 C18         4.6828   -3.9891  -10.7949 C.3       1 <0>         0.0438
     24 C19         4.0113   -3.8820  -12.1398 C.ar      1 <0>        -0.1605
     25 C20         2.8641   -4.6083  -12.3993 C.ar      1 <0>        -0.0978
     26 C21         2.2481   -4.5101  -13.6329 C.ar      1 <0>        -0.1135
     27 C22         2.7790   -3.6851  -14.6068 C.ar      1 <0>        -0.0847
     28 C23         3.9256   -2.9580  -14.3470 C.ar      1 <0>        -0.1130
     29 C24         4.5392   -3.0530  -13.1119 C.ar      1 <0>        -0.0942
     30 H2          1.0053    1.8021    0.0021 H         1 <0>         0.0608
     31 H3         -0.5445    1.7859   -0.8732 H         1 <0>         0.0604
     32 H4         -0.5275    1.7763    0.9067 H         1 <0>         0.1088
     33 H5          1.1317    1.2407   -2.0004 H         1 <0>         0.1449
     34 H6          1.3038   -3.6885   -2.2575 H         1 <0>         0.1426
     35 H7         -0.2763   -4.6506    0.5809 H         1 <0>         0.1075
     36 H8         -0.2996   -4.4806   -1.1908 H         1 <0>         0.0566
     37 H9          1.2502   -4.4644   -0.3155 H         1 <0>         0.0572
     38 H10         1.7583    0.7678   -4.9101 H         1 <0>         0.0961
     39 H11         3.3123    0.7764   -4.0277 H         1 <0>         0.0964
     40 H12         1.2208   -1.0934   -6.4674 H         1 <0>         0.0800
     41 H13         2.5179   -0.0293   -7.0618 H         1 <0>         0.0849
     42 H14         2.7114   -3.0706   -6.9042 H         1 <0>         0.1081
     43 H15         4.4772   -0.9286   -8.1782 H         1 <0>         0.0886
     44 H16         4.8846   -1.9188   -6.7553 H         1 <0>         0.1118
     45 H17         5.9222   -2.8432   -8.8098 H         1 <0>         0.1305
     46 H18         4.7218   -3.9711   -8.1364 H         1 <0>         0.1303
     47 H19         2.1768   -3.3031  -10.5983 H         1 <0>         0.1310
     48 H20         2.6131   -4.2300   -9.1434 H         1 <0>         0.1282
     49 H21         1.0476   -2.3899   -8.5875 H         1 <0>         0.1106
     50 H22         2.1932   -1.2090   -9.2688 H         1 <0>         0.0874
     51 H23         5.7540   -3.8234  -10.9095 H         1 <0>         0.1365
     52 H24         4.5111   -4.9828  -10.3812 H         1 <0>         0.1348
     53 H25         2.4494   -5.2529  -11.6384 H         1 <0>         0.1308
     54 H26         1.3522   -5.0781  -13.8359 H         1 <0>         0.1360
     55 H27         2.2981   -3.6088  -15.5708 H         1 <0>         0.1358
     56 H28         4.3405   -2.3138  -15.1080 H         1 <0>         0.1360
     57 H29         5.4329   -2.4822  -12.9076 H         1 <0>         0.1309
     58 H30         4.2142   -2.0651  -10.3083 H         1 <0>         0.4207
@<TRIPOS>BOND
     1    1    2 1
     2    1   30 1
     3    1   31 1
     4    1   32 1
     5    2    3 1
     6    3    8 ar
     7    3    4 ar
     8    4    5 ar
     9    4   33 1
    10    5   15 1
    11    5    6 ar
    12    6    7 ar
    13    6   11 1
    14    7    8 ar
    15    7   34 1
    16    8    9 1
    17    9   10 1
    18   10   35 1
    19   10   36 1
    20   10   37 1
    21   11   12 2
    22   11   13 1
    23   13   14 1
    24   13   15 1
    25   13   16 1
    26   15   38 1
    27   15   39 1
    28   16   17 1
    29   16   40 1
    30   16   41 1
    31   17   22 1
    32   17   18 1
    33   17   42 1
    34   18   19 1
    35   18   43 1
    36   18   44 1
    37   19   20 1
    38   19   45 1
    39   19   46 1
    40   20   21 1
    41   20   23 1
    42   20   58 1
    43   21   22 1
    44   21   47 1
    45   21   48 1
    46   22   49 1
    47   22   50 1
    48   23   24 1
    49   23   51 1
    50   23   52 1
    51   24   29 ar
    52   24   25 ar
    53   25   26 ar
    54   25   53 1
    55   26   27 ar
    56   26   54 1
    57   27   28 ar
    58   27   55 1
    59   28   29 ar
    60   28   56 1
    61   29   57 1
@<TRIPOS>MOLECULE
ZINC00897251
   58    61     0     0     0
SMALL
USER_CHARGES

@<TRIPOS>ATOM
      1 C1         -0.4000    2.7928   -9.4111 C.3       1 <0>         0.0217
      2 O1         -0.3921    3.3043   -8.0768 O.3       1 <0>        -0.2952
      3 C2          0.2864    2.5865   -7.1456 C.ar      1 <0>         0.1496
      4 C3          0.9365    1.4157   -7.5106 C.ar      1 <0>        -0.1810
      5 C4          1.6280    0.6797   -6.5702 C.ar      1 <0>        -0.0432
      6 C5          1.6776    1.1109   -5.2428 C.ar      1 <0>        -0.1980
      7 C6          1.0179    2.2969   -4.8763 C.ar      1 <0>        -0.1053
      8 C7          0.3345    3.0288   -5.8236 C.ar      1 <0>         0.0903
      9 O2         -0.2981    4.1789   -5.4680 O.3       1 <0>        -0.3013
     10 C8         -0.2072    4.5722   -4.0972 C.3       1 <0>         0.0223
     11 C9          2.4645    0.1785   -4.4238 C.2       1 <0>         0.4126
     12 O3          2.6844    0.2862   -3.2359 O.2       1 <0>        -0.4369
     13 C10         2.9517   -0.9365   -5.3169 C.3       1 <0>        -0.1385
     14 H1          2.5591   -1.8938   -4.9740 H         1 <0>         0.1136
     15 C11         2.4055   -0.6071   -6.7129 C.3       1 <0>        -0.0752
     16 C12         4.4812   -0.9687   -5.3380 C.3       1 <0>        -0.1018
     17 C13         4.9548   -2.1846   -6.1369 C.3       1 <0>        -0.0999
     18 C14         4.5565   -3.4674   -5.4014 C.3       1 <0>        -0.1473
     19 C15         5.1018   -4.6765   -6.1643 C.3       1 <0>        -0.0062
     20 N1          6.5650   -4.5904   -6.2436 N.4       1 <0>        -0.3817
     21 C16         6.9530   -3.4000   -7.0098 C.3       1 <0>        -0.0117
     22 C17         6.4789   -2.1417   -6.2794 C.3       1 <0>        -0.1414
     23 C18         7.0894   -5.7910   -6.9081 C.3       1 <0>         0.0445
     24 C19         8.5959   -5.7625   -6.8811 C.ar      1 <0>        -0.1617
     25 C20         9.2944   -5.1622   -7.9119 C.ar      1 <0>        -0.0980
     26 C21        10.6763   -5.1361   -7.8871 C.ar      1 <0>        -0.1136
     27 C22        11.3596   -5.7098   -6.8313 C.ar      1 <0>        -0.0841
     28 C23        10.6611   -6.3093   -5.8000 C.ar      1 <0>        -0.1126
     29 C24         9.2791   -6.3317   -5.8227 C.ar      1 <0>        -0.0940
     30 H2          0.6233    2.7264   -9.7808 H         1 <0>         0.0592
     31 H3         -0.8537    1.8018   -9.4176 H         1 <0>         0.0598
     32 H4         -0.9755    3.4601  -10.0527 H         1 <0>         0.1082
     33 H5          0.9006    1.0787   -8.5360 H         1 <0>         0.1432
     34 H6          1.0506    2.6377   -3.8520 H         1 <0>         0.1438
     35 H7         -0.7539    5.5035   -3.9494 H         1 <0>         0.1078
     36 H8         -0.6376    3.7942   -3.4667 H         1 <0>         0.0580
     37 H9          0.8393    4.7188   -3.8299 H         1 <0>         0.0577
     38 H10         1.7480   -1.4060   -7.0558 H         1 <0>         0.0927
     39 H11         3.2285   -0.4716   -7.4146 H         1 <0>         0.0925
     40 H12         4.8574   -0.0583   -5.8047 H         1 <0>         0.0823
     41 H13         4.8574   -1.0358   -4.3172 H         1 <0>         0.0822
     42 H14         4.4958   -2.1724   -7.1255 H         1 <0>         0.0950
     43 H15         4.9736   -3.4540   -4.3944 H         1 <0>         0.0914
     44 H16         3.4699   -3.5323   -5.3452 H         1 <0>         0.1144
     45 H17         4.8199   -5.5916   -5.6435 H         1 <0>         0.1311
     46 H18         4.6840   -4.6890   -7.1710 H         1 <0>         0.1295
     47 H19         8.0378   -3.3726   -7.1131 H         1 <0>         0.1315
     48 H20         6.4957   -3.4397   -7.9984 H         1 <0>         0.1282
     49 H21         6.7664   -1.2591   -6.8507 H         1 <0>         0.1129
     50 H22         6.9359   -2.1009   -5.2906 H         1 <0>         0.0893
     51 H23         6.7334   -6.6795   -6.3867 H         1 <0>         0.1365
     52 H24         6.7449   -5.8138   -7.9420 H         1 <0>         0.1348
     53 H25         8.7606   -4.7139   -8.7368 H         1 <0>         0.1306
     54 H26        11.2221   -4.6677   -8.6928 H         1 <0>         0.1361
     55 H27        12.4393   -5.6901   -6.8123 H         1 <0>         0.1360
     56 H28        11.1949   -6.7579   -4.9753 H         1 <0>         0.1363
     57 H29         8.7332   -6.7968   -5.0151 H         1 <0>         0.1311
     58 H30         6.9482   -4.5293   -5.3123 H         1 <0>         0.4220
@<TRIPOS>BOND
     1    1    2 1
     2    1   30 1
     3    1   31 1
     4    1   32 1
     5    2    3 1
     6    3    8 ar
     7    3    4 ar
     8    4    5 ar
     9    4   33 1
    10    5   15 1
    11    5    6 ar
    12    6    7 ar
    13    6   11 1
    14    7    8 ar
    15    7   34 1
    16    8    9 1
    17    9   10 1
    18   10   35 1
    19   10   36 1
    20   10   37 1
    21   11   12 2
    22   11   13 1
    23   13   14 1
    24   13   15 1
    25   13   16 1
    26   15   38 1
    27   15   39 1
    28   16   17 1
    29   16   40 1
    30   16   41 1
    31   17   22 1
    32   17   18 1
    33   17   42 1
    34   18   19 1
    35   18   43 1
    36   18   44 1
    37   19   20 1
    38   19   45 1
    39   19   46 1
    40   20   21 1
    41   20   23 1
    42   20   58 1
    43   21   22 1
    44   21   47 1
    45   21   48 1
    46   22   49 1
    47   22   50 1
    48   23   24 1
    49   23   51 1
    50   23   52 1
    51   24   29 ar
    52   24   25 ar
    53   25   26 ar
    54   25   53 1
    55   26   27 ar
    56   26   54 1
    57   27   28 ar
    58   27   55 1
    59   28   29 ar
    60   28   56 1
    61   29   57 1
@<TRIPOS>MOLECULE
ZINC01026781
   47    50     0     0     0
SMALL
USER_CHARGES

@<TRIPOS>ATOM
      1 C1          2.2322   -2.4409    3.5302 C.ar      1 <0>        -0.0740
      2 C2          3.4429   -1.7723    3.5291 C.ar      1 <0>        -0.1045
      3 C3          3.9220   -1.2055    2.3625 C.ar      1 <0>        -0.1393
      4 C4          3.1921   -1.3050    1.1941 C.ar      1 <0>        -0.1149
      5 C5          1.9761   -1.9756    1.1918 C.ar      1 <0>         0.1920
      6 C6          1.4978   -2.5443    2.3654 C.ar      1 <0>        -0.1366
      7 N1          1.2342   -2.0778    0.0103 N.pl3     1 <0>        -0.6866
      8 C7          0.1327   -2.8534   -0.0287 C.2       1 <0>         0.5623
      9 S1         -1.4192   -2.1335   -0.0942 S.2       1 <0>        -0.5250
     10 N2          0.2529   -4.1957   -0.0163 N.pl3     1 <0>        -0.4838
     11 C8         -0.9355   -5.0390   -0.1679 C.3       1 <0>         0.1418
     12 C9         -1.1651   -5.3253   -1.6296 C.ar      1 <0>        -0.1106
     13 C10        -1.9500   -4.4734   -2.3843 C.ar      1 <0>        -0.0769
     14 C11        -2.1632   -4.7315   -3.7255 C.ar      1 <0>        -0.1050
     15 C12        -1.5904   -5.8459   -4.3167 C.ar      1 <0>         0.0465
     16 C13        -0.7997   -6.7040   -3.5565 C.ar      1 <0>         0.0251
     17 C14        -0.5858   -6.4359   -2.2141 C.ar      1 <0>        -0.0794
     18 O1         -0.3568   -7.7152   -4.3594 O.3       1 <0>        -0.3082
     19 C15        -1.2144   -7.6916   -5.5157 C.3       1 <0>         0.2127
     20 O2         -1.6427   -6.3193   -5.5959 O.3       1 <0>        -0.3072
     21 C16         1.5133   -4.7842    0.1415 C.ar      1 <0>         0.0825
     22 C17         1.7946   -5.5309    1.2780 C.ar      1 <0>        -0.0754
     23 C18         3.0385   -6.1110    1.4315 C.ar      1 <0>        -0.1379
     24 C19         4.0049   -5.9485    0.4531 C.ar      1 <0>         0.1189
     25 C20         3.7264   -5.2044   -0.6809 C.ar      1 <0>        -0.1389
     26 C21         2.4820   -4.6269   -0.8408 C.ar      1 <0>        -0.0702
     27 F1          5.2212   -6.5165    0.6054 F         1 <0>        -0.1299
     28 C22         5.2417   -0.4779    2.3659 C.3       1 <0>         0.5082
     29 F2          5.7885   -0.5098    3.6533 F         1 <0>        -0.1741
     30 F3          6.1192   -1.0995    1.4711 F         1 <0>        -0.1750
     31 F4          5.0426    0.8510    1.9766 F         1 <0>        -0.1739
     32 H1          1.8629   -2.8864    4.4421 H         1 <0>         0.1406
     33 H2          4.0152   -1.6925    4.4415 H         1 <0>         0.1417
     34 H3          3.5665   -0.8614    0.2833 H         1 <0>         0.1378
     35 H4          0.5525   -3.0666    2.3669 H         1 <0>         0.1275
     36 H5          1.5126   -1.5905   -0.7808 H         1 <0>         0.4310
     37 H6         -0.7861   -5.9769    0.3669 H         1 <0>         0.1034
     38 H7         -1.8029   -4.5214    0.2416 H         1 <0>         0.1349
     39 H8         -2.3979   -3.6046   -1.9249 H         1 <0>         0.1605
     40 H9         -2.7768   -4.0643   -4.3127 H         1 <0>         0.1396
     41 H10         0.0306   -7.0972   -1.6232 H         1 <0>         0.1325
     42 H11        -0.6587   -7.9723   -6.4105 H         1 <0>         0.1338
     43 H12        -2.0695   -8.3520   -5.3719 H         1 <0>         0.0872
     44 H13         1.0413   -5.6576    2.0415 H         1 <0>         0.1411
     45 H14         3.2578   -6.6915    2.3154 H         1 <0>         0.1471
     46 H15         4.4815   -5.0788   -1.4429 H         1 <0>         0.1452
     47 H16         2.2637   -4.0503   -1.7276 H         1 <0>         0.1337
@<TRIPOS>BOND
     1    1    6 ar
     2    1    2 ar
     3    1   32 1
     4    2    3 ar
     5    2   33 1
     6    3    4 ar
     7    3   28 1
     8    4    5 ar
     9    4   34 1
    10    5    6 ar
    11    5    7 1
    12    6   35 1
    13    7    8 1
    14    7   36 1
    15    8    9 2
    16    8   10 1
    17   10   11 1
    18   10   21 1
    19   11   12 1
    20   11   37 1
    21   11   38 1
    22   12   17 ar
    23   12   13 ar
    24   13   14 ar
    25   13   39 1
    26   14   15 ar
    27   14   40 1
    28   15   20 1
    29   15   16 ar
    30   16   17 ar
    31   16   18 1
    32   17   41 1
    33   18   19 1
    34   19   20 1
    35   19   42 1
    36   19   43 1
    37   21   26 ar
    38   21   22 ar
    39   22   23 ar
    40   22   44 1
    41   23   24 ar
    42   23   45 1
    43   24   25 ar
    44   24   27 1
    45   25   26 ar
    46   25   46 1
    47   26   47 1
    48   28   29 1
    49   28   30 1
    50   28   31 1
@<TRIPOS>MOLECULE
ZINC01026781
   47    50     0     0     0
SMALL
USER_CHARGES

@<TRIPOS>ATOM
      1 C1          1.8951    1.2075    2.1743 C.ar      1 <0>        -0.1090
      2 C2          1.0905    2.0105    1.3864 C.ar      1 <0>        -0.0708
      3 C3          0.3049    1.4485    0.3972 C.ar      1 <0>        -0.1715
      4 C4          0.3217    0.0826    0.1924 C.ar      1 <0>        -0.0313
      5 C5          1.1287   -0.7264    0.9814 C.ar      1 <0>         0.1336
      6 C6          1.9165   -0.1587    1.9747 C.ar      1 <0>        -0.0950
      7 N1          1.1477   -2.1100    0.7769 N.pl3     1 <0>        -0.6375
      8 C7         -0.0151   -2.7772    0.5033 C.cat     1 <0>         0.5354
      9 N2          0.0196   -4.1033    0.1682 N.pl3     1 <0>        -0.5265
     10 C8         -1.1984   -4.7745   -0.2924 C.3       1 <0>         0.1591
     11 C9         -1.3004   -4.6574   -1.7913 C.ar      1 <0>        -0.1100
     12 C10        -1.9523   -3.5770   -2.3561 C.ar      1 <0>        -0.0780
     13 C11        -2.0480   -3.4649   -3.7305 C.ar      1 <0>        -0.1039
     14 C12        -1.4906   -4.4365   -4.5459 C.ar      1 <0>         0.0440
     15 C13        -0.8339   -5.5249   -3.9771 C.ar      1 <0>         0.0245
     16 C14        -0.7369   -5.6277   -2.5988 C.ar      1 <0>        -0.0824
     17 O1         -0.3781   -6.3319   -4.9792 O.3       1 <0>        -0.3090
     18 C15        -1.1145   -5.9404   -6.1530 C.3       1 <0>         0.2128
     19 O2         -1.4462   -4.5614   -5.9045 O.3       1 <0>        -0.3075
     20 C16         1.2190   -4.8186    0.2653 C.ar      1 <0>         0.0755
     21 C17         1.5065   -5.5410    1.4158 C.ar      1 <0>        -0.0727
     22 C18         2.6902   -6.2465    1.5094 C.ar      1 <0>        -0.1438
     23 C19         3.5902   -6.2334    0.4571 C.ar      1 <0>         0.1208
     24 C20         3.3054   -5.5137   -0.6911 C.ar      1 <0>        -0.1436
     25 C21         2.1203   -4.8115   -0.7910 C.ar      1 <0>        -0.0747
     26 F1          4.7479   -6.9234    0.5510 F         1 <0>        -0.1295
     27 S1         -1.4680   -1.9777    0.5781 S.3       1 <0>        -0.5302
     28 C22        -0.5711    2.3271   -0.4583 C.3       1 <0>         0.5101
     29 F2         -0.4190    3.6612   -0.0653 F         1 <0>        -0.1774
     30 F3         -0.1995    2.1910   -1.8001 F         1 <0>        -0.1772
     31 F4         -1.9079    1.9449   -0.3036 F         1 <0>        -0.1690
     32 H1          2.5107    1.6500    2.9435 H         1 <0>         0.1415
     33 H2          1.0755    3.0787    1.5445 H         1 <0>         0.1419
     34 H3         -0.2925   -0.3558   -0.5803 H         1 <0>         0.1529
     35 H4          2.5453   -0.7851    2.5900 H         1 <0>         0.1337
     36 H5         -1.1614   -5.8271   -0.0118 H         1 <0>         0.0997
     37 H6         -2.0680   -4.3060    0.1687 H         1 <0>         0.1322
     38 H7         -2.3881   -2.8190   -1.7220 H         1 <0>         0.1578
     39 H8         -2.5579   -2.6198   -4.1690 H         1 <0>         0.1391
     40 H9         -0.2243   -6.4684   -2.1550 H         1 <0>         0.1317
     41 H10        -0.4920   -6.0301   -7.0432 H         1 <0>         0.1331
     42 H11        -2.0193   -6.5396   -6.2551 H         1 <0>         0.0866
     43 H12         0.8052   -5.5509    2.2371 H         1 <0>         0.1428
     44 H13         2.9142   -6.8084    2.4041 H         1 <0>         0.1475
     45 H14         4.0089   -5.5045   -1.5105 H         1 <0>         0.1463
     46 H15         1.8968   -4.2536   -1.6884 H         1 <0>         0.1387
     47 H16         1.9853   -2.5965    0.8291 H         1 <0>         0.4090
@<TRIPOS>BOND
     1    1    6 ar
     2    1    2 ar
     3    1   32 1
     4    2    3 ar
     5    2   33 1
     6    3    4 ar
     7    3   28 1
     8    4    5 ar
     9    4   34 1
    10    5    6 ar
    11    5    7 1
    12    6   35 1
    13    7    8 2
    14    7   47 1
    15    8    9 1
    16    8   27 1
    17    9   10 1
    18    9   20 1
    19   10   11 1
    20   10   36 1
    21   10   37 1
    22   11   16 ar
    23   11   12 ar
    24   12   13 ar
    25   12   38 1
    26   13   14 ar
    27   13   39 1
    28   14   19 1
    29   14   15 ar
    30   15   16 ar
    31   15   17 1
    32   16   40 1
    33   17   18 1
    34   18   19 1
    35   18   41 1
    36   18   42 1
    37   20   25 ar
    38   20   21 ar
    39   21   22 ar
    40   21   43 1
    41   22   23 ar
    42   22   44 1
    43   23   24 ar
    44   23   26 1
    45   24   25 ar
    46   24   45 1
    47   25   46 1
    48   28   29 1
    49   28   30 1
    50   28   31 1
@<TRIPOS>MOLECULE
ZINC12368743
   58    61     0     0     0
SMALL
USER_CHARGES
2-[(2E,5S)-2-(4-cyclohexylphenyl)imino-4-oxo-thiazolidin-5-yl]-N-[4-(trifluoromethoxy)phenyl]acetamide
@<TRIPOS>ATOM
      1 C1          2.3914   -0.1172   -3.7541 C.ar      1 <0>        -0.0929
      2 C2          3.0286   -0.5543   -4.8969 C.ar      1 <0>        -0.1630
      3 C3          4.1795   -1.3383   -4.7941 C.ar      1 <0>         0.0819
      4 C4          4.6802   -1.6702   -3.5336 C.ar      1 <0>        -0.0948
      5 C5          4.0357   -1.2223   -2.3992 C.ar      1 <0>        -0.0983
      6 C6          2.8960   -0.4455   -2.5083 C.ar      1 <0>        -0.0762
      7 C7          2.1973    0.0401   -1.2644 C.3       1 <0>        -0.0481
      8 C8          0.7637   -0.4940   -1.2432 C.3       1 <0>        -0.1110
      9 C9          0.0545   -0.0010    0.0196 C.3       1 <0>        -0.1204
     10 C10         0.0290    1.5288    0.0260 C.3       1 <0>        -0.1216
     11 C11         1.4626    2.0629    0.0048 C.3       1 <0>        -0.1204
     12 C12         2.1718    1.5699   -1.2581 C.3       1 <0>        -0.1110
     13 N1          4.8141   -1.7799   -5.9244 N.2       1 <0>        -0.4504
     14 C13         4.1156   -2.2839   -6.9147 C.2       1 <0>         0.3704
     15 N2          2.7493   -2.4530   -6.9934 N.am      1 <0>        -0.6920
     16 C14         2.1610   -2.9734   -8.0569 C.2       1 <0>         0.5276
     17 O1          0.9586   -3.1154   -8.1231 O.2       1 <0>        -0.4773
     18 C15         3.0869   -3.3884   -9.1888 C.3       1 <0>        -0.0879
     19 H1          2.8774   -2.8239  -10.0974 H         1 <0>         0.1664
     20 S1          4.7123   -2.9192   -8.4740 S.3       1 <0>         0.0190
     21 C16         3.0082   -4.8947   -9.4452 C.3       1 <0>        -0.1187
     22 C17         3.9856   -5.2715  -10.5286 C.2       1 <0>         0.5195
     23 O2          4.6771   -4.4192  -11.0449 O.2       1 <0>        -0.5061
     24 N3          4.0914   -6.5557  -10.9239 N.am      1 <0>        -0.6671
     25 C18         4.9282   -6.8920  -11.9961 C.ar      1 <0>         0.1250
     26 C19         4.5700   -7.9166  -12.8619 C.ar      1 <0>        -0.1000
     27 C20         5.3927   -8.2441  -13.9215 C.ar      1 <0>        -0.1712
     28 C21         6.5824   -7.5572  -14.1144 C.ar      1 <0>         0.0927
     29 C22         6.9435   -6.5368  -13.2466 C.ar      1 <0>        -0.1030
     30 C23         6.1189   -6.2046  -12.1900 C.ar      1 <0>        -0.0815
     31 O3          7.3948   -7.8838  -15.1546 O.3       1 <0>        -0.3091
     32 C24         6.9609   -8.9444  -16.0084 C.3       1 <0>         0.6037
     33 F1          5.7311   -8.6066  -16.5835 F         1 <0>        -0.1648
     34 F2          7.9078   -9.1474  -17.0180 F         1 <0>        -0.1298
     35 F3          6.8189  -10.1175  -15.2595 F         1 <0>        -0.1649
     36 H2          1.4988    0.4858   -3.8321 H         1 <0>         0.1265
     37 H3          2.6361   -0.2939   -5.8687 H         1 <0>         0.1206
     38 H4          5.5702   -2.2759   -3.4471 H         1 <0>         0.1329
     39 H5          4.4219   -1.4784   -1.4236 H         1 <0>         0.1304
     40 H6          2.7315   -0.3180   -0.3844 H         1 <0>         0.0801
     41 H7          0.7819   -1.5838   -1.2477 H         1 <0>         0.0631
     42 H8          0.2295   -0.1358   -2.1233 H         1 <0>         0.0636
     43 H9          0.5887   -0.3591    0.8997 H         1 <0>         0.0627
     44 H10        -0.9669   -0.3814    0.0347 H         1 <0>         0.0631
     45 H11        -0.5052    1.8869   -0.8541 H         1 <0>         0.0613
     46 H12        -0.4763    1.8800    0.9256 H         1 <0>         0.0619
     47 H13         1.4444    3.1527    0.0093 H         1 <0>         0.0634
     48 H14         1.9968    1.7047    0.8848 H         1 <0>         0.0627
     49 H15         3.1932    1.9503   -1.2732 H         1 <0>         0.0640
     50 H16         1.6376    1.9280   -2.1381 H         1 <0>         0.0636
     51 H17         2.1999   -2.1772   -6.2430 H         1 <0>         0.4147
     52 H18         3.2553   -5.4324   -8.5299 H         1 <0>         0.1165
     53 H19         1.9982   -5.1574   -9.7596 H         1 <0>         0.1307
     54 H20         3.5881   -7.2471  -10.4661 H         1 <0>         0.4160
     55 H21         3.6461   -8.4547  -12.7091 H         1 <0>         0.1381
     56 H22         5.1119   -9.0378  -14.5978 H         1 <0>         0.1384
     57 H23         7.8698   -6.0025  -13.3973 H         1 <0>         0.1448
     58 H24         6.3999   -5.4099  -11.5147 H         1 <0>         0.1560
@<TRIPOS>BOND
     1    1    6 ar
     2    1    2 ar
     3    1   36 1
     4    2    3 ar
     5    2   37 1
     6    3    4 ar
     7    3   13 1
     8    4    5 ar
     9    4   38 1
    10    5    6 ar
    11    5   39 1
    12    6    7 1
    13    7   12 1
    14    7    8 1
    15    7   40 1
    16    8    9 1
    17    8   41 1
    18    8   42 1
    19    9   10 1
    20    9   43 1
    21    9   44 1
    22   10   11 1
    23   10   45 1
    24   10   46 1
    25   11   12 1
    26   11   47 1
    27   11   48 1
    28   12   49 1
    29   12   50 1
    30   13   14 2
    31   14   20 1
    32   14   15 1
    33   15   16 am
    34   15   51 1
    35   16   17 2
    36   16   18 1
    37   18   19 1
    38   18   20 1
    39   18   21 1
    40   21   22 1
    41   21   52 1
    42   21   53 1
    43   22   23 2
    44   22   24 am
    45   24   25 1
    46   24   54 1
    47   25   30 ar
    48   25   26 ar
    49   26   27 ar
    50   26   55 1
    51   27   28 ar
    52   27   56 1
    53   28   29 ar
    54   28   31 1
    55   29   30 ar
    56   29   57 1
    57   30   58 1
    58   31   32 1
    59   32   33 1
    60   32   34 1
    61   32   35 1
@<TRIPOS>MOLECULE
ZINC12368744
   58    61     0     0     0
SMALL
USER_CHARGES
2-[(2E,5R)-2-(4-cyclohexylphenyl)imino-4-oxo-thiazolidin-5-yl]-N-[4-(trifluoromethoxy)phenyl]acetamide
@<TRIPOS>ATOM
      1 C1          4.3945    1.7598   -0.2015 C.ar      1 <0>        -0.0930
      2 C2          5.6927    2.2263   -0.2135 C.ar      1 <0>        -0.1634
      3 C3          6.1313    3.0334   -1.2652 C.ar      1 <0>         0.0823
      4 C4          5.2530    3.3578   -2.3011 C.ar      1 <0>        -0.0949
      5 C5          3.9592    2.8797   -2.2793 C.ar      1 <0>        -0.0979
      6 C6          3.5311    2.0808   -1.2338 C.ar      1 <0>        -0.0766
      7 C7          2.1159    1.5630   -1.2164 C.3       1 <0>        -0.0482
      8 C8          1.4040    2.0666    0.0408 C.3       1 <0>        -0.1110
      9 C9         -0.0327    1.5409    0.0585 C.3       1 <0>        -0.1205
     10 C10        -0.0160    0.0110    0.0601 C.3       1 <0>        -0.1215
     11 C11         0.6958   -0.4926   -1.1971 C.3       1 <0>        -0.1205
     12 C12         2.1326    0.0331   -1.2148 C.3       1 <0>        -0.1108
     13 N1          7.4168    3.5050   -1.2804 N.2       1 <0>        -0.4506
     14 C13         7.9442    4.0080   -0.1889 C.2       1 <0>         0.3701
     15 N2          7.3601    4.1487    1.0523 N.am      1 <0>        -0.6919
     16 C14         8.0038    4.6716    2.0819 C.2       1 <0>         0.5277
     17 O1          7.4874    4.7886    3.1727 O.2       1 <0>        -0.4775
     18 C15         9.4299    5.1229    1.8109 C.3       1 <0>        -0.0884
     19 H1          9.5392    6.1971    1.9601 H         1 <0>         0.1668
     20 S1          9.5846    4.6787    0.0357 S.3       1 <0>         0.0206
     21 C16        10.4309    4.3438    2.6665 C.3       1 <0>        -0.1191
     22 C17        11.8320    4.7779    2.3209 C.2       1 <0>         0.5194
     23 O2         12.0123    5.6269    1.4737 O.2       1 <0>        -0.5060
     24 N3         12.8848    4.2227    2.9533 N.am      1 <0>        -0.6672
     25 C18        14.1896    4.5545    2.5655 C.ar      1 <0>         0.1255
     26 C19        15.1937    3.5969    2.6151 C.ar      1 <0>        -0.0996
     27 C20        16.4784    3.9232    2.2278 C.ar      1 <0>        -0.1708
     28 C21        16.7682    5.2106    1.8000 C.ar      1 <0>         0.0929
     29 C22        15.7666    6.1693    1.7552 C.ar      1 <0>        -0.1031
     30 C23        14.4803    5.8428    2.1368 C.ar      1 <0>        -0.0817
     31 O3         18.0346    5.5328    1.4241 O.3       1 <0>        -0.3092
     32 C24        19.0160    4.4965    1.4953 C.3       1 <0>         0.6037
     33 F1         18.6358    3.4363    0.6655 F         1 <0>        -0.1644
     34 F2         20.2534    4.9965    1.0758 F         1 <0>        -0.1298
     35 F3         19.1195    4.0422    2.8145 F         1 <0>        -0.1650
     36 H2          4.0526    1.1394    0.6138 H         1 <0>         0.1264
     37 H3          6.3669    1.9716    0.5908 H         1 <0>         0.1202
     38 H4          5.5859    3.9812   -3.1177 H         1 <0>         0.1331
     39 H5          3.2788    3.1298   -3.0798 H         1 <0>         0.1305
     40 H6          1.5876    1.9197   -2.1006 H         1 <0>         0.0801
     41 H7          1.3922    3.1565    0.0397 H         1 <0>         0.0633
     42 H8          1.9324    1.7099    0.9250 H         1 <0>         0.0635
     43 H9         -0.5610    1.8976   -0.8257 H         1 <0>         0.0628
     44 H10        -0.5398    1.8997    0.9542 H         1 <0>         0.0632
     45 H11         0.5123   -0.3456    0.9443 H         1 <0>         0.0612
     46 H12        -1.0396   -0.3635    0.0728 H         1 <0>         0.0619
     47 H13         0.7077   -1.5825   -1.1959 H         1 <0>         0.0633
     48 H14         0.1675   -0.1359   -2.0812 H         1 <0>         0.0628
     49 H15         2.6609   -0.3236   -0.3306 H         1 <0>         0.0635
     50 H16         2.6397   -0.3257   -2.1104 H         1 <0>         0.0639
     51 H17         6.4453    3.8503    1.1753 H         1 <0>         0.4146
     52 H18        10.2389    4.5416    3.7211 H         1 <0>         0.1307
     53 H19        10.3225    3.2768    2.4714 H         1 <0>         0.1164
     54 H20        12.7391    3.5933    3.6769 H         1 <0>         0.4160
     55 H21        14.9692    2.5959    2.9527 H         1 <0>         0.1382
     56 H22        17.2585    3.1771    2.2618 H         1 <0>         0.1386
     57 H23        15.9928    7.1712    1.4214 H         1 <0>         0.1446
     58 H24        13.7007    6.5893    2.1022 H         1 <0>         0.1549
@<TRIPOS>BOND
     1    1    6 ar
     2    1    2 ar
     3    1   36 1
     4    2    3 ar
     5    2   37 1
     6    3    4 ar
     7    3   13 1
     8    4    5 ar
     9    4   38 1
    10    5    6 ar
    11    5   39 1
    12    6    7 1
    13    7   12 1
    14    7    8 1
    15    7   40 1
    16    8    9 1
    17    8   41 1
    18    8   42 1
    19    9   10 1
    20    9   43 1
    21    9   44 1
    22   10   11 1
    23   10   45 1
    24   10   46 1
    25   11   12 1
    26   11   47 1
    27   11   48 1
    28   12   49 1
    29   12   50 1
    30   13   14 2
    31   14   20 1
    32   14   15 1
    33   15   16 am
    34   15   51 1
    35   16   17 2
    36   16   18 1
    37   18   19 1
    38   18   20 1
    39   18   21 1
    40   21   22 1
    41   21   52 1
    42   21   53 1
    43   22   23 2
    44   22   24 am
    45   24   25 1
    46   24   54 1
    47   25   30 ar
    48   25   26 ar
    49   26   27 ar
    50   26   55 1
    51   27   28 ar
    52   27   56 1
    53   28   29 ar
    54   28   31 1
    55   29   30 ar
    56   29   57 1
    57   30   58 1
    58   31   32 1
    59   32   33 1
    60   32   34 1
    61   32   35 1
@<TRIPOS>MOLECULE
ZINC00085074
   42    45     0     0     0
SMALL
USER_CHARGES

@<TRIPOS>ATOM
      1 C1          0.0052    1.3729    0.2264 C.ar      1 <0>        -0.1358
      2 C2          1.1696    2.0891    0.0023 C.ar      1 <0>        -0.0860
      3 C3          2.3619    1.4308   -0.2301 C.ar      1 <0>        -0.1573
      4 C4          2.4006    0.0456   -0.2406 C.ar      1 <0>         0.1598
      5 C5          1.2240   -0.6843   -0.0137 C.ar      1 <0>        -0.1115
      6 C6          0.0241   -0.0049    0.2202 C.ar      1 <0>        -0.0833
      7 C7          1.2521   -2.1545   -0.0223 C.2       1 <0>         0.3079
      8 N1          2.3782   -2.6685   -0.1293 N.2       1 <0>        -0.5624
      9 C8          3.0235   -3.8207   -0.3111 C.ar      1 <0>         0.1678
     10 C9          4.4226   -3.6961   -0.4764 C.ar      1 <0>        -0.0755
     11 C10         5.2195   -4.7886   -0.7024 C.ar      1 <0>        -0.1165
     12 C11         4.6543   -6.0512   -0.7743 C.ar      1 <0>        -0.1010
     13 C12         3.2982   -6.1980   -0.6034 C.ar      1 <0>        -0.0920
     14 C13         2.4660   -5.0991   -0.3568 C.ar      1 <0>        -0.1322
     15 S1          0.7684   -5.4399   -0.1057 S.3       1 <0>        -0.0793
     16 C14        -0.1732   -4.0609   -0.7451 C.3       1 <0>        -0.0384
     17 H1          0.1841   -3.8297   -1.7486 H         1 <0>         0.0964
     18 C15        -0.0707   -2.8225    0.1043 C.3       1 <0>        -0.1408
     19 C16        -1.6225   -4.4649   -0.8313 C.ar      1 <0>        -0.0781
     20 C17        -2.3028   -4.8428    0.3115 C.ar      1 <0>        -0.0843
     21 C18        -3.6312   -5.2140    0.2351 C.ar      1 <0>        -0.1409
     22 C19        -4.2828   -5.2070   -0.9897 C.ar      1 <0>         0.1143
     23 C20        -3.5981   -4.8270   -2.1349 C.ar      1 <0>        -0.1414
     24 C21        -2.2712   -4.4517   -2.0523 C.ar      1 <0>        -0.0828
     25 O1         -5.5895   -5.5722   -1.0676 O.3       1 <0>        -0.4985
     26 O2          3.5712   -0.6020   -0.4697 O.3       1 <0>        -0.4736
     27 H2         -0.9209    1.8970    0.4112 H         1 <0>         0.1290
     28 H3          1.1453    3.1688    0.0090 H         1 <0>         0.1284
     29 H4          3.2651    1.9967   -0.4043 H         1 <0>         0.1312
     30 H5         -0.8861   -0.5592    0.3957 H         1 <0>         0.1333
     31 H6          4.8742   -2.7165   -0.4237 H         1 <0>         0.1340
     32 H7          6.2855   -4.6651   -0.8244 H         1 <0>         0.1317
     33 H8          5.2749   -6.9145   -0.9637 H         1 <0>         0.1324
     34 H9          2.8638   -7.1851   -0.6612 H         1 <0>         0.1285
     35 H10        -0.2304   -3.0926    1.1481 H         1 <0>         0.1031
     36 H11        -0.8492   -2.1225   -0.1992 H         1 <0>         0.1063
     37 H12        -1.7951   -4.8481    1.2647 H         1 <0>         0.1309
     38 H13        -4.1620   -5.5098    1.1279 H         1 <0>         0.1333
     39 H14        -4.1031   -4.8207   -3.0895 H         1 <0>         0.1333
     40 H15        -1.7389   -4.1515   -2.9428 H         1 <0>         0.1285
     41 H16        -6.2101   -4.8390   -0.9564 H         1 <0>         0.3934
     42 H17         4.0791   -0.7915    0.3311 H         1 <0>         0.3881
@<TRIPOS>BOND
     1    1    6 ar
     2    1    2 ar
     3    1   27 1
     4    2    3 ar
     5    2   28 1
     6    3    4 ar
     7    3   29 1
     8    4    5 ar
     9    4   26 1
    10    5    6 ar
    11    5    7 1
    12    6   30 1
    13    7   18 1
    14    7    8 2
    15    8    9 1
    16    9   14 ar
    17    9   10 ar
    18   10   11 ar
    19   10   31 1
    20   11   12 ar
    21   11   32 1
    22   12   13 ar
    23   12   33 1
    24   13   14 ar
    25   13   34 1
    26   14   15 1
    27   15   16 1
    28   16   17 1
    29   16   18 1
    30   16   19 1
    31   18   35 1
    32   18   36 1
    33   19   24 ar
    34   19   20 ar
    35   20   21 ar
    36   20   37 1
    37   21   22 ar
    38   21   38 1
    39   22   23 ar
    40   22   25 1
    41   23   24 ar
    42   23   39 1
    43   24   40 1
    44   25   41 1
    45   26   42 1
@<TRIPOS>MOLECULE
ZINC00085078
   42    45     0     0     0
SMALL
USER_CHARGES

@<TRIPOS>ATOM
      1 C1         -0.0166    1.3739   -0.0091 C.ar      1 <0>        -0.1354
      2 C2          1.1697    2.0891    0.0021 C.ar      1 <0>        -0.0861
      3 C3          2.3839    1.4299    0.0052 C.ar      1 <0>        -0.1574
      4 C4          2.4228    0.0446   -0.0028 C.ar      1 <0>         0.1595
      5 C5          1.2240   -0.6843   -0.0137 C.ar      1 <0>        -0.1115
      6 C6          0.0020   -0.0040   -0.0168 C.ar      1 <0>        -0.0832
      7 C7          1.2521   -2.1545   -0.0223 C.2       1 <0>         0.3072
      8 N1          2.3782   -2.6685   -0.1293 N.2       1 <0>        -0.5589
      9 C8          3.0452   -3.8216   -0.0787 C.ar      1 <0>         0.1668
     10 C9          4.4508   -3.6973   -0.1744 C.ar      1 <0>        -0.0764
     11 C10         5.2750   -4.7909   -0.1088 C.ar      1 <0>        -0.1172
     12 C11         4.7320   -6.0543    0.0572 C.ar      1 <0>        -0.1009
     13 C12         3.3676   -6.2008    0.1403 C.ar      1 <0>        -0.0928
     14 C13         2.5049   -5.1006    0.0602 C.ar      1 <0>        -0.1321
     15 S1          0.7900   -5.4407    0.1253 S.3       1 <0>        -0.0807
     16 C14        -0.0160   -4.0671    0.9380 C.3       1 <0>        -0.0366
     17 H1          0.5212   -3.8431    1.8597 H         1 <0>         0.0953
     18 C15        -0.0707   -2.8225    0.1043 C.3       1 <0>        -0.1429
     19 C16        -1.4245   -4.4728    1.2882 C.ar      1 <0>        -0.0783
     20 C17        -2.3015   -4.8536    0.2895 C.ar      1 <0>        -0.0841
     21 C18        -3.5934   -5.2254    0.6079 C.ar      1 <0>        -0.1407
     22 C19        -4.0102   -5.2169    1.9310 C.ar      1 <0>         0.1144
     23 C20        -3.1282   -4.8348    2.9313 C.ar      1 <0>        -0.1416
     24 C21        -1.8358   -4.4689    2.6083 C.ar      1 <0>        -0.0828
     25 O1         -5.2807   -5.5818    2.2467 O.3       1 <0>        -0.4990
     26 O2          3.6151   -0.6039   -0.0006 O.3       1 <0>        -0.4704
     27 H2         -0.9606    1.8986   -0.0073 H         1 <0>         0.1291
     28 H3          1.1453    3.1688    0.0080 H         1 <0>         0.1284
     29 H4          3.3041    1.9950    0.0136 H         1 <0>         0.1312
     30 H5         -0.9253   -0.5575   -0.0251 H         1 <0>         0.1334
     31 H6          4.8855   -2.7170   -0.3027 H         1 <0>         0.1378
     32 H7          6.3451   -4.6677   -0.1869 H         1 <0>         0.1315
     33 H8          5.3763   -6.9188    0.1207 H         1 <0>         0.1321
     34 H9          2.9508   -7.1886    0.2703 H         1 <0>         0.1281
     35 H10        -0.7754   -2.1252    0.5574 H         1 <0>         0.1072
     36 H11        -0.4292   -3.0853   -0.8910 H         1 <0>         0.1022
     37 H12        -1.9765   -4.8600   -0.7404 H         1 <0>         0.1311
     38 H13        -4.2783   -5.5221   -0.1727 H         1 <0>         0.1333
     39 H14        -3.4503   -4.8274    3.9621 H         1 <0>         0.1332
     40 H15        -1.1474   -4.1756    3.3871 H         1 <0>         0.1284
     41 H16        -5.3855   -6.5262    2.4263 H         1 <0>         0.3940
     42 H17         3.9562   -0.7971    0.8834 H         1 <0>         0.3847
@<TRIPOS>BOND
     1    1    6 ar
     2    1    2 ar
     3    1   27 1
     4    2    3 ar
     5    2   28 1
     6    3    4 ar
     7    3   29 1
     8    4    5 ar
     9    4   26 1
    10    5    6 ar
    11    5    7 1
    12    6   30 1
    13    7   18 1
    14    7    8 2
    15    8    9 1
    16    9   14 ar
    17    9   10 ar
    18   10   11 ar
    19   10   31 1
    20   11   12 ar
    21   11   32 1
    22   12   13 ar
    23   12   33 1
    24   13   14 ar
    25   13   34 1
    26   14   15 1
    27   15   16 1
    28   16   17 1
    29   16   18 1
    30   16   19 1
    31   18   35 1
    32   18   36 1
    33   19   24 ar
    34   19   20 ar
    35   20   21 ar
    36   20   37 1
    37   21   22 ar
    38   21   38 1
    39   22   23 ar
    40   22   25 1
    41   23   24 ar
    42   23   39 1
    43   24   40 1
    44   25   41 1
    45   26   42 1
@<TRIPOS>MOLECULE
ZINC00640503
   46    48     0     0     0
SMALL
USER_CHARGES

@<TRIPOS>ATOM
      1 C1         -0.0184    1.5028    0.0103 C.3       1 <0>        -0.1250
      2 C2          0.0021   -0.0041    0.0020 C.ar      1 <0>        -0.0282
      3 C3          0.0057   -0.6887   -1.1989 C.ar      1 <0>        -0.1407
      4 C4          0.0245   -2.0709   -1.2065 C.ar      1 <0>         0.0131
      5 C5          0.0400   -2.7685   -0.0132 C.ar      1 <0>        -0.6730
      6 C6          0.0373   -2.0839    1.1877 C.ar      1 <0>        -0.0186
      7 C7          0.0229   -0.7016    1.1953 C.ar      1 <0>        -0.1458
      8 S1          0.0628   -4.5303   -0.0229 S.o2      1 <0>         2.6849
      9 O1         -0.4759   -4.9503    1.2232 O.2       1 <0>        -0.9540
     10 O2         -0.4897   -4.9367   -1.2674 O.2       1 <0>        -0.9482
     11 N1          1.6509   -4.9994   -0.0343 N.pl3     1 <0>        -0.9315
     12 C8          2.3604   -5.2138    1.2294 C.3       1 <0>         0.1657
     13 C9          2.3052   -6.6748    1.5949 C.ar      1 <0>        -0.1172
     14 C10         1.2601   -7.1566    2.3608 C.ar      1 <0>        -0.1004
     15 C11         1.2094   -8.4967    2.6961 C.ar      1 <0>        -0.1240
     16 C12         2.2036   -9.3551    2.2651 C.ar      1 <0>        -0.1133
     17 C13         3.2482   -8.8734    1.4984 C.ar      1 <0>        -0.1271
     18 C14         3.2966   -7.5341    1.1596 C.ar      1 <0>        -0.0981
     19 C15         2.3168   -5.1915   -1.2540 C.ar      1 <0>         0.0498
     20 C16         2.3895   -6.4587   -1.8126 C.ar      1 <0>        -0.0304
     21 C17         3.0459   -6.6489   -3.0139 C.ar      1 <0>        -0.1982
     22 C18         3.6333   -5.5720   -3.6642 C.ar      1 <0>         0.2419
     23 C19         3.5622   -4.3016   -3.1083 C.ar      1 <0>        -0.2195
     24 C20         2.9004   -4.1087   -1.9073 C.ar      1 <0>         0.1599
     25 O3          2.8248   -2.8642   -1.3638 O.3       1 <0>        -0.4888
     26 N2          4.2979   -5.7671   -4.8807 N.pl3     1 <0>        -0.8734
     27 H1          1.0042    1.8801    0.0026 H         1 <0>         0.0783
     28 H2         -0.5455    1.8639   -0.8728 H         1 <0>         0.0718
     29 H3         -0.5286    1.8543    0.9071 H         1 <0>         0.0717
     30 H4         -0.0064   -0.1436   -2.1312 H         1 <0>         0.1289
     31 H5          0.0266   -2.6057   -2.1448 H         1 <0>         0.1332
     32 H6          0.0491   -2.6289    2.1200 H         1 <0>         0.1358
     33 H7          0.0245   -0.1667    2.1335 H         1 <0>         0.1298
     34 H8          3.4002   -4.9059    1.1191 H         1 <0>         0.0892
     35 H9          1.8884   -4.6245    2.0156 H         1 <0>         0.0931
     36 H10         0.4834   -6.4860    2.6975 H         1 <0>         0.1394
     37 H11         0.3933   -8.8730    3.2950 H         1 <0>         0.1231
     38 H12         2.1644  -10.4020    2.5276 H         1 <0>         0.1210
     39 H13         4.0251   -9.5440    1.1620 H         1 <0>         0.1212
     40 H14         4.1107   -7.1585    0.5575 H         1 <0>         0.1204
     41 H15         1.9333   -7.2977   -1.3083 H         1 <0>         0.1301
     42 H16         3.1022   -7.6366   -3.4473 H         1 <0>         0.1285
     43 H17         4.0192   -3.4640   -3.6142 H         1 <0>         0.1313
     44 H18         3.5579   -2.6486   -0.7713 H         1 <0>         0.3909
     45 H19         4.3480   -6.6545   -5.2691 H         1 <0>         0.4018
     46 H20         4.7084   -5.0148   -5.3352 H         1 <0>         0.4004
@<TRIPOS>BOND
     1    1    2 1
     2    1   27 1
     3    1   28 1
     4    1   29 1
     5    2    7 ar
     6    2    3 ar
     7    3    4 ar
     8    3   30 1
     9    4    5 ar
    10    4   31 1
    11    5    6 ar
    12    5    8 1
    13    6    7 ar
    14    6   32 1
    15    7   33 1
    16    8    9 2
    17    8   10 2
    18    8   11 1
    19   11   12 1
    20   11   19 1
    21   12   13 1
    22   12   34 1
    23   12   35 1
    24   13   18 ar
    25   13   14 ar
    26   14   15 ar
    27   14   36 1
    28   15   16 ar
    29   15   37 1
    30   16   17 ar
    31   16   38 1
    32   17   18 ar
    33   17   39 1
    34   18   40 1
    35   19   24 ar
    36   19   20 ar
    37   20   21 ar
    38   20   41 1
    39   21   22 ar
    40   21   42 1
    41   22   23 ar
    42   22   26 1
    43   23   24 ar
    44   23   43 1
    45   24   25 1
    46   25   44 1
    47   26   45 1
    48   26   46 1
@<TRIPOS>MOLECULE
ZINC03872828
   40    43     0     0     0
SMALL
USER_CHARGES
methylBLAHone
@<TRIPOS>ATOM
      1 C1          4.4843    1.0291    2.2134 C.3       1 <0>        -0.1276
      2 C2          3.4250    1.6835    1.3644 C.2       1 <0>        -0.1021
      3 C3          3.6986    2.8233    0.8148 C.2       1 <0>        -0.1581
      4 C4          2.7512    3.5843   -0.0603 C.3       1 <0>        -0.0359
      5 H1          2.7954    4.6440    0.1912 H         1 <0>         0.1172
      6 C5          3.1301    3.3908   -1.5292 C.3       1 <0>        -0.1068
      7 C6          2.8622    1.9710   -1.9600 C.2       1 <0>         0.2384
      8 C7          2.0539    1.1408   -1.2702 C.2       1 <0>        -0.2400
      9 C8          1.8414   -0.1718   -1.7360 C.2       1 <0>        -0.0463
     10 C9          2.4535   -0.5959   -2.8748 C.2       1 <0>        -0.2000
     11 C10         3.2940    0.2925   -3.5674 C.2       1 <0>         0.5178
     12 O1          3.8550   -0.0667   -4.5902 O.2       1 <0>        -0.5151
     13 N1          3.4773    1.5380   -3.1002 N.am      1 <0>        -0.6106
     14 H2          4.0781    2.1631   -3.5986 H         1 <0>         0.4303
     15 C11         1.3516    1.5495   -0.0025 C.3       1 <0>         0.1448
     16 C12         2.1107    0.9788    1.2021 C.3       1 <0>        -0.0967
     17 C13         1.3141    3.0735    0.1231 C.3       1 <0>        -0.0906
     18 H3          0.9171    3.3620    1.0964 H         1 <0>         0.1116
     19 C14         0.4527    3.6657   -0.9973 C.3       1 <0>        -0.1413
     20 C15        -0.9446    3.0448   -0.9569 C.3       1 <0>        -0.1419
     21 C16        -0.8160    1.5258   -1.1030 C.3       1 <0>        -0.0043
     22 H4          5.3739    1.6587    2.2336 H         1 <0>         0.0719
     23 H5          4.1079    0.8993    3.2280 H         1 <0>         0.0733
     24 H6          4.7374    0.0560    1.7925 H         1 <0>         0.0711
     25 H7          4.6724    3.2524    0.9989 H         1 <0>         0.1241
     26 H8          2.5427    4.0713   -2.1456 H         1 <0>         0.1163
     27 H9          4.1890    3.6135   -1.6606 H         1 <0>         0.1079
     28 H10         1.1933   -0.8409   -1.1894 H         1 <0>         0.1292
     29 H11         2.2957   -1.5996   -3.2410 H         1 <0>         0.1622
     30 H12         1.5132    1.1155    2.1035 H         1 <0>         0.0999
     31 H13         2.2881   -0.0853    1.0463 H         1 <0>         0.0996
     32 H14         0.3742    4.7445   -0.8627 H         1 <0>         0.0992
     33 H15         0.9158    3.4540   -1.9611 H         1 <0>         0.0844
     34 H16        -1.4217    3.2810   -0.0057 H         1 <0>         0.0903
     35 H17        -1.5448    3.4426   -1.7751 H         1 <0>         0.1137
     36 H18        -0.3278    1.2905   -2.0487 H         1 <0>         0.1292
     37 H19        -1.8068    1.0721   -1.0799 H         1 <0>         0.1346
     38 N2         -0.0173    0.9940    0.0190 N.4       1 <0>        -0.5123
     39 H20        -0.4700    1.2482    0.9048 H         1 <0>         0.4338
     40 H21         0.0331   -0.0286   -0.0585 H         1 <0>         0.4288
@<TRIPOS>BOND
     1    1    2 1
     2    1   22 1
     3    1   23 1
     4    1   24 1
     5    2   16 1
     6    2    3 2
     7    3    4 1
     8    3   25 1
     9    4    5 1
    10    4   17 1
    11    4    6 1
    12    6    7 1
    13    6   26 1
    14    6   27 1
    15    7   13 1
    16    7    8 2
    17    8    9 1
    18    8   15 1
    19    9   10 2
    20    9   28 1
    21   10   11 1
    22   10   29 1
    23   11   12 2
    24   11   13 am
    25   13   14 1
    26   15   16 1
    27   15   17 1
    28   15   38 1
    29   16   30 1
    30   16   31 1
    31   17   18 1
    32   17   19 1
    33   19   20 1
    34   19   32 1
    35   19   33 1
    36   20   21 1
    37   20   34 1
    38   20   35 1
    39   21   36 1
    40   21   37 1
    41   21   38 1
    42   38   39 1
    43   38   40 1
@<TRIPOS>MOLECULE
ZINC03079337
   21    20     0     0     0
SMALL
USER_CHARGES

@<TRIPOS>ATOM
      1 C1          0.5353    1.3276   -0.0083 C.3       1 <0>        -0.0523
      2 N1          0.0196   -0.0467    0.0486 N.4       1 <0>        -0.2694
      3 C2          0.5077   -0.7028    1.2690 C.3       1 <0>        -0.0445
      4 C3         -1.4491   -0.0184    0.0619 C.3       1 <0>        -0.0461
      5 C4          0.4843   -0.7933   -1.1281 C.3       1 <0>        -0.0051
      6 C5          2.0106   -0.7224   -1.2069 C.3       1 <0>         0.0444
      7 O1          2.5782   -1.4500   -0.1158 O.3       1 <0>        -0.5744
      8 H1          1.6251    1.3065   -0.0182 H         1 <0>         0.1223
      9 H2          0.1731    1.8144   -0.9138 H         1 <0>         0.1210
     10 H3          0.1905    1.8815    0.8648 H         1 <0>         0.1233
     11 H4          0.0233   -0.2590    2.1387 H         1 <0>         0.1126
     12 H5          0.2753   -1.7669    1.2272 H         1 <0>         0.1183
     13 H6          1.5867   -0.5693    1.3464 H         1 <0>         0.1382
     14 H7         -1.8113    0.4684   -0.8436 H         1 <0>         0.1204
     15 H8         -1.8318   -1.0382    0.1042 H         1 <0>         0.1213
     16 H9         -1.7939    0.5355    0.9350 H         1 <0>         0.1225
     17 H10         0.1727   -1.8345   -1.0442 H         1 <0>         0.1353
     18 H11         0.0533   -0.3566   -2.0290 H         1 <0>         0.1398
     19 H12         2.3464   -1.1581   -2.1480 H         1 <0>         0.0943
     20 H13         2.3292    0.3186   -1.1543 H         1 <0>         0.0737
     21 H14         3.5451   -1.4478   -0.1023 H         1 <0>         0.4045
@<TRIPOS>BOND
     1    1    2 1
     2    1    8 1
     3    1    9 1
     4    1   10 1
     5    2    3 1
     6    2    4 1
     7    2    5 1
     8    3   11 1
     9    3   12 1
    10    3   13 1
    11    4   14 1
    12    4   15 1
    13    4   16 1
    14    5    6 1
    15    5   17 1
    16    5   18 1
    17    6    7 1
    18    6   19 1
    19    6   20 1
    20    7   21 1
@<TRIPOS>MOLECULE
ZINC00216961
   26    26     0     0     0
SMALL
USER_CHARGES
3-[(4-hydroxy-4-oxo-butanoyl)amino]benzoic acid
@<TRIPOS>ATOM
      1 C1         -3.4367   -1.0372    0.2882 C.ar      1 <0>        -0.1269
      2 C2         -4.6726   -0.4231    0.2923 C.ar      1 <0>        -0.0972
      3 C3         -4.7613    0.9676    0.2045 C.ar      1 <0>        -0.1008
      4 C4         -3.5971    1.7316    0.1129 C.ar      1 <0>        -0.0848
      5 C5         -2.3611    1.1049    0.1096 C.ar      1 <0>         0.1253
      6 C6         -2.2840   -0.2805    0.1917 C.ar      1 <0>        -0.1531
      7 N1         -1.1906    1.8666    0.0178 N.am      1 <0>        -0.6797
      8 C7         -1.1254    3.0758    0.6095 C.2       1 <0>         0.5019
      9 O1         -2.1069    3.5404    1.1496 O.2       1 <0>        -0.5109
     10 C8          0.1688    3.8479    0.6052 C.3       1 <0>        -0.1125
     11 C9         -0.0260    5.1739    1.3433 C.3       1 <0>        -0.1435
     12 C10         1.2682    5.9460    1.3390 C.2       1 <0>         0.4634
     13 O2          2.2460    5.4832    0.8009 O.co2     1 <0>        -0.6478
     14 C11        -6.0829    1.6278    0.2082 C.2       1 <0>         0.4907
     15 O3         -6.1576    2.8378    0.1314 O.co2     1 <0>        -0.6237
     16 H1         -3.3701   -2.1130    0.3562 H         1 <0>         0.1161
     17 H2         -5.5711   -1.0182    0.3631 H         1 <0>         0.1276
     18 H3         -3.6592    2.8077    0.0451 H         1 <0>         0.1452
     19 H4         -1.3199   -0.7672    0.1841 H         1 <0>         0.1151
     20 H5         -0.4263    1.5243   -0.4715 H         1 <0>         0.4048
     21 H6          0.9418    3.2641    1.1050 H         1 <0>         0.0920
     22 H7          0.4706    4.0455   -0.4233 H         1 <0>         0.0923
     23 H8         -0.7990    5.7577    0.8435 H         1 <0>         0.0736
     24 H9         -0.3278    4.9763    2.3718 H         1 <0>         0.0719
     25 O4          1.3346    7.1479    1.9331 O.co2     1 <0>        -0.7758
     26 O5         -7.2052    0.8880    0.2968 O.co2     1 <0>        -0.7632
@<TRIPOS>BOND
     1    1    6 ar
     2    1    2 ar
     3    1   16 1
     4    2    3 ar
     5    2   17 1
     6    3    4 ar
     7    3   14 1
     8    4    5 ar
     9    4   18 1
    10    5    6 ar
    11    5    7 1
    12    6   19 1
    13    7    8 am
    14    7   20 1
    15    8    9 2
    16    8   10 1
    17   10   11 1
    18   10   21 1
    19   10   22 1
    20   11   12 1
    21   11   23 1
    22   11   24 1
    23   12   13 2
    24   12   25 1
    25   14   15 2
    26   14   26 1
@<TRIPOS>MOLECULE
ZINC00608261
   51    53     0     0     0
SMALL
USER_CHARGES

@<TRIPOS>ATOM
      1 C1         -0.0173    1.4248    0.0099 C.3       1 <0>         0.0173
      2 O1          0.0021   -0.0041    0.0020 O.3       1 <0>        -0.2771
      3 C2          0.6048   -0.6061   -1.0540 C.ar      1 <0>         0.2478
      4 C3          1.1714    0.1577   -2.0595 C.ar      1 <0>        -0.2977
      5 C4          1.7875   -0.4643   -3.1379 C.ar      1 <0>         0.3044
      6 C5          1.8368   -1.8562   -3.2112 C.ar      1 <0>        -0.1595
      7 C6          1.2804   -2.6188   -2.2247 C.ar      1 <0>         0.0118
      8 C7          0.6619   -2.0064   -1.1291 C.ar      1 <0>        -0.2392
      9 C8          0.0677   -2.8282   -0.0619 C.2       1 <0>         0.5777
     10 O2         -0.4739   -2.2937    0.8871 O.2       1 <0>        -0.5150
     11 N1          0.1238   -4.1727   -0.1363 N.am      1 <0>        -0.7348
     12 C9         -0.4675   -4.9905    0.9257 C.3       1 <0>         0.1399
     13 C10        -1.9593   -5.1933    0.6453 C.3       1 <0>        -0.1609
     14 C11        -2.5532   -6.1131    1.7143 C.3       1 <0>        -0.0026
     15 N2         -1.8673   -7.4105    1.6845 N.4       1 <0>        -0.3829
     16 C12        -0.4502   -7.2327    2.0231 C.3       1 <0>        -0.0069
     17 C13         0.2246   -6.3560    0.9660 C.3       1 <0>        -0.1547
     18 C14        -2.4921   -8.3155    2.6585 C.3       1 <0>         0.0441
     19 C15        -1.8711   -9.6837    2.5432 C.ar      1 <0>        -0.1614
     20 C16        -2.4070  -10.6150    1.6735 C.ar      1 <0>        -0.0939
     21 C17        -1.8373  -11.8701    1.5678 C.ar      1 <0>        -0.1130
     22 C18        -0.7314  -12.1937    2.3315 C.ar      1 <0>        -0.0844
     23 C19        -0.1950  -11.2621    3.2005 C.ar      1 <0>        -0.1134
     24 C20        -0.7621  -10.0056    3.3031 C.ar      1 <0>        -0.0981
     25 Cl1         2.6089   -2.6229   -4.5639 Cl        1 <0>        -0.0606
     26 N3          2.3569    0.3038   -4.1485 N.pl3     1 <0>        -0.8497
     27 H1          1.0053    1.8021    0.0021 H         1 <0>         0.0610
     28 H2         -0.5445    1.7859   -0.8732 H         1 <0>         0.0608
     29 H3         -0.5275    1.7763    0.9067 H         1 <0>         0.1075
     30 H4          1.1342    1.2357   -2.0059 H         1 <0>         0.1459
     31 H5          1.3215   -3.6961   -2.2880 H         1 <0>         0.1380
     32 H6          0.5557   -4.5989   -0.8931 H         1 <0>         0.4022
     33 H7         -0.3406   -4.4891    1.8852 H         1 <0>         0.1061
     34 H8         -2.4686   -4.2300    0.6703 H         1 <0>         0.1189
     35 H9         -2.0865   -5.6477   -0.3373 H         1 <0>         0.0900
     36 H10        -2.4257   -5.6578    2.6964 H         1 <0>         0.1327
     37 H11        -3.6153   -6.2595    1.5178 H         1 <0>         0.1342
     38 H12        -0.3676   -6.7535    2.9986 H         1 <0>         0.1323
     39 H13         0.0402   -8.2056    2.0545 H         1 <0>         0.1361
     40 H14         0.1427   -6.8345   -0.0100 H         1 <0>         0.0932
     41 H15         1.2762   -6.2237    1.2201 H         1 <0>         0.1193
     42 H16        -2.3359   -7.9292    3.6657 H         1 <0>         0.1362
     43 H17        -3.5613   -8.3837    2.4573 H         1 <0>         0.1377
     44 H18        -3.2710  -10.3622    1.0769 H         1 <0>         0.1311
     45 H19        -2.2565  -12.5979    0.8888 H         1 <0>         0.1360
     46 H20        -0.2868  -13.1745    2.2494 H         1 <0>         0.1357
     47 H21         0.6688  -11.5151    3.7974 H         1 <0>         0.1361
     48 H22        -0.3407   -9.2765    3.9793 H         1 <0>         0.1314
     49 H23         2.3233    1.2719   -4.0992 H         1 <0>         0.4092
     50 H24         2.7876   -0.1289   -4.9023 H         1 <0>         0.4090
     51 H25        -1.9439   -7.8092    0.7608 H         1 <0>         0.4219
@<TRIPOS>BOND
     1    1    2 1
     2    1   27 1
     3    1   28 1
     4    1   29 1
     5    2    3 1
     6    3    8 ar
     7    3    4 ar
     8    4    5 ar
     9    4   30 1
    10    5    6 ar
    11    5   26 1
    12    6    7 ar
    13    6   25 1
    14    7    8 ar
    15    7   31 1
    16    8    9 1
    17    9   10 2
    18    9   11 am
    19   11   12 1
    20   11   32 1
    21   12   17 1
    22   12   13 1
    23   12   33 1
    24   13   14 1
    25   13   34 1
    26   13   35 1
    27   14   15 1
    28   14   36 1
    29   14   37 1
    30   15   16 1
    31   15   18 1
    32   15   51 1
    33   16   17 1
    34   16   38 1
    35   16   39 1
    36   17   40 1
    37   17   41 1
    38   18   19 1
    39   18   42 1
    40   18   43 1
    41   19   24 ar
    42   19   20 ar
    43   20   21 ar
    44   20   44 1
    45   21   22 ar
    46   21   45 1
    47   22   23 ar
    48   22   46 1
    49   23   24 ar
    50   23   47 1
    51   24   48 1
    52   26   49 1
    53   26   50 1
@<TRIPOS>MOLECULE
ZINC33971762
   41    43     0     0     0
SMALL
USER_CHARGES

@<TRIPOS>ATOM
      1 C1         -0.1882    1.7290    0.1955 C.3       1 <0>        -0.1309
      2 C2         -0.0702    0.2073    0.0878 C.3       1 <0>        -0.0259
      3 C3          0.7161   -0.2302   -1.1676 C.3       1 <0>        -0.1094
      4 C4          2.1268   -0.5350   -0.6041 C.3       1 <0>         0.0405
      5 N1          1.8390   -1.1603    0.7115 N.3       1 <0>        -0.5322
      6 C5          0.6980   -0.4088    1.2788 C.3       1 <0>         0.2994
      7 H1          1.0394    0.3565    1.9759 H         1 <0>         0.0776
      8 N2         -0.2494   -1.3390    1.8987 N.pl3     1 <0>        -0.6082
      9 C6         -1.4512   -1.3519    1.1851 C.ar      1 <0>         0.2180
     10 C7         -1.4185   -0.4740    0.1132 C.ar      1 <0>        -0.1472
     11 C8         -2.5141   -0.3423   -0.7184 C.ar      1 <0>        -0.0389
     12 C9         -3.6592   -1.0890   -0.4850 C.ar      1 <0>         0.0429
     13 C10        -3.7001   -1.9683    0.5867 C.ar      1 <0>        -0.0563
     14 C11        -2.6072   -2.1000    1.4164 C.ar      1 <0>        -0.1688
     15 O1         -4.7376   -0.9593   -1.3035 O.3       1 <0>        -0.2261
     16 C12        -4.6383   -1.4352   -2.5634 C.2       1 <0>         0.4996
     17 N3         -3.5806   -2.0956   -2.9265 N.2       1 <0>        -0.6269
     18 C13        -3.4728   -2.6119   -4.2933 C.3       1 <0>         0.0245
     19 O2         -5.6388   -1.2245   -3.4457 O.3       1 <0>        -0.4978
     20 C14         0.0235   -2.1399    3.0947 C.3       1 <0>         0.1095
     21 C15         3.0095   -1.0875    1.5963 C.3       1 <0>         0.0155
     22 H2          0.8083    2.1700    0.2180 H         1 <0>         0.0606
     23 H3         -0.7361    2.1127   -0.6652 H         1 <0>         0.0678
     24 H4         -0.7211    1.9882    1.1104 H         1 <0>         0.0624
     25 H5          0.2747   -1.1248   -1.6069 H         1 <0>         0.0841
     26 H6          0.7587    0.5784   -1.8973 H         1 <0>         0.0791
     27 H7          2.6581   -1.2312   -1.2530 H         1 <0>         0.0875
     28 H8          2.6971    0.3850   -0.4763 H         1 <0>         0.0502
     29 H9         -2.4788    0.3438   -1.5516 H         1 <0>         0.1225
     30 H10        -4.5905   -2.5508    0.7720 H         1 <0>         0.1326
     31 H11        -2.6452   -2.7858    2.2498 H         1 <0>         0.1268
     32 H12        -4.2937   -3.3025   -4.4866 H         1 <0>         0.0494
     33 H13        -3.5212   -1.7831   -4.9996 H         1 <0>         0.0495
     34 H14        -2.5234   -3.1342   -4.4105 H         1 <0>         0.0898
     35 H15        -5.4773   -1.6022   -4.3211 H         1 <0>         0.4199
     36 H16        -0.2683   -1.5785    3.9823 H         1 <0>         0.0491
     37 H17        -0.5461   -3.0680    3.0482 H         1 <0>         0.0679
     38 H18         1.0881   -2.3690    3.1434 H         1 <0>         0.0697
     39 H19         3.2777   -0.0435    1.7587 H         1 <0>         0.0309
     40 H20         2.7720   -1.5546    2.5521 H         1 <0>         0.0681
     41 H21         3.8471   -1.6102    1.1345 H         1 <0>         0.0733
@<TRIPOS>BOND
     1    1    2 1
     2    1   22 1
     3    1   23 1
     4    1   24 1
     5    2    6 1
     6    2   10 1
     7    2    3 1
     8    3    4 1
     9    3   25 1
    10    3   26 1
    11    4    5 1
    12    4   27 1
    13    4   28 1
    14    5    6 1
    15    5   21 1
    16    6    7 1
    17    6    8 1
    18    8    9 1
    19    8   20 1
    20    9   14 ar
    21    9   10 ar
    22   10   11 ar
    23   11   12 ar
    24   11   29 1
    25   12   13 ar
    26   12   15 1
    27   13   14 ar
    28   13   30 1
    29   14   31 1
    30   15   16 1
    31   16   17 2
    32   16   19 1
    33   17   18 1
    34   18   32 1
    35   18   33 1
    36   18   34 1
    37   19   35 1
    38   20   36 1
    39   20   37 1
    40   20   38 1
    41   21   39 1
    42   21   40 1
    43   21   41 1
@<TRIPOS>MOLECULE
ZINC33971762
   42    44     0     0     0
SMALL
USER_CHARGES

@<TRIPOS>ATOM
      1 C1         -0.1882    1.7290    0.1955 C.3       1 <0>        -0.1392
      2 C2         -0.0702    0.2073    0.0878 C.3       1 <0>        -0.0229
      3 C3          0.7161   -0.2302   -1.1676 C.3       1 <0>        -0.1344
      4 C4          2.1268   -0.5350   -0.6041 C.3       1 <0>        -0.0013
      5 N1          1.8390   -1.1603    0.7115 N.4       1 <0>        -0.4135
      6 C5          0.6980   -0.4088    1.2788 C.3       1 <0>         0.2646
      7 H1          1.0394    0.3565    1.9759 H         1 <0>         0.1606
      8 N2         -0.2494   -1.3390    1.8987 N.pl3     1 <0>        -0.6268
      9 C6         -1.4512   -1.3519    1.1851 C.ar      1 <0>         0.1765
     10 C7         -1.4185   -0.4740    0.1132 C.ar      1 <0>        -0.1459
     11 C8         -2.5141   -0.3423   -0.7184 C.ar      1 <0>        -0.0416
     12 C9         -3.6592   -1.0890   -0.4850 C.ar      1 <0>         0.0843
     13 C10        -3.7001   -1.9683    0.5867 C.ar      1 <0>        -0.0559
     14 C11        -2.6072   -2.1000    1.4164 C.ar      1 <0>        -0.1358
     15 O1         -4.7376   -0.9593   -1.3035 O.3       1 <0>        -0.2266
     16 C12        -4.6383   -1.4352   -2.5634 C.2       1 <0>         0.5068
     17 N3         -3.5806   -2.0956   -2.9265 N.2       1 <0>        -0.6345
     18 C13        -3.4728   -2.6119   -4.2933 C.3       1 <0>         0.0224
     19 O2         -5.6388   -1.2245   -3.4457 O.3       1 <0>        -0.4909
     20 C14         0.0238   -2.1405    3.0942 C.3       1 <0>         0.0905
     21 C15         3.0087   -1.0454    1.5928 C.3       1 <0>        -0.0450
     22 H2          0.8083    2.1700    0.2180 H         1 <0>         0.0725
     23 H3         -0.7361    2.1127   -0.6652 H         1 <0>         0.0852
     24 H4         -0.7211    1.9882    1.1104 H         1 <0>         0.0759
     25 H5          0.2747   -1.1248   -1.6069 H         1 <0>         0.1057
     26 H6          0.7587    0.5784   -1.8973 H         1 <0>         0.1233
     27 H7          2.6581   -1.2312   -1.2530 H         1 <0>         0.1390
     28 H8          2.6971    0.3850   -0.4763 H         1 <0>         0.1379
     29 H9         -2.4788    0.3438   -1.5516 H         1 <0>         0.1344
     30 H10        -4.5905   -2.5508    0.7720 H         1 <0>         0.1460
     31 H11        -2.6452   -2.7858    2.2498 H         1 <0>         0.1374
     32 H12        -3.5212   -1.7831   -4.9996 H         1 <0>         0.0540
     33 H13        -2.5234   -3.1342   -4.4105 H         1 <0>         0.0911
     34 H14        -4.2937   -3.3025   -4.4866 H         1 <0>         0.0548
     35 H15        -5.4773   -1.6022   -4.3211 H         1 <0>         0.4255
     36 H16        -0.2674   -1.5795    3.9822 H         1 <0>         0.0730
     37 H17        -0.5461   -3.0685    3.0476 H         1 <0>         0.0899
     38 H18         1.0883   -2.3700    3.1423 H         1 <0>         0.0704
     39 H19         3.2642    0.0063    1.7221 H         1 <0>         0.1241
     40 H20         2.7772   -1.4850    2.5630 H         1 <0>         0.1183
     41 H21         3.8525   -1.5722    1.1472 H         1 <0>         0.1259
     42 H22         1.5894   -2.1301    0.5881 H         1 <0>         0.4242
@<TRIPOS>BOND
     1    1    2 1
     2    1   22 1
     3    1   23 1
     4    1   24 1
     5    2    6 1
     6    2   10 1
     7    2    3 1
     8    3    4 1
     9    3   25 1
    10    3   26 1
    11    4    5 1
    12    4   27 1
    13    4   28 1
    14    5    6 1
    15    5   21 1
    16    5   42 1
    17    6    7 1
    18    6    8 1
    19    8    9 1
    20    8   20 1
    21    9   14 ar
    22    9   10 ar
    23   10   11 ar
    24   11   12 ar
    25   11   29 1
    26   12   13 ar
    27   12   15 1
    28   13   14 ar
    29   13   30 1
    30   14   31 1
    31   15   16 1
    32   16   17 2
    33   16   19 1
    34   17   18 1
    35   18   32 1
    36   18   33 1
    37   18   34 1
    38   19   35 1
    39   20   36 1
    40   20   37 1
    41   20   38 1
    42   21   39 1
    43   21   40 1
    44   21   41 1
@<TRIPOS>MOLECULE
ZINC00622264
   65    68     0     0     0
SMALL
USER_CHARGES

@<TRIPOS>ATOM
      1 C1         -0.0325    0.9961   -0.3223 C.3       1 <0>        -0.1897
      2 C2         -0.0791   -0.5278   -0.1935 C.3       1 <0>        -0.0231
      3 N1          0.6441   -0.9392    1.0171 N.4       1 <0>        -0.2653
      4 C3          0.5993   -2.4023    1.1408 C.3       1 <0>        -0.0579
      5 C4          2.0423   -0.4981    0.9260 C.3       1 <0>        -0.0144
      6 C5          2.6988   -1.1339   -0.3010 C.3       1 <0>        -0.1908
      7 C6          0.0137   -0.3288    2.1953 C.3       1 <0>        -0.0080
      8 C7         -1.4425   -0.7883    2.2902 C.3       1 <0>        -0.1738
      9 C8         -2.0990   -0.1525    3.5172 C.3       1 <0>         0.0378
     10 N2         -3.5201   -0.5071    3.5496 N.ar      1 <0>        -0.3467
     11 C9         -4.3856    0.2692    2.8794 C.ar      1 <0>         0.1264
     12 C10        -3.9240    1.3889    2.1703 C.ar      1 <0>        -0.2389
     13 C11        -4.8196    2.1825    1.4830 C.ar      1 <0>         0.2703
     14 C12        -6.1839    1.8832    1.4857 C.ar      1 <0>        -0.1433
     15 C13        -6.6541    0.7997    2.1682 C.ar      1 <0>        -0.0367
     16 C14        -5.7700   -0.0206    2.8717 C.ar      1 <0>        -0.0682
     17 C15        -6.2485   -1.1919    3.6139 C.ar      1 <0>        -0.0155
     18 C16        -7.5957   -1.5478    3.6572 C.ar      1 <0>        -0.0735
     19 C17        -7.9826   -2.6497    4.3645 C.ar      1 <0>        -0.1022
     20 C18        -7.0437   -3.4262    5.0465 C.ar      1 <0>         0.2369
     21 C19        -5.7017   -3.0940    5.0195 C.ar      1 <0>        -0.1624
     22 C20        -5.2885   -1.9710    4.3009 C.ar      1 <0>        -0.0610
     23 C21        -3.8813   -1.5712    4.2285 C.ar      1 <0>         0.3298
     24 C22        -2.8553   -2.3730    4.9331 C.ar      1 <0>        -0.1302
     25 C23        -2.6758   -3.7187    4.6119 C.ar      1 <0>        -0.0721
     26 C24        -1.7180   -4.4607    5.2721 C.ar      1 <0>        -0.1096
     27 C25        -0.9369   -3.8729    6.2511 C.ar      1 <0>        -0.0720
     28 C26        -1.1101   -2.5388    6.5742 C.ar      1 <0>        -0.1068
     29 C27        -2.0603   -1.7846    5.9169 C.ar      1 <0>        -0.0935
     30 N3         -7.4640   -4.5489    5.7631 N.pl3     1 <0>        -0.8547
     31 N4         -4.3576    3.2956    0.7785 N.pl3     1 <0>        -0.8528
     32 H1          1.0050    1.3234   -0.3899 H         1 <0>         0.0870
     33 H2         -0.5691    1.3014   -1.2206 H         1 <0>         0.1083
     34 H3         -0.5002    1.4490    0.5519 H         1 <0>         0.0751
     35 H4         -1.1166   -0.8551   -0.1259 H         1 <0>         0.1254
     36 H5          0.3886   -0.9807   -1.0677 H         1 <0>         0.1373
     37 H6          1.0670   -2.8553    0.2666 H         1 <0>         0.1311
     38 H7          1.1359   -2.7076    2.0391 H         1 <0>         0.1262
     39 H8         -0.4382   -2.7297    1.2084 H         1 <0>         0.1187
     40 H9          2.0755    0.5876    0.8343 H         1 <0>         0.1322
     41 H10         2.5789   -0.8034    1.8244 H         1 <0>         0.1313
     42 H11         3.7362   -0.8065   -0.3686 H         1 <0>         0.1100
     43 H12         2.6656   -2.2195   -0.2093 H         1 <0>         0.0832
     44 H13         2.1622   -0.8286   -1.1993 H         1 <0>         0.0820
     45 H14         0.5503   -0.6341    3.0936 H         1 <0>         0.1382
     46 H15         0.0469    0.7568    2.1036 H         1 <0>         0.1380
     47 H16        -1.9791   -0.4830    1.3919 H         1 <0>         0.1072
     48 H17        -1.4757   -1.8739    2.3819 H         1 <0>         0.1060
     49 H18        -1.6123   -0.5194    4.4208 H         1 <0>         0.1400
     50 H19        -1.9962    0.9313    3.4637 H         1 <0>         0.1336
     51 H20        -2.8711    1.6289    2.1628 H         1 <0>         0.1391
     52 H21        -6.8720    2.5147    0.9434 H         1 <0>         0.1512
     53 H22        -7.7107    0.5763    2.1644 H         1 <0>         0.1562
     54 H23        -8.3305   -0.9541    3.1337 H         1 <0>         0.1538
     55 H24        -9.0268   -2.9237    4.3971 H         1 <0>         0.1517
     56 H25        -4.9799   -3.6981    5.5492 H         1 <0>         0.1461
     57 H26        -3.2854   -4.1788    3.8483 H         1 <0>         0.1391
     58 H27        -1.5781   -5.5025    5.0244 H         1 <0>         0.1450
     59 H28        -0.1890   -4.4580    6.7656 H         1 <0>         0.1433
     60 H29        -0.4973   -2.0857    7.3394 H         1 <0>         0.1450
     61 H30        -2.1913   -0.7421    6.1666 H         1 <0>         0.1355
     62 H31        -8.4043   -4.7859    5.7854 H         1 <0>         0.4133
     63 H32        -6.8156   -5.0915    6.2386 H         1 <0>         0.4100
     64 H33        -3.4111    3.5080    0.7738 H         1 <0>         0.4062
     65 H34        -4.9830    3.8567    0.2938 H         1 <0>         0.4157
@<TRIPOS>BOND
     1    1    2 1
     2    1   32 1
     3    1   33 1
     4    1   34 1
     5    2    3 1
     6    2   35 1
     7    2   36 1
     8    3    4 1
     9    3    5 1
    10    3    7 1
    11    4   37 1
    12    4   38 1
    13    4   39 1
    14    5    6 1
    15    5   40 1
    16    5   41 1
    17    6   42 1
    18    6   43 1
    19    6   44 1
    20    7    8 1
    21    7   45 1
    22    7   46 1
    23    8    9 1
    24    8   47 1
    25    8   48 1
    26    9   10 1
    27    9   49 1
    28    9   50 1
    29   10   23 ar
    30   10   11 ar
    31   11   16 ar
    32   11   12 ar
    33   12   13 ar
    34   12   51 1
    35   13   14 ar
    36   13   31 1
    37   14   15 ar
    38   14   52 1
    39   15   16 ar
    40   15   53 1
    41   16   17 ar
    42   17   22 ar
    43   17   18 ar
    44   18   19 ar
    45   18   54 1
    46   19   20 ar
    47   19   55 1
    48   20   21 ar
    49   20   30 1
    50   21   22 ar
    51   21   56 1
    52   22   23 ar
    53   23   24 1
    54   24   29 ar
    55   24   25 ar
    56   25   26 ar
    57   25   57 1
    58   26   27 ar
    59   26   58 1
    60   27   28 ar
    61   27   59 1
    62   28   29 ar
    63   28   60 1
    64   29   61 1
    65   30   62 1
    66   30   63 1
    67   31   64 1
    68   31   65 1
@<TRIPOS>MOLECULE
ZINC01682433
   21    20     0     0     0
SMALL
USER_CHARGES
allyl-trimethyl-ammonium
@<TRIPOS>ATOM
      1 C1         -3.5583    2.8065    1.0480 C.3       1 <0>        -0.0481
      2 N1         -3.2724    1.3699    1.1596 N.4       1 <0>        -0.2700
      3 C2         -4.5345    0.6182    1.1615 C.3       1 <0>        -0.0455
      4 C3         -2.5462    1.1108    2.4100 C.3       1 <0>        -0.0454
      5 C4         -2.4506    0.9442    0.0188 C.3       1 <0>         0.0295
      6 C5         -1.1558    1.7153    0.0169 C.2       1 <0>        -0.2351
      7 C6         -0.0126    1.0758    0.0080 C.2       1 <0>        -0.1061
      8 H1         -4.0971    2.9988    0.1202 H         1 <0>         0.1212
      9 H2         -4.1680    3.1224    1.8945 H         1 <0>         0.1214
     10 H3         -2.6218    3.3643    1.0466 H         1 <0>         0.1222
     11 H4         -4.3224   -0.4477    1.2442 H         1 <0>         0.1210
     12 H5         -5.1443    0.9341    2.0079 H         1 <0>         0.1229
     13 H6         -5.0733    0.8105    0.2337 H         1 <0>         0.1215
     14 H7         -1.6097    1.6686    2.4086 H         1 <0>         0.1217
     15 H8         -3.1560    1.4267    3.2564 H         1 <0>         0.1212
     16 H9         -2.3341    0.0448    2.4927 H         1 <0>         0.1195
     17 H10        -2.9894    1.1364   -0.9090 H         1 <0>         0.1327
     18 H11        -2.2385   -0.1218    0.1016 H         1 <0>         0.1278
     19 H12        -1.1705    2.7952    0.0228 H         1 <0>         0.1334
     20 H13         0.0021   -0.0041    0.0020 H         1 <0>         0.1112
     21 H14         0.9153    1.6285    0.0021 H         1 <0>         0.1229
@<TRIPOS>BOND
     1    1    2 1
     2    1    8 1
     3    1    9 1
     4    1   10 1
     5    2    3 1
     6    2    4 1
     7    2    5 1
     8    3   11 1
     9    3   12 1
    10    3   13 1
    11    4   14 1
    12    4   15 1
    13    4   16 1
    14    5    6 1
    15    5   17 1
    16    5   18 1
    17    6    7 2
    18    6   19 1
    19    7   20 1
    20    7   21 1
@<TRIPOS>MOLECULE
ZINC01039448
   48    51     0     0     0
SMALL
USER_CHARGES
3-[1-[3,5-bis(trifluoromethyl)phenyl]sulfonyl-3-methyl-pyrazol-4-yl]-N-phenyl-1,2,4-thiadiazol-5-amine
@<TRIPOS>ATOM
      1 C1         -8.4482    0.8802   -0.4547 C.3       1 <0>        -0.0861
      2 C2         -8.4250    2.3870   -0.4373 C.2       1 <0>         0.1563
      3 C3         -7.2758    3.1954   -0.3372 C.2       1 <0>        -0.1357
      4 C4         -7.6849    4.4969   -0.3629 C.2       1 <0>         0.1307
      5 N1         -9.0288    4.5000   -0.4681 N.pl3     1 <0>        -0.7398
      6 N2         -9.4678    3.1711   -0.5090 N.2       1 <0>        -0.2500
      7 S1         -9.9941    5.8438   -0.5367 S.o2      1 <0>         2.7003
      8 O1        -11.2810    5.4428   -0.0870 O.2       1 <0>        -0.8919
      9 O2         -9.2666    6.8982    0.0783 O.2       1 <0>        -0.9076
     10 C5        -10.1664    6.2753   -2.2363 C.ar      1 <0>        -0.6855
     11 C6         -9.2691    7.1486   -2.8221 C.ar      1 <0>         0.0633
     12 C7         -9.4020    7.4841   -4.1565 C.ar      1 <0>        -0.2021
     13 C8        -10.4370    6.9527   -4.9031 C.ar      1 <0>         0.0389
     14 C9        -11.3374    6.0836   -4.3159 C.ar      1 <0>        -0.2014
     15 C10       -11.2022    5.7451   -2.9825 C.ar      1 <0>         0.0709
     16 C11       -12.4660    5.5047   -5.1296 C.3       1 <0>         0.5150
     17 F1        -13.5810    6.3454   -5.0449 F         1 <0>        -0.1660
     18 F2        -12.0674    5.3919   -6.4659 F         1 <0>        -0.1686
     19 F3        -12.7974    4.2393   -4.6335 F         1 <0>        -0.1662
     20 C12        -8.4207    8.4320   -4.7965 C.3       1 <0>         0.5152
     21 F4         -8.7615    8.6189   -6.1404 F         1 <0>        -0.1687
     22 F5         -8.4581    9.6617   -4.1305 F         1 <0>        -0.1658
     23 F6         -7.1314    7.8953   -4.7127 F         1 <0>        -0.1674
     24 C13        -5.8744    2.7183   -0.2298 C.2       1 <0>         0.3724
     25 N3         -4.8815    3.5831   -0.1474 N.2       1 <0>        -0.5832
     26 C14        -3.6437    3.1215   -0.0532 C.2       1 <0>         0.3557
     27 S2         -3.9038    1.4068   -0.0907 S.3       1 <0>         0.1890
     28 N4         -5.6108    1.4261   -0.2164 N.2       1 <0>        -0.4628
     29 N5         -2.4546    3.8229    0.0437 N.pl3     1 <0>        -0.5979
     30 C15        -1.2557    3.1389    0.2637 C.ar      1 <0>         0.1442
     31 C16        -1.2449    1.9829    1.0339 C.ar      1 <0>        -0.1528
     32 C17        -0.0578    1.3122    1.2532 C.ar      1 <0>        -0.0820
     33 C18         1.1177    1.7846    0.6987 C.ar      1 <0>        -0.1285
     34 C19         1.1098    2.9325   -0.0725 C.ar      1 <0>        -0.0880
     35 C20        -0.0730    3.6107   -0.2918 C.ar      1 <0>        -0.1351
     36 H1         -8.5355    0.5064    0.5655 H         1 <0>         0.0912
     37 H2         -9.2999    0.5367   -1.0417 H         1 <0>         0.0831
     38 H3         -7.5258    0.5078   -0.9004 H         1 <0>         0.1014
     39 H4         -7.0474    5.3670   -0.3085 H         1 <0>         0.2098
     40 H5         -8.4624    7.5664   -2.2380 H         1 <0>         0.1667
     41 H6        -10.5424    7.2169   -5.9449 H         1 <0>         0.1671
     42 H7        -11.9057    5.0660   -2.5238 H         1 <0>         0.1712
     43 H8         -2.4533    4.7892   -0.0410 H         1 <0>         0.4290
     44 H9         -2.1633    1.6109    1.4634 H         1 <0>         0.1313
     45 H10        -0.0482    0.4152    1.8547 H         1 <0>         0.1338
     46 H11         2.0440    1.2557    0.8681 H         1 <0>         0.1303
     47 H12         2.0296    3.2987   -0.5040 H         1 <0>         0.1333
     48 H13        -0.0787    4.5067   -0.8947 H         1 <0>         0.1323
@<TRIPOS>BOND
     1    1    2 1
     2    1   36 1
     3    1   37 1
     4    1   38 1
     5    2    6 2
     6    2    3 1
     7    3    4 2
     8    3   24 1
     9    4    5 1
    10    4   39 1
    11    5    6 1
    12    5    7 1
    13    7    8 2
    14    7    9 2
    15    7   10 1
    16   10   15 ar
    17   10   11 ar
    18   11   12 ar
    19   11   40 1
    20   12   13 ar
    21   12   20 1
    22   13   14 ar
    23   13   41 1
    24   14   15 ar
    25   14   16 1
    26   15   42 1
    27   16   17 1
    28   16   18 1
    29   16   19 1
    30   20   21 1
    31   20   22 1
    32   20   23 1
    33   24   28 2
    34   24   25 1
    35   25   26 2
    36   26   27 1
    37   26   29 1
    38   27   28 1
    39   29   30 1
    40   29   43 1
    41   30   35 ar
    42   30   31 ar
    43   31   32 ar
    44   31   44 1
    45   32   33 ar
    46   32   45 1
    47   33   34 ar
    48   33   46 1
    49   34   35 ar
    50   34   47 1
    51   35   48 1
@<TRIPOS>MOLECULE
ZINC02154611
   57    59     0     0     0
SMALL
USER_CHARGES
3-(2-aminophenyl)sulfanyl-1-(4-isobutylphenyl)-3-(3-nitrophenyl)-propan-1-one
@<TRIPOS>ATOM
      1 C1         -5.3761    9.2291    5.2440 C.3       1 <0>        -0.1527
      2 C2         -4.5586   10.5129    5.4002 C.3       1 <0>        -0.0908
      3 C3         -5.1613   11.3687    6.5161 C.3       1 <0>        -0.1493
      4 C4         -3.1132   10.1573    5.7542 C.3       1 <0>        -0.0852
      5 C5         -2.4808    9.4196    4.6023 C.ar      1 <0>        -0.0424
      6 C6         -1.8214   10.1259    3.6115 C.ar      1 <0>        -0.1299
      7 C7         -1.2401    9.4582    2.5543 C.ar      1 <0>        -0.0544
      8 C8         -1.3183    8.0636    2.4850 C.ar      1 <0>        -0.1744
      9 C9         -1.9909    7.3575    3.4874 C.ar      1 <0>        -0.0731
     10 C10        -2.5620    8.0393    4.5411 C.ar      1 <0>        -0.1285
     11 C11        -0.7011    7.3433    1.3598 C.2       1 <0>         0.3892
     12 O1         -0.1229    7.9590    0.4898 O.2       1 <0>        -0.4228
     13 C12        -0.7876    5.8404    1.2890 C.3       1 <0>        -0.1362
     14 C13        -0.0705    5.3471    0.0307 C.3       1 <0>        -0.0276
     15 H1          0.9521    5.7243    0.0237 H         1 <0>         0.1142
     16 C14        -0.0501    3.8402    0.0223 C.ar      1 <0>        -0.0866
     17 C15        -1.2379    3.1327    0.0294 C.ar      1 <0>        -0.0460
     18 C16        -1.2192    1.7508    0.0173 C.ar      1 <0>        -0.1108
     19 C17        -0.0126    1.0758    0.0080 C.ar      1 <0>        -0.0497
     20 C18         1.1749    1.7831    0.0004 C.ar      1 <0>        -0.0380
     21 C19         1.1561    3.1655    0.0081 C.ar      1 <0>        -0.0477
     22 N1          2.4666    1.0605   -0.0154 N.pl3     1 <0>         0.0272
     23 O2          2.4831   -0.1573   -0.0217 O.2       1 <0>        -0.1544
     24 O3          3.5130    1.6838   -0.0220 O.3       1 <0>        -0.1566
     25 S1         -0.9468    5.9480   -1.4396 S.3       1 <0>        -0.0874
     26 C20         0.0692    5.4301   -2.7827 C.ar      1 <0>        -0.1622
     27 C21         1.2405    4.7278   -2.5387 C.ar      1 <0>        -0.0932
     28 C22         2.0357    4.3220   -3.5943 C.ar      1 <0>        -0.1594
     29 C23         1.6673    4.6136   -4.8947 C.ar      1 <0>        -0.0707
     30 C24         0.5013    5.3128   -5.1473 C.ar      1 <0>        -0.1827
     31 C25        -0.3047    5.7200   -4.0953 C.ar      1 <0>         0.2391
     32 N2         -1.4881    6.4237   -4.3491 N.pl3     1 <0>        -0.8714
     33 H2         -4.9467    8.6194    4.4490 H         1 <0>         0.0582
     34 H3         -5.3581    8.6708    6.1800 H         1 <0>         0.0552
     35 H4         -6.4058    9.4824    4.9917 H         1 <0>         0.0551
     36 H5         -4.5765   11.0712    4.4642 H         1 <0>         0.0716
     37 H6         -4.5789   12.2833    6.6274 H         1 <0>         0.0557
     38 H7         -6.1910   11.6220    6.2638 H         1 <0>         0.0572
     39 H8         -5.1434   10.8104    7.4521 H         1 <0>         0.0561
     40 H9         -3.1018    9.5241    6.6414 H         1 <0>         0.0769
     41 H10        -2.5525   11.0707    5.9525 H         1 <0>         0.0768
     42 H11        -1.7616   11.2029    3.6666 H         1 <0>         0.1291
     43 H12        -0.7256   10.0108    1.7821 H         1 <0>         0.1344
     44 H13        -2.0593    6.2808    3.4385 H         1 <0>         0.1296
     45 H14        -3.0777    7.4951    5.3185 H         1 <0>         0.1292
     46 H15        -1.7478    5.5630    1.2559 H         1 <0>         0.1010
     47 H16        -0.3144    5.4073    2.1702 H         1 <0>         0.1205
     48 H17        -2.1804    3.6599    0.0410 H         1 <0>         0.1475
     49 H18        -2.1470    1.1981    0.0188 H         1 <0>         0.1523
     50 H19         0.0021   -0.0041    0.0020 H         1 <0>         0.1563
     51 H20         2.0840    3.7182    0.0025 H         1 <0>         0.1548
     52 H21         1.5312    4.4983   -1.5242 H         1 <0>         0.1227
     53 H22         2.9472    3.7754   -3.4026 H         1 <0>         0.1220
     54 H23         2.2920    4.2940   -5.7157 H         1 <0>         0.1253
     55 H24         0.2168    5.5388   -6.1644 H         1 <0>         0.1262
     56 H25        -2.0494    6.7105   -3.6118 H         1 <0>         0.3991
     57 H26        -1.7467    6.6245   -5.2622 H         1 <0>         0.4013
@<TRIPOS>BOND
     1    1    2 1
     2    1   33 1
     3    1   34 1
     4    1   35 1
     5    2    3 1
     6    2    4 1
     7    2   36 1
     8    3   37 1
     9    3   38 1
    10    3   39 1
    11    4    5 1
    12    4   40 1
    13    4   41 1
    14    5   10 ar
    15    5    6 ar
    16    6    7 ar
    17    6   42 1
    18    7    8 ar
    19    7   43 1
    20    8    9 ar
    21    8   11 1
    22    9   10 ar
    23    9   44 1
    24   10   45 1
    25   11   12 2
    26   11   13 1
    27   13   14 1
    28   13   46 1
    29   13   47 1
    30   14   15 1
    31   14   16 1
    32   14   25 1
    33   16   21 ar
    34   16   17 ar
    35   17   18 ar
    36   17   48 1
    37   18   19 ar
    38   18   49 1
    39   19   20 ar
    40   19   50 1
    41   20   21 ar
    42   20   22 1
    43   21   51 1
    44   22   23 2
    45   22   24 1
    46   25   26 1
    47   26   31 ar
    48   26   27 ar
    49   27   28 ar
    50   27   52 1
    51   28   29 ar
    52   28   53 1
    53   29   30 ar
    54   29   54 1
    55   30   31 ar
    56   30   55 1
    57   31   32 1
    58   32   56 1
    59   32   57 1
@<TRIPOS>MOLECULE
ZINC02154614
   57    59     0     0     0
SMALL
USER_CHARGES
3-(2-aminophenyl)sulfanyl-1-(4-isobutylphenyl)-3-(3-nitrophenyl)-propan-1-one
@<TRIPOS>ATOM
      1 C1          2.4656    3.7134    2.1248 C.3       1 <0>        -0.1528
      2 C2          1.1442    4.0958    1.4550 C.3       1 <0>        -0.0909
      3 C3          0.9886    5.6179    1.4659 C.3       1 <0>        -0.1492
      4 C4          1.1407    3.5932    0.0099 C.3       1 <0>        -0.0850
      5 C5          1.1703    2.0865    0.0021 C.ar      1 <0>        -0.0424
      6 C6         -0.0166    1.3746    0.0096 C.ar      1 <0>        -0.1299
      7 C7          0.0021   -0.0041    0.0020 C.ar      1 <0>        -0.0544
      8 C8          1.2246   -0.6830   -0.0133 C.ar      1 <0>        -0.1745
      9 C9          2.4196    0.0435   -0.0208 C.ar      1 <0>        -0.0731
     10 C10         2.3842    1.4219   -0.0130 C.ar      1 <0>        -0.1286
     11 C11         1.2535   -2.1544   -0.0219 C.2       1 <0>         0.3893
     12 O1          0.2156   -2.7812   -0.0158 O.2       1 <0>        -0.4228
     13 C12         2.5731   -2.8820   -0.0384 C.3       1 <0>        -0.1362
     14 C13         2.3231   -4.3915   -0.0447 C.3       1 <0>        -0.0276
     15 H1          1.6901   -4.6584    0.8016 H         1 <0>         0.1141
     16 C14         3.6385   -5.1190    0.0627 C.ar      1 <0>        -0.0867
     17 C15         4.6077   -4.9416   -0.9072 C.ar      1 <0>        -0.0458
     18 C16         5.8156   -5.6058   -0.8066 C.ar      1 <0>        -0.1109
     19 C17         6.0514   -6.4542    0.2593 C.ar      1 <0>        -0.0496
     20 C18         5.0806   -6.6352    1.2263 C.ar      1 <0>        -0.0380
     21 C19         3.8738   -5.9678    1.1278 C.ar      1 <0>        -0.0476
     22 N1          5.3328   -7.5439    2.3672 N.pl3     1 <0>         0.0272
     23 O2          4.4771   -7.7037    3.2192 O.2       1 <0>        -0.1567
     24 O3          6.3959   -8.1318    2.4540 O.3       1 <0>        -0.1543
     25 S1          1.4968   -4.8611   -1.5898 S.3       1 <0>        -0.0874
     26 C20         1.1491   -6.5760   -1.3830 C.ar      1 <0>        -0.1623
     27 C21         1.5162   -7.2242   -0.2127 C.ar      1 <0>        -0.0932
     28 C22         1.2419   -8.5697   -0.0527 C.ar      1 <0>        -0.1595
     29 C23         0.6015   -9.2731   -1.0561 C.ar      1 <0>        -0.0706
     30 C24         0.2315   -8.6350   -2.2259 C.ar      1 <0>        -0.1829
     31 C25         0.4985   -7.2849   -2.3935 C.ar      1 <0>         0.2392
     32 N2          0.1204   -6.6358   -3.5749 N.pl3     1 <0>        -0.8714
     33 H2          2.4680    4.0715    3.1543 H         1 <0>         0.0553
     34 H3          2.5764    2.6291    2.1170 H         1 <0>         0.0581
     35 H4          3.2936    4.1672    1.5803 H         1 <0>         0.0552
     36 H5          0.3161    3.6420    1.9995 H         1 <0>         0.0717
     37 H6          0.0472    5.8903    0.9888 H         1 <0>         0.0557
     38 H7          0.9911    5.9760    2.4954 H         1 <0>         0.0573
     39 H8          1.8166    6.0717    0.9214 H         1 <0>         0.0560
     40 H9          2.0186    3.9765   -0.5102 H         1 <0>         0.0769
     41 H10         0.2390    3.9415   -0.4937 H         1 <0>         0.0767
     42 H11        -0.9600    1.9005    0.0169 H         1 <0>         0.1291
     43 H12        -0.9249   -0.5582    0.0082 H         1 <0>         0.1343
     44 H13         3.3677   -0.4737   -0.0322 H         1 <0>         0.1297
     45 H14         3.3062    1.9844   -0.0184 H         1 <0>         0.1292
     46 H15         3.0850   -2.6254   -0.8583 H         1 <0>         0.1011
     47 H16         3.1477   -2.6126    0.8478 H         1 <0>         0.1204
     48 H17         4.4222   -4.2817   -1.7417 H         1 <0>         0.1476
     49 H18         6.5740   -5.4647   -1.5624 H         1 <0>         0.1523
     50 H19         6.9939   -6.9758    0.3361 H         1 <0>         0.1563
     51 H20         3.1151   -6.1095    1.8832 H         1 <0>         0.1548
     52 H21         2.0166   -6.6779    0.5731 H         1 <0>         0.1227
     53 H22         1.5283   -9.0729    0.8590 H         1 <0>         0.1219
     54 H23         0.3892  -10.3240   -0.9258 H         1 <0>         0.1254
     55 H24        -0.2692   -9.1875   -3.0072 H         1 <0>         0.1262
     56 H25         0.3107   -5.6919   -3.6919 H         1 <0>         0.3991
     57 H26        -0.3318   -7.1300   -4.2765 H         1 <0>         0.4013
@<TRIPOS>BOND
     1    1    2 1
     2    1   33 1
     3    1   34 1
     4    1   35 1
     5    2    3 1
     6    2    4 1
     7    2   36 1
     8    3   37 1
     9    3   38 1
    10    3   39 1
    11    4    5 1
    12    4   40 1
    13    4   41 1
    14    5   10 ar
    15    5    6 ar
    16    6    7 ar
    17    6   42 1
    18    7    8 ar
    19    7   43 1
    20    8    9 ar
    21    8   11 1
    22    9   10 ar
    23    9   44 1
    24   10   45 1
    25   11   12 2
    26   11   13 1
    27   13   14 1
    28   13   46 1
    29   13   47 1
    30   14   15 1
    31   14   16 1
    32   14   25 1
    33   16   21 ar
    34   16   17 ar
    35   17   18 ar
    36   17   48 1
    37   18   19 ar
    38   18   49 1
    39   19   20 ar
    40   19   50 1
    41   20   21 ar
    42   20   22 1
    43   21   51 1
    44   22   23 2
    45   22   24 1
    46   25   26 1
    47   26   31 ar
    48   26   27 ar
    49   27   28 ar
    50   27   52 1
    51   28   29 ar
    52   28   53 1
    53   29   30 ar
    54   29   54 1
    55   30   31 ar
    56   30   55 1
    57   31   32 1
    58   32   56 1
    59   32   57 1
@<TRIPOS>MOLECULE
ZINC01025210
   42    44     0     0     0
SMALL
USER_CHARGES

@<TRIPOS>ATOM
      1 C1         -0.0324    1.5252    0.0059 C.3       1 <0>        -0.1014
      2 C2         -0.0000    0.0186    0.0005 C.2       1 <0>         0.1381
      3 C3         -1.0881   -0.8041    0.0031 C.2       1 <0>        -0.3074
      4 C4         -0.5771   -2.1833   -0.0042 C.2       1 <0>         0.1765
      5 N1          0.7295   -2.1048   -0.0104 N.2       1 <0>        -0.2712
      6 O1          1.0989   -0.7403   -0.0134 O.3       1 <0>        -0.0691
      7 C5         -1.3873   -3.4254   -0.0040 C.ar      1 <0>        -0.0404
      8 C6         -2.7793   -3.3528   -0.0022 C.ar      1 <0>        -0.0722
      9 C7         -3.5282   -4.5116   -0.0025 C.ar      1 <0>        -0.1126
     10 C8         -2.9006   -5.7448   -0.0041 C.ar      1 <0>        -0.0803
     11 C9         -1.5202   -5.8242   -0.0055 C.ar      1 <0>        -0.1126
     12 C10        -0.7595   -4.6708   -0.0115 C.ar      1 <0>        -0.0061
     13 Cl1         0.9735   -4.7715   -0.0210 Cl        1 <0>        -0.0309
     14 C11        -2.5015   -0.3911    0.0116 C.2       1 <0>         0.5992
     15 O2         -3.0906   -0.2173   -1.0383 O.2       1 <0>        -0.4889
     16 N2         -3.1423   -0.2056    1.1826 N.am      1 <0>        -0.6617
     17 C12        -4.4481    0.2975    1.1936 C.ar      1 <0>         0.1540
     18 C13        -4.9022    1.0697    0.1362 C.ar      1 <0>        -0.0856
     19 C14        -6.2049    1.5690    0.1519 C.ar      1 <0>        -0.0227
     20 C15        -7.0431    1.2876    1.2330 C.ar      1 <0>        -0.0952
     21 C16        -6.5820    0.5184    2.2814 C.ar      1 <0>        -0.0871
     22 C17        -5.2922    0.0179    2.2632 C.ar      1 <0>        -0.0544
     23 Cl2        -4.7231   -0.9556    3.5830 Cl        1 <0>        -0.0554
     24 C18        -6.6956    2.3928   -0.9707 C.2       1 <0>         0.1632
     25 N3         -5.9175    2.6525   -1.9707 N.2       1 <0>        -0.3216
     26 O3         -6.3882    3.4426   -3.0474 O.3       1 <0>        -0.4023
     27 C19        -8.1031    2.9309   -0.9514 C.3       1 <0>        -0.1482
     28 H1          0.9872    1.9106   -0.0029 H         1 <0>         0.0982
     29 H2         -0.5627    1.8804   -0.8777 H         1 <0>         0.1054
     30 H3         -0.5451    1.8744    0.9022 H         1 <0>         0.1021
     31 H4         -3.2708   -2.3911   -0.0002 H         1 <0>         0.1320
     32 H5         -4.6068   -4.4561   -0.0011 H         1 <0>         0.1393
     33 H6         -3.4913   -6.6489   -0.0040 H         1 <0>         0.1419
     34 H7         -1.0358   -6.7895   -0.0064 H         1 <0>         0.1442
     35 H8         -2.6985   -0.4209    2.0178 H         1 <0>         0.4180
     36 H9         -4.2496    1.2845   -0.6971 H         1 <0>         0.1673
     37 H10        -8.0520    1.6724    1.2486 H         1 <0>         0.1450
     38 H11        -7.2314    0.3024    3.1168 H         1 <0>         0.1471
     39 H12        -5.7358    3.5824   -3.7473 H         1 <0>         0.4069
     40 H13        -8.1117    3.9085   -0.4692 H         1 <0>         0.0858
     41 H14        -8.4695    3.0267   -1.9735 H         1 <0>         0.0826
     42 H15        -8.7461    2.2469   -0.3975 H         1 <0>         0.0808
@<TRIPOS>BOND
     1    1    2 1
     2    1   28 1
     3    1   29 1
     4    1   30 1
     5    2    6 1
     6    2    3 2
     7    3    4 1
     8    3   14 1
     9    4    5 2
    10    4    7 1
    11    5    6 1
    12    7   12 ar
    13    7    8 ar
    14    8    9 ar
    15    8   31 1
    16    9   10 ar
    17    9   32 1
    18   10   11 ar
    19   10   33 1
    20   11   12 ar
    21   11   34 1
    22   12   13 1
    23   14   15 2
    24   14   16 am
    25   16   17 1
    26   16   35 1
    27   17   22 ar
    28   17   18 ar
    29   18   19 ar
    30   18   36 1
    31   19   20 ar
    32   19   24 1
    33   20   21 ar
    34   20   37 1
    35   21   22 ar
    36   21   38 1
    37   22   23 1
    38   24   25 2
    39   24   27 1
    40   25   26 1
    41   26   39 1
    42   27   40 1
    43   27   41 1
    44   27   42 1
@<TRIPOS>MOLECULE
ZINC19796050
   37    39     0     0     0
SMALL
USER_CHARGES

@<TRIPOS>ATOM
      1 C1         -0.0184    1.5028    0.0103 C.3       1 <0>        -0.1375
      2 C2          0.0021   -0.0041    0.0020 C.2       1 <0>        -0.1076
      3 C3         -1.1234   -0.6744    0.0092 C.2       1 <0>        -0.1652
      4 C4         -2.4960   -0.0123    0.0193 C.3       1 <0>        -0.0011
      5 H1         -2.4129    1.0627   -0.1403 H         1 <0>         0.1246
      6 C5         -3.1070   -0.3186    1.3902 C.3       1 <0>        -0.0998
      7 C6         -3.0034   -1.7886    1.7079 C.2       1 <0>         0.2465
      8 C7         -2.1410   -2.6282    1.1033 C.2       1 <0>        -0.2448
      9 C8         -2.1016   -3.9856    1.4792 C.2       1 <0>        -0.0472
     10 C9         -2.9396   -4.4482    2.4460 C.2       1 <0>        -0.1975
     11 C10        -3.8368   -3.5512    3.0511 C.2       1 <0>         0.5174
     12 O1         -4.6023   -3.9423    3.9176 O.2       1 <0>        -0.5134
     13 N1         -3.8491   -2.2639    2.6734 N.am      1 <0>        -0.6088
     14 H2         -4.4740   -1.6539    3.0957 H         1 <0>         0.4241
     15 C11        -1.1948   -2.1939    0.0017 C.3       1 <0>         0.1727
     16 C12        -1.8053   -2.5953   -1.3498 C.3       1 <0>        -0.0814
     17 C13        -3.0324   -1.7778   -1.6215 C.2       1 <0>        -0.1018
     18 C14        -3.3273   -0.6547   -1.0592 C.2       1 <0>        -0.1547
     19 C15        -3.9923   -2.2986   -2.6599 C.3       1 <0>        -0.1299
     20 N2          0.1376   -2.7833    0.1896 N.4       1 <0>        -0.6289
     21 H3          1.0042    1.8801    0.0026 H         1 <0>         0.0766
     22 H4         -0.5455    1.8639   -0.8728 H         1 <0>         0.0831
     23 H5         -0.5286    1.8543    0.9071 H         1 <0>         0.0810
     24 H6          0.9446   -0.5313   -0.0098 H         1 <0>         0.1110
     25 H7         -2.5778    0.2514    2.1539 H         1 <0>         0.1147
     26 H8         -4.1568   -0.0253    1.3884 H         1 <0>         0.1097
     27 H9         -1.4060   -4.6586    1.0001 H         1 <0>         0.1321
     28 H10        -2.9161   -5.4863    2.7431 H         1 <0>         0.1635
     29 H11        -1.0751   -2.4257   -2.1412 H         1 <0>         0.1017
     30 H12        -2.0723   -3.6518   -1.3266 H         1 <0>         0.1027
     31 H13        -4.2382   -0.1584   -1.3598 H         1 <0>         0.1270
     32 H14        -4.7304   -2.9427   -2.1819 H         1 <0>         0.0742
     33 H15        -4.4978   -1.4607   -3.1401 H         1 <0>         0.0744
     34 H16        -3.4430   -2.8691   -3.4089 H         1 <0>         0.0686
     35 H17         0.5173   -2.4811    1.0742 H         1 <0>         0.4399
     36 H18         0.0645   -3.7896    0.1810 H         1 <0>         0.4359
     37 H19         0.7462   -2.4839   -0.5575 H         1 <0>         0.4382
@<TRIPOS>BOND
     1    1    2 1
     2    1   21 1
     3    1   22 1
     4    1   23 1
     5    2    3 2
     6    2   24 1
     7    3   15 1
     8    3    4 1
     9    4    5 1
    10    4   18 1
    11    4    6 1
    12    6    7 1
    13    6   25 1
    14    6   26 1
    15    7   13 1
    16    7    8 2
    17    8    9 1
    18    8   15 1
    19    9   10 2
    20    9   27 1
    21   10   11 1
    22   10   28 1
    23   11   12 2
    24   11   13 am
    25   13   14 1
    26   15   16 1
    27   15   20 1
    28   16   17 1
    29   16   29 1
    30   16   30 1
    31   17   18 2
    32   17   19 1
    33   18   31 1
    34   19   32 1
    35   19   33 1
    36   19   34 1
    37   20   35 1
    38   20   36 1
    39   20   37 1
@<TRIPOS>MOLECULE
ZINC09252701
   44    45     0     0     0
SMALL
USER_CHARGES
methyl 2-[2-(4-formylphenoxy)acetyl]amino-3-phenyl-propanoate
@<TRIPOS>ATOM
      1 C1        -11.3455    5.8250   -2.9567 C.3       1 <0>         0.0352
      2 O1        -11.0813    5.4734   -1.5728 O.3       1 <0>        -0.3557
      3 C2        -10.0355    4.6653   -1.3384 C.2       1 <0>         0.4482
      4 O2         -9.3631    4.2649   -2.2589 O.2       1 <0>        -0.4940
      5 C3         -9.7001    4.2574    0.0731 C.3       1 <0>         0.1675
      6 H1         -9.4846    5.1458    0.6666 H         1 <0>         0.1328
      7 C4        -10.8879    3.5115    0.6843 C.3       1 <0>        -0.0825
      8 C5        -10.6010    3.2113    2.1330 C.ar      1 <0>        -0.0890
      9 C6         -9.9805    2.0269    2.4837 C.ar      1 <0>        -0.1136
     10 C7         -9.7130    1.7538    3.8122 C.ar      1 <0>        -0.1175
     11 C8        -10.0754    2.6604    4.7908 C.ar      1 <0>        -0.1172
     12 C9        -10.7006    3.8424    4.4405 C.ar      1 <0>        -0.1151
     13 C10       -10.9635    4.1179    3.1116 C.ar      1 <0>        -0.1100
     14 N1         -8.5263    3.3808    0.0622 N.am      1 <0>        -0.7054
     15 C11        -7.2880    3.9128    0.0591 C.2       1 <0>         0.5261
     16 O3         -7.1454    5.1172    0.0653 O.2       1 <0>        -0.5050
     17 C12        -6.0805    3.0112    0.0479 C.3       1 <0>         0.0415
     18 O4         -4.8928    3.8057    0.0465 O.3       1 <0>        -0.2833
     19 C13        -3.7088    3.1434    0.0368 C.ar      1 <0>         0.1649
     20 C14        -2.5153    3.8575    0.0350 C.ar      1 <0>        -0.1613
     21 C15        -1.3160    3.1929    0.0256 C.ar      1 <0>        -0.0172
     22 C16        -1.2942    1.7927    0.0179 C.ar      1 <0>        -0.2339
     23 C17        -2.4988    1.0786    0.0140 C.ar      1 <0>        -0.0240
     24 C18        -3.6927    1.7527    0.0292 C.ar      1 <0>        -0.2273
     25 C19        -0.0126    1.0758    0.0080 C.2       1 <0>         0.3842
     26 O5          1.0295    1.6965    0.0013 O.2       1 <0>        -0.4633
     27 H2        -10.4790    6.3390   -3.3727 H         1 <0>         0.0646
     28 H3        -11.5408    4.9192   -3.5307 H         1 <0>         0.0643
     29 H4        -12.2149    6.4805   -3.0054 H         1 <0>         0.1055
     30 H5        -11.7821    4.1306    0.6117 H         1 <0>         0.1084
     31 H6        -11.0475    2.5780    0.1446 H         1 <0>         0.0881
     32 H7         -9.7013    1.3167    1.7195 H         1 <0>         0.1193
     33 H8         -9.2248    0.8301    4.0859 H         1 <0>         0.1233
     34 H9         -9.8704    2.4450    5.8290 H         1 <0>         0.1228
     35 H10       -10.9841    4.5506    5.2051 H         1 <0>         0.1245
     36 H11       -11.4523    5.0413    2.8380 H         1 <0>         0.1259
     37 H12        -8.6403    2.4176    0.0572 H         1 <0>         0.4081
     38 H13        -6.1013    2.3872   -0.8456 H         1 <0>         0.1008
     39 H14        -6.0924    2.3770    0.9343 H         1 <0>         0.1001
     40 H15        -2.5333    4.9373    0.0406 H         1 <0>         0.1401
     41 H16        -0.3898    3.7484    0.0246 H         1 <0>         0.1419
     42 H17        -2.4874   -0.0013    0.0035 H         1 <0>         0.1375
     43 H18        -4.6223    1.2029    0.0310 H         1 <0>         0.1350
     44 H19         0.0021   -0.0041    0.0020 H         1 <0>         0.1047
@<TRIPOS>BOND
     1    1    2 1
     2    1   27 1
     3    1   28 1
     4    1   29 1
     5    2    3 1
     6    3    4 2
     7    3    5 1
     8    5    6 1
     9    5    7 1
    10    5   14 1
    11    7    8 1
    12    7   30 1
    13    7   31 1
    14    8   13 ar
    15    8    9 ar
    16    9   10 ar
    17    9   32 1
    18   10   11 ar
    19   10   33 1
    20   11   12 ar
    21   11   34 1
    22   12   13 ar
    23   12   35 1
    24   13   36 1
    25   14   15 am
    26   14   37 1
    27   15   16 2
    28   15   17 1
    29   17   18 1
    30   17   38 1
    31   17   39 1
    32   18   19 1
    33   19   24 ar
    34   19   20 ar
    35   20   21 ar
    36   20   40 1
    37   21   22 ar
    38   21   41 1
    39   22   23 ar
    40   22   25 1
    41   23   24 ar
    42   23   42 1
    43   24   43 1
    44   25   26 2
    45   25   44 1
@<TRIPOS>MOLECULE
ZINC09252703
   44    45     0     0     0
SMALL
USER_CHARGES
methyl 2-[2-(4-formylphenoxy)acetyl]amino-3-phenyl-propanoate
@<TRIPOS>ATOM
      1 C1        -11.3176    5.7919    3.1288 C.3       1 <0>         0.0352
      2 O1        -11.0661    5.4554    1.7389 O.3       1 <0>        -0.3557
      3 C2        -10.0226    4.6499    1.4860 C.2       1 <0>         0.4482
      4 O2         -9.3417    4.2396    2.3960 O.2       1 <0>        -0.4941
      5 C3         -9.7001    4.2574    0.0672 C.3       1 <0>         0.1675
      6 H1         -9.4900    5.1523   -0.5185 H         1 <0>         0.1328
      7 C4        -10.8936    3.5181   -0.5412 C.3       1 <0>        -0.0825
      8 C5        -10.6200    3.2338   -1.9956 C.ar      1 <0>        -0.0890
      9 C6        -10.9964    4.1484   -2.9614 C.ar      1 <0>        -0.1100
     10 C7        -10.7411    3.8898   -4.2951 C.ar      1 <0>        -0.1151
     11 C8        -10.1188    2.7118   -4.6639 C.ar      1 <0>        -0.1173
     12 C9         -9.7471    1.7948   -3.6986 C.ar      1 <0>        -0.1175
     13 C10        -9.9977    2.0558   -2.3644 C.ar      1 <0>        -0.1136
     14 N1         -8.5263    3.3808    0.0578 N.am      1 <0>        -0.7055
     15 C11        -7.2880    3.9129    0.0553 C.2       1 <0>         0.5262
     16 O3         -7.1454    5.1172    0.0609 O.2       1 <0>        -0.5049
     17 C12        -6.0806    3.0112    0.0456 C.3       1 <0>         0.0415
     18 O4         -4.8928    3.8057    0.0447 O.3       1 <0>        -0.2834
     19 C13        -3.7088    3.1434    0.0364 C.ar      1 <0>         0.1649
     20 C14        -2.5153    3.8575    0.0350 C.ar      1 <0>        -0.1613
     21 C15        -1.3160    3.1929    0.0256 C.ar      1 <0>        -0.0172
     22 C16        -1.2942    1.7927    0.0179 C.ar      1 <0>        -0.2339
     23 C17        -2.4988    1.0786    0.0140 C.ar      1 <0>        -0.0240
     24 C18        -3.6927    1.7527    0.0287 C.ar      1 <0>        -0.2273
     25 C19        -0.0126    1.0758    0.0080 C.2       1 <0>         0.3842
     26 O5          1.0295    1.6965    0.0013 O.2       1 <0>        -0.4633
     27 H2        -10.4473    6.3014    3.5424 H         1 <0>         0.0646
     28 H3        -12.1865    6.4468    3.1926 H         1 <0>         0.1055
     29 H4        -11.5076    4.8799    3.6947 H         1 <0>         0.0643
     30 H5        -11.0483    2.5789   -0.0102 H         1 <0>         0.0881
     31 H6        -11.7870    4.1364   -0.4536 H         1 <0>         0.1083
     32 H7        -11.4866    5.0667   -2.6736 H         1 <0>         0.1259
     33 H8        -11.0319    4.6060   -5.0493 H         1 <0>         0.1245
     34 H9         -9.9233    2.5077   -5.7063 H         1 <0>         0.1228
     35 H10        -9.2612    0.8744   -3.9867 H         1 <0>         0.1233
     36 H11        -9.7076    1.3393   -1.6102 H         1 <0>         0.1192
     37 H12        -8.6404    2.4176    0.0534 H         1 <0>         0.4081
     38 H13        -6.1006    2.3866   -0.8475 H         1 <0>         0.1001
     39 H14        -6.0931    2.3775    0.9325 H         1 <0>         0.1008
     40 H15        -2.5333    4.9373    0.0409 H         1 <0>         0.1401
     41 H16        -0.3898    3.7484    0.0246 H         1 <0>         0.1419
     42 H17        -2.4874   -0.0013    0.0031 H         1 <0>         0.1375
     43 H18        -4.6223    1.2029    0.0298 H         1 <0>         0.1350
     44 H19         0.0021   -0.0041    0.0020 H         1 <0>         0.1047
@<TRIPOS>BOND
     1    1    2 1
     2    1   27 1
     3    1   28 1
     4    1   29 1
     5    2    3 1
     6    3    4 2
     7    3    5 1
     8    5    6 1
     9    5    7 1
    10    5   14 1
    11    7    8 1
    12    7   30 1
    13    7   31 1
    14    8   13 ar
    15    8    9 ar
    16    9   10 ar
    17    9   32 1
    18   10   11 ar
    19   10   33 1
    20   11   12 ar
    21   11   34 1
    22   12   13 ar
    23   12   35 1
    24   13   36 1
    25   14   15 am
    26   14   37 1
    27   15   16 2
    28   15   17 1
    29   17   18 1
    30   17   38 1
    31   17   39 1
    32   18   19 1
    33   19   24 ar
    34   19   20 ar
    35   20   21 ar
    36   20   40 1
    37   21   22 ar
    38   21   41 1
    39   22   23 ar
    40   22   25 1
    41   23   24 ar
    42   23   42 1
    43   24   43 1
    44   25   26 2
    45   25   44 1
@<TRIPOS>MOLECULE
ZINC00073661
   48    51     0     0     0
SMALL
USER_CHARGES

@<TRIPOS>ATOM
      1 C1          2.0889    1.4841   -0.2353 C.ar      1 <0>        -0.0855
      2 C2          1.2167    2.0703    0.6598 C.ar      1 <0>        -0.0737
      3 C3          0.3331    1.2782    1.3935 C.ar      1 <0>        -0.1187
      4 C4          0.3344   -0.1052    1.2187 C.ar      1 <0>        -0.0714
      5 C5          1.2135   -0.6845    0.3173 C.ar      1 <0>         0.1676
      6 C6          2.0902    0.1130   -0.4086 C.ar      1 <0>        -0.0839
      7 N1          1.2187   -2.0727    0.1383 N.am      1 <0>        -0.6772
      8 C7          0.0715   -2.7709    0.2512 C.2       1 <0>         0.7115
      9 O1         -0.9822   -2.1867    0.4148 O.2       1 <0>        -0.5554
     10 N2          0.0923   -4.1168    0.1827 N.am      1 <0>        -0.6793
     11 C8         -1.1081   -4.8366    0.1910 C.ar      1 <0>         0.1715
     12 C9         -2.2447   -4.2991   -0.4013 C.ar      1 <0>        -0.0650
     13 C10        -3.4324   -5.0058   -0.3952 C.ar      1 <0>        -0.0882
     14 C11        -3.4973   -6.2502    0.1987 C.ar      1 <0>        -0.0726
     15 C12        -2.3617   -6.7983    0.7959 C.ar      1 <0>        -0.1155
     16 C13        -1.1619   -6.0878    0.7848 C.ar      1 <0>        -0.0950
     17 C14        -2.4288   -8.1319    1.4337 C.cat     1 <0>         0.5682
     18 N3         -1.6720   -8.4695    2.4644 N.pl3     1 <0>        -0.6360
     19 C15        -1.9793   -9.8531    2.8590 C.3       1 <0>         0.0594
     20 C16        -3.0726  -10.2772    1.8574 C.3       1 <0>         0.0587
     21 N4         -3.2541   -9.0796    1.0221 N.pl3     1 <0>        -0.6313
     22 C17        -0.6023    1.9041    2.3544 C.cat     1 <0>         0.5709
     23 N5         -1.0215    1.2885    3.4471 N.pl3     1 <0>        -0.6359
     24 C18        -1.9358    2.1757    4.1830 C.3       1 <0>         0.0597
     25 C19        -1.9804    3.4471    3.3114 C.3       1 <0>         0.0592
     26 N6         -1.0814    3.1259    2.1919 N.pl3     1 <0>        -0.6324
     27 H1          2.7693    2.0994   -0.8052 H         1 <0>         0.1558
     28 H2          1.2186    3.1422    0.7925 H         1 <0>         0.1426
     29 H3         -0.3472   -0.7233    1.7842 H         1 <0>         0.1486
     30 H4          2.7748   -0.3401   -1.1103 H         1 <0>         0.1497
     31 H5          2.0480   -2.5321   -0.0670 H         1 <0>         0.4214
     32 H6          0.9391   -4.5866    0.1277 H         1 <0>         0.4190
     33 H7         -2.1999   -3.3260   -0.8674 H         1 <0>         0.1544
     34 H8         -4.3127   -4.5830   -0.8563 H         1 <0>         0.1531
     35 H9         -4.4272   -6.7994    0.2015 H         1 <0>         0.1424
     36 H10        -0.2785   -6.5092    1.2414 H         1 <0>         0.1416
     37 H11        -1.0981  -10.4864    2.7564 H         1 <0>         0.1283
     38 H12        -2.3601   -9.8858    3.8798 H         1 <0>         0.1285
     39 H13        -2.7358  -11.1216    1.2560 H         1 <0>         0.1301
     40 H14        -3.9979  -10.5209    2.3794 H         1 <0>         0.1291
     41 H15        -3.8788   -8.9989    0.2844 H         1 <0>         0.4599
     42 H16        -2.9266    1.7278    4.2597 H         1 <0>         0.1264
     43 H17        -1.5380    2.4020    5.1722 H         1 <0>         0.1283
     44 H18        -2.9933    3.6324    2.9541 H         1 <0>         0.1290
     45 H19        -1.6047    4.3066    3.8666 H         1 <0>         0.1291
     46 H20        -0.8747    3.7162    1.4504 H         1 <0>         0.4598
     47 H21        -1.0178   -7.8954    2.8925 H         1 <0>         0.4570
     48 H22        -0.7664    0.3934    3.7203 H         1 <0>         0.4564
@<TRIPOS>BOND
     1    1    6 ar
     2    1    2 ar
     3    1   27 1
     4    2    3 ar
     5    2   28 1
     6    3    4 ar
     7    3   22 1
     8    4    5 ar
     9    4   29 1
    10    5    6 ar
    11    5    7 1
    12    6   30 1
    13    7    8 am
    14    7   31 1
    15    8    9 2
    16    8   10 am
    17   10   11 1
    18   10   32 1
    19   11   16 ar
    20   11   12 ar
    21   12   13 ar
    22   12   33 1
    23   13   14 ar
    24   13   34 1
    25   14   15 ar
    26   14   35 1
    27   15   16 ar
    28   15   17 1
    29   16   36 1
    30   17   21 1
    31   17   18 2
    32   18   19 1
    33   18   47 1
    34   19   20 1
    35   19   37 1
    36   19   38 1
    37   20   21 1
    38   20   39 1
    39   20   40 1
    40   21   41 1
    41   22   26 1
    42   22   23 2
    43   23   24 1
    44   23   48 1
    45   24   25 1
    46   24   42 1
    47   24   43 1
    48   25   26 1
    49   25   44 1
    50   25   45 1
    51   26   46 1
@<TRIPOS>MOLECULE
ZINC01612996
   82    88     0     0     0
SMALL
USER_CHARGES
(diethyl-hydroxy-dioxo-BLAHyl) 4-(1-piperidyl)piperidine-1-carboxylate
@<TRIPOS>ATOM
      1 C1         -0.6879    6.5967   -1.0201 C.3       1 <0>        -0.1497
      2 C2         -0.9592    6.0212    0.3713 C.3       1 <0>        -0.0966
      3 C3         -1.5133    4.6261    0.2387 C.ar      1 <0>         0.0209
      4 C4         -2.9016    4.4052    0.1287 C.ar      1 <0>        -0.0754
      5 C5         -3.8117    5.4716    0.1473 C.ar      1 <0>        -0.0834
      6 C6         -5.1507    5.2187    0.0425 C.ar      1 <0>         0.1094
      7 C7         -5.6231    3.9082   -0.0832 C.ar      1 <0>        -0.1037
      8 C8         -4.7661    2.8534   -0.1033 C.ar      1 <0>        -0.0617
      9 C9         -3.3793    3.0751    0.0027 C.ar      1 <0>         0.1468
     10 N1         -2.5207    2.0553   -0.0153 N.ar      1 <0>        -0.4342
     11 C10        -1.2148    2.2495    0.0809 C.ar      1 <0>         0.1914
     12 C11        -0.6879    3.5464    0.2091 C.ar      1 <0>        -0.1544
     13 C12         0.8103    3.4025    0.2856 C.3       1 <0>         0.1440
     14 N2          1.0961    1.9642    0.2009 N.am      1 <0>        -0.4953
     15 C13        -0.0861    1.2897    0.0840 C.2       1 <0>         0.1817
     16 C14        -0.0835   -0.0854   -0.0143 C.2       1 <0>        -0.1357
     17 C15         1.1263   -0.7918    0.0075 C.2       1 <0>         0.0352
     18 C16         2.2961   -0.1107    0.1357 C.2       1 <0>        -0.2205
     19 C17         2.2656    1.2965    0.2233 C.2       1 <0>         0.5492
     20 O1          3.3119    1.9170    0.3206 O.2       1 <0>        -0.5274
     21 C18         3.6319   -0.8030    0.1933 C.3       1 <0>         0.1424
     22 O2          3.5214   -2.1695   -0.2838 O.3       1 <0>        -0.3637
     23 C19         2.4557   -2.8521    0.1937 C.2       1 <0>         0.4706
     24 O3          2.5893   -3.8591    0.8479 O.2       1 <0>        -0.4223
     25 C20         1.0896   -2.2930   -0.1309 C.3       1 <0>         0.1363
     26 C21         0.7120   -2.6655   -1.5660 C.3       1 <0>        -0.1407
     27 C22         0.6753   -4.1887   -1.7046 C.3       1 <0>        -0.1650
     28 O4          0.1248   -2.8330    0.7744 O.3       1 <0>        -0.5245
     29 O5         -6.0330    6.2522    0.0603 O.3       1 <0>        -0.2981
     30 C23        -6.8141    6.3706    1.1512 C.2       1 <0>         0.6483
     31 O6         -6.6377    5.6411    2.1068 O.2       1 <0>        -0.5348
     32 N3         -7.7913    7.2983    1.1828 N.am      1 <0>        -0.6007
     33 C24        -8.0128    8.1916    0.0375 C.3       1 <0>         0.1145
     34 C25        -9.4877    8.0934   -0.3805 C.3       1 <0>        -0.1550
     35 C26       -10.3759    8.3915    0.8296 C.3       1 <0>         0.0284
     36 C27       -10.1156    7.3535    1.9236 C.3       1 <0>        -0.1591
     37 C28        -8.6514    7.4395    2.3656 C.3       1 <0>         0.1308
     38 C29       -12.1281    7.0110   -0.1108 C.3       1 <0>        -0.0100
     39 C30       -13.6324    6.9415   -0.3833 C.3       1 <0>        -0.1460
     40 C31       -14.0157    8.0341   -1.3853 C.3       1 <0>        -0.1392
     41 C32       -13.6064    9.3981   -0.8225 C.3       1 <0>        -0.1466
     42 C33       -12.1028    9.3964   -0.5373 C.3       1 <0>        -0.0043
     43 H1         -1.6177    6.6276   -1.5881 H         1 <0>         0.0593
     44 H2         -0.2871    7.6058   -0.9242 H         1 <0>         0.0717
     45 H3          0.0343    5.9668   -1.5394 H         1 <0>         0.0612
     46 H4         -1.6814    6.6512    0.8906 H         1 <0>         0.0858
     47 H5         -0.0294    5.9904    0.9393 H         1 <0>         0.0892
     48 H6         -3.4566    6.4870    0.2441 H         1 <0>         0.1469
     49 H7         -6.6854    3.7317   -0.1652 H         1 <0>         0.1370
     50 H8         -5.1476    1.8477   -0.2010 H         1 <0>         0.1527
     51 H9          1.1762    3.8012    1.2318 H         1 <0>         0.1180
     52 H10         1.2791    3.9264   -0.5474 H         1 <0>         0.1187
     53 H11        -1.0172   -0.6199   -0.1087 H         1 <0>         0.1647
     54 H12         4.3441   -0.2617   -0.4294 H         1 <0>         0.1367
     55 H13         3.9888   -0.8099    1.2232 H         1 <0>         0.0975
     56 H14        -0.2701   -2.2554   -1.8013 H         1 <0>         0.0956
     57 H15         1.4513   -2.2557   -2.2542 H         1 <0>         0.0892
     58 H16         0.4063   -4.4541   -2.7270 H         1 <0>         0.0756
     59 H17         1.6574   -4.5988   -1.4693 H         1 <0>         0.0606
     60 H18        -0.0639   -4.5985   -1.0164 H         1 <0>         0.0645
     61 H19         0.0481   -3.7963    0.7389 H         1 <0>         0.3958
     62 H20        -7.7786    9.2171    0.3234 H         1 <0>         0.0884
     63 H21        -7.3752    7.8867   -0.7923 H         1 <0>         0.1139
     64 H22        -9.6983    7.0890   -0.7477 H         1 <0>         0.0937
     65 H23        -9.6905    8.8192   -1.1682 H         1 <0>         0.1031
     66 H24       -10.1474    9.3866    1.2114 H         1 <0>         0.1407
     67 H25       -10.3202    6.3560    1.5347 H         1 <0>         0.0948
     68 H26       -10.7652    7.5525    2.7759 H         1 <0>         0.1063
     69 H27        -8.4353    6.6382    3.0723 H         1 <0>         0.1186
     70 H28        -8.4682    8.4049    2.8374 H         1 <0>         0.0894
     71 H29       -11.5827    6.8449   -1.0398 H         1 <0>         0.1301
     72 H30       -11.8543    6.2435    0.6131 H         1 <0>         0.1285
     73 H31       -14.1783    7.0938    0.5477 H         1 <0>         0.0875
     74 H32       -13.8832    5.9646   -0.7966 H         1 <0>         0.1114
     75 H33       -15.0932    8.0162   -1.5493 H         1 <0>         0.0944
     76 H34       -13.4997    7.8598   -2.3294 H         1 <0>         0.0813
     77 H35       -14.1519    9.5890    0.1016 H         1 <0>         0.0875
     78 H36       -13.8380   10.1766   -1.5494 H         1 <0>         0.1121
     79 H37       -11.8107   10.3613   -0.1231 H         1 <0>         0.1286
     80 H38       -11.5577    9.2190   -1.4644 H         1 <0>         0.1300
     81 N4        -11.8033    8.3392    0.4517 N.4       1 <0>        -0.3906
     82 H39       -12.3759    8.4951    1.2895 H         1 <0>         0.4276
@<TRIPOS>BOND
     1    1    2 1
     2    1   43 1
     3    1   44 1
     4    1   45 1
     5    2    3 1
     6    2   46 1
     7    2   47 1
     8    3   12 ar
     9    3    4 ar
    10    4    9 ar
    11    4    5 ar
    12    5    6 ar
    13    5   48 1
    14    6    7 ar
    15    6   29 1
    16    7    8 ar
    17    7   49 1
    18    8    9 ar
    19    8   50 1
    20    9   10 ar
    21   10   11 ar
    22   11   15 1
    23   11   12 ar
    24   12   13 1
    25   13   14 1
    26   13   51 1
    27   13   52 1
    28   14   19 am
    29   14   15 1
    30   15   16 2
    31   16   17 1
    32   16   53 1
    33   17   25 1
    34   17   18 2
    35   18   19 1
    36   18   21 1
    37   19   20 2
    38   21   22 1
    39   21   54 1
    40   21   55 1
    41   22   23 1
    42   23   24 2
    43   23   25 1
    44   25   26 1
    45   25   28 1
    46   26   27 1
    47   26   56 1
    48   26   57 1
    49   27   58 1
    50   27   59 1
    51   27   60 1
    52   28   61 1
    53   29   30 1
    54   30   31 2
    55   30   32 am
    56   32   37 1
    57   32   33 1
    58   33   34 1
    59   33   62 1
    60   33   63 1
    61   34   35 1
    62   34   64 1
    63   34   65 1
    64   35   36 1
    65   35   66 1
    66   35   81 1
    67   36   37 1
    68   36   67 1
    69   36   68 1
    70   37   69 1
    71   37   70 1
    72   38   39 1
    73   38   71 1
    74   38   72 1
    75   38   81 1
    76   39   40 1
    77   39   73 1
    78   39   74 1
    79   40   41 1
    80   40   75 1
    81   40   76 1
    82   41   42 1
    83   41   77 1
    84   41   78 1
    85   42   79 1
    86   42   80 1
    87   42   81 1
    88   81   82 1
@<TRIPOS>MOLECULE
ZINC02391789
   29    29     0     0     0
SMALL
USER_CHARGES
trimethyl-[3-(2,2,2-trifluoroacetyl)phenyl]-ammonium
@<TRIPOS>ATOM
      1 C1         -2.1260   -0.4121    0.0099 C.3       1 <0>        -0.0526
      2 N1         -2.4205    1.0271    0.0191 N.4       1 <0>        -0.2109
      3 C2         -3.1914    1.3614    1.2240 C.3       1 <0>        -0.0488
      4 C3         -3.2028    1.3744   -1.1748 C.3       1 <0>        -0.0485
      5 C4         -1.2227    1.7479    0.0173 C.ar      1 <0>        -0.0510
      6 C5         -0.0126    1.0758    0.0080 C.ar      1 <0>        -0.0572
      7 C6          1.1785    1.7803    0.0004 C.ar      1 <0>        -0.0957
      8 C7          1.1681    3.1594    0.0070 C.ar      1 <0>        -0.0219
      9 C8         -0.0502    3.8456    0.0218 C.ar      1 <0>        -0.1464
     10 C9         -1.2497    3.1262    0.0299 C.ar      1 <0>        -0.0259
     11 C10        -0.0701    5.3171    0.0294 C.2       1 <0>         0.3678
     12 O1         -1.1283    5.9090    0.0423 O.2       1 <0>        -0.3574
     13 C11         1.2246    6.0883    0.0212 C.3       1 <0>         0.4302
     14 F1          0.9503    7.4601    0.0307 F         1 <0>        -0.1496
     15 F2          1.9733    5.7546    1.1549 F         1 <0>        -0.1594
     16 F3          1.9520    5.7661   -1.1296 F         1 <0>        -0.1594
     17 H1         -1.5455   -0.6698    0.8957 H         1 <0>         0.1270
     18 H2         -3.0599   -0.9741    0.0113 H         1 <0>         0.1326
     19 H3         -1.5539   -0.6601   -0.8842 H         1 <0>         0.1271
     20 H4         -3.4100    2.4292    1.2309 H         1 <0>         0.1219
     21 H5         -4.1254    0.7994    1.2254 H         1 <0>         0.1311
     22 H6         -2.6110    1.1036    2.1099 H         1 <0>         0.1254
     23 H7         -2.6308    1.1264   -2.0688 H         1 <0>         0.1254
     24 H8         -4.1367    0.8124   -1.1734 H         1 <0>         0.1311
     25 H9         -3.4214    2.4423   -1.1679 H         1 <0>         0.1218
     26 H10         0.0021   -0.0041    0.0020 H         1 <0>         0.1623
     27 H11         2.1186    1.2489   -0.0111 H         1 <0>         0.1651
     28 H12         2.0984    3.7078    0.0003 H         1 <0>         0.1568
     29 H13        -2.1946    3.6492    0.0417 H         1 <0>         0.1592
@<TRIPOS>BOND
     1    1    2 1
     2    1   17 1
     3    1   18 1
     4    1   19 1
     5    2    3 1
     6    2    4 1
     7    2    5 1
     8    3   20 1
     9    3   21 1
    10    3   22 1
    11    4   23 1
    12    4   24 1
    13    4   25 1
    14    5   10 ar
    15    5    6 ar
    16    6    7 ar
    17    6   26 1
    18    7    8 ar
    19    7   27 1
    20    8    9 ar
    21    8   28 1
    22    9   10 ar
    23    9   11 1
    24   10   29 1
    25   11   12 2
    26   11   13 1
    27   13   14 1
    28   13   15 1
    29   13   16 1
@<TRIPOS>MOLECULE
ZINC00063844
   24    25     0     0     0
SMALL
USER_CHARGES

@<TRIPOS>ATOM
      1 C1          0.0133    1.3770    0.2666 C.ar      1 <0>        -0.1292
      2 C2          1.1662    2.0891    0.0067 C.ar      1 <0>        -0.0724
      3 C3          2.3577    1.4126   -0.2667 C.ar      1 <0>        -0.1237
      4 C4          2.3753    0.0163   -0.2755 C.ar      1 <0>        -0.0616
      5 C5          1.2118   -0.6879   -0.0131 C.ar      1 <0>         0.0787
      6 C6          0.0320   -0.0053    0.2577 C.ar      1 <0>        -0.1076
      7 N1          1.2242   -2.0901   -0.0212 N.am      1 <0>        -0.5227
      8 C7          1.8806   -2.8141    0.8939 C.2       1 <0>         0.5199
      9 O1          2.5260   -2.3626    1.8154 O.2       1 <0>        -0.4662
     10 C8          1.6889   -4.2851    0.5958 C.3       1 <0>        -0.1532
     11 C9          0.7985   -4.2858   -0.6634 C.3       1 <0>        -0.1532
     12 C10         0.5760   -2.8151   -0.9412 C.2       1 <0>         0.5226
     13 O2         -0.0826   -2.3646   -1.8539 O.2       1 <0>        -0.4742
     14 C11         3.5925    2.1706   -0.5457 C.2       1 <0>         0.5222
     15 O3          3.5743    3.3934   -0.5378 O.co2     1 <0>        -0.6828
     16 O4          4.6341    1.5761   -0.7847 O.co2     1 <0>        -0.6834
     17 H1         -0.9059    1.9014    0.4823 H         1 <0>         0.1245
     18 H2          1.1475    3.1689    0.0142 H         1 <0>         0.1338
     19 H3          3.2930   -0.5128   -0.4865 H         1 <0>         0.1289
     20 H4         -0.8738   -0.5568    0.4619 H         1 <0>         0.1155
     21 H5          2.6466   -4.7626    0.3887 H         1 <0>         0.1219
     22 H6          1.1828   -4.7815    1.4238 H         1 <0>         0.1204
     23 H7          1.3132   -4.7636   -1.4970 H         1 <0>         0.1217
     24 H8         -0.1506   -4.7825   -0.4619 H         1 <0>         0.1199
@<TRIPOS>BOND
     1    1    6 ar
     2    1    2 ar
     3    1   17 1
     4    2    3 ar
     5    2   18 1
     6    3    4 ar
     7    3   14 1
     8    4    5 ar
     9    4   19 1
    10    5    6 ar
    11    5    7 1
    12    6   20 1
    13    7   12 am
    14    7    8 am
    15    8    9 2
    16    8   10 1
    17   10   11 1
    18   10   21 1
    19   10   22 1
    20   11   12 1
    21   11   23 1
    22   11   24 1
    23   12   13 2
    24   14   15 2
    25   14   16 1
@<TRIPOS>MOLECULE
ZINC00491073
   43    46     0     0     0
SMALL
USER_CHARGES

@<TRIPOS>ATOM
      1 C1         -0.0178    1.4648    0.0101 C.3       1 <0>        -0.0508
      2 N1          0.0021   -0.0041    0.0020 N.4       1 <0>        -0.3695
      3 C2         -1.3487   -0.4766   -0.1051 C.3       1 <0>        -0.0209
      4 C3         -1.4957   -1.8208   -0.7552 C.3       1 <0>        -0.1240
      5 C4         -1.1986   -2.9607    0.1979 C.3       1 <0>        -0.0106
      6 C5         -2.0769   -2.9074    1.4042 C.2       1 <0>        -0.1408
      7 C6         -2.9213   -3.8188    1.7532 C.2       1 <0>        -0.1505
      8 C7         -3.1380   -5.0863    0.9901 C.3       1 <0>         0.1315
      9 H1         -4.2051   -5.3069    0.9636 H         1 <0>         0.0752
     10 C8         -2.6198   -4.9844   -0.4299 C.3       1 <0>        -0.1186
     11 C9         -1.2869   -4.2969   -0.5425 C.3       1 <0>         0.0975
     12 H2         -1.0674   -4.1273   -1.5966 H         1 <0>         0.0880
     13 O1         -0.2232   -5.0787    0.0155 O.3       1 <0>        -0.2581
     14 C10         0.7233   -4.2458    0.5013 C.ar      1 <0>         0.0952
     15 C11         0.2527   -2.9329    0.6428 C.ar      1 <0>        -0.1178
     16 C12         1.0216   -1.9269    1.1409 C.ar      1 <0>        -0.1302
     17 C13         2.3121   -2.2785    1.5668 C.ar      1 <0>        -0.0934
     18 C14         2.7995   -3.5564    1.4290 C.ar      1 <0>        -0.1641
     19 C15         2.0296   -4.5760    0.8827 C.ar      1 <0>         0.1377
     20 O2          2.5209   -5.8345    0.7267 O.3       1 <0>        -0.2954
     21 C16         3.8668   -6.0626    1.1493 C.3       1 <0>         0.0215
     22 C17         0.7068   -0.4603    1.1832 C.3       1 <0>         0.0520
     23 O3         -2.4591   -6.1527    1.6564 O.3       1 <0>        -0.5466
     24 H3          1.0047    1.8421    0.0024 H         1 <0>         0.1273
     25 H4         -0.5450    1.8259   -0.8730 H         1 <0>         0.1278
     26 H5         -0.5280    1.8163    0.9069 H         1 <0>         0.1247
     27 H6         -1.7753   -0.5300    0.8966 H         1 <0>         0.1288
     28 H7         -1.9228    0.2491   -0.6812 H         1 <0>         0.1383
     29 H8         -2.5166   -1.9252   -1.1226 H         1 <0>         0.1215
     30 H9         -0.8106   -1.8805   -1.6009 H         1 <0>         0.0938
     31 H10        -1.9990   -2.0352    2.0363 H         1 <0>         0.1089
     32 H11        -3.5045   -3.6570    2.6477 H         1 <0>         0.1222
     33 H12        -2.5282   -5.9902   -0.8398 H         1 <0>         0.1019
     34 H13        -3.3468   -4.4337   -1.0268 H         1 <0>         0.1027
     35 H14         2.9401   -1.5233    2.0159 H         1 <0>         0.1374
     36 H15         3.8066   -3.7734    1.7533 H         1 <0>         0.1450
     37 H16         4.5389   -5.4141    0.5873 H         1 <0>         0.0614
     38 H17         3.9556   -5.8433    2.2133 H         1 <0>         0.0618
     39 H18         4.1324   -7.1043    0.9696 H         1 <0>         0.1116
     40 H19         1.6391    0.0971    1.2738 H         1 <0>         0.1432
     41 H20         0.0917   -0.2576    2.0600 H         1 <0>         0.1319
     42 H21        -2.7602   -6.3053    2.5625 H         1 <0>         0.3809
     43 H22         0.5116   -0.3113   -0.8129 H         1 <0>         0.4218
@<TRIPOS>BOND
     1    1    2 1
     2    1   24 1
     3    1   25 1
     4    1   26 1
     5    2   22 1
     6    2    3 1
     7    2   43 1
     8    3    4 1
     9    3   27 1
    10    3   28 1
    11    4    5 1
    12    4   29 1
    13    4   30 1
    14    5   11 1
    15    5   15 1
    16    5    6 1
    17    6    7 2
    18    6   31 1
    19    7    8 1
    20    7   32 1
    21    8    9 1
    22    8   10 1
    23    8   23 1
    24   10   11 1
    25   10   33 1
    26   10   34 1
    27   11   12 1
    28   11   13 1
    29   13   14 1
    30   14   19 ar
    31   14   15 ar
    32   15   16 ar
    33   16   17 ar
    34   16   22 1
    35   17   18 ar
    36   17   35 1
    37   18   19 ar
    38   18   36 1
    39   19   20 1
    40   20   21 1
    41   21   37 1
    42   21   38 1
    43   21   39 1
    44   22   40 1
    45   22   41 1
    46   23   42 1
@<TRIPOS>MOLECULE
ZINC00016827
   30    32     0     0     0
SMALL
USER_CHARGES
1,2,3,4-tetrahydroacridin-9-amine
@<TRIPOS>ATOM
      1 C1         -2.2590   -4.1734    0.7266 C.ar      1 <0>        -0.1151
      2 C2         -1.1015   -4.8453    0.3414 C.ar      1 <0>        -0.0282
      3 C3          0.0181   -4.1626   -0.0240 C.ar      1 <0>        -0.1547
      4 C4          0.0125   -2.7569   -0.0146 C.ar      1 <0>         0.1855
      5 C5         -1.1660   -2.0778    0.3770 C.ar      1 <0>        -0.1377
      6 C6         -2.3011   -2.8116    0.7474 C.ar      1 <0>        -0.0565
      7 C7         -1.1623   -0.6653    0.3817 C.ar      1 <0>         0.3675
      8 C8          0.0021   -0.0041    0.0020 C.ar      1 <0>        -0.2105
      9 C9          1.1175   -0.7361   -0.3646 C.ar      1 <0>         0.2712
     10 C10         2.4120   -0.0754   -0.7701 C.3       1 <0>        -0.1168
     11 C11         2.1762    1.3865   -1.1417 C.3       1 <0>        -0.1213
     12 C12         1.4039    2.0583   -0.0003 C.3       1 <0>        -0.1267
     13 C13        -0.0183    1.5015    0.0103 C.3       1 <0>        -0.0727
     14 N1         -2.2920    0.0458    0.7563 N.pl3     1 <0>        -0.7940
     15 H1         -3.1340   -4.7385    1.0119 H         1 <0>         0.1511
     16 H2         -1.0919   -5.9252    0.3327 H         1 <0>         0.1529
     17 H3          0.9072   -4.6991   -0.3207 H         1 <0>         0.1539
     18 H4         -3.2041   -2.3007    1.0473 H         1 <0>         0.1465
     19 H5          3.1167   -0.1260    0.0600 H         1 <0>         0.1184
     20 H6          2.8304   -0.6013   -1.6283 H         1 <0>         0.1086
     21 H7          3.1338    1.8881   -1.2812 H         1 <0>         0.0939
     22 H8          1.5929    1.4414   -2.0609 H         1 <0>         0.0797
     23 H9          1.3752    3.1361   -0.1607 H         1 <0>         0.0897
     24 H10         1.8906    1.8408    0.9505 H         1 <0>         0.0760
     25 H11        -0.5506    1.8586   -0.8713 H         1 <0>         0.0921
     26 H12        -0.5337    1.8490    0.9057 H         1 <0>         0.0852
     27 H13        -2.2768    1.0157    0.7558 H         1 <0>         0.4265
     28 H14        -3.0975   -0.4265    1.0190 H         1 <0>         0.4221
     29 N2          1.1637   -2.1007   -0.3898 N.ar      1 <0>        -0.5514
     30 H15         2.0097   -2.6092   -0.6727 H         1 <0>         0.4649
@<TRIPOS>BOND
     1    1    6 ar
     2    1    2 ar
     3    1   15 1
     4    2    3 ar
     5    2   16 1
     6    3    4 ar
     7    3   17 1
     8    4    5 ar
     9    4   29 ar
    10    5    6 ar
    11    5    7 ar
    12    6   18 1
    13    7    8 ar
    14    7   14 1
    15    8   13 1
    16    8    9 ar
    17    9   10 1
    18    9   29 ar
    19   10   11 1
    20   10   19 1
    21   10   20 1
    22   11   12 1
    23   11   21 1
    24   11   22 1
    25   12   13 1
    26   12   23 1
    27   12   24 1
    28   13   25 1
    29   13   26 1
    30   14   27 1
    31   14   28 1
    32   29   30 1
