@<TRIPOS>MOLECULE
ZINC04474604
   27    28     0     0     0
SMALL
USER_CHARGES

@<TRIPOS>ATOM
      1 C1         -3.3367   -1.7998    0.9454 C.ar      1 <0>        -0.0334
      2 C2         -4.5646   -1.6558    1.5720 C.ar      1 <0>        -0.1529
      3 C3         -5.0109   -0.3872    1.8967 C.ar      1 <0>         0.1850
      4 N1         -4.2820    0.6766    1.6158 N.ar      1 <0>        -0.4783
      5 C4         -3.1096    0.5761    1.0204 C.ar      1 <0>         0.1406
      6 C5         -2.5996   -0.6587    0.6670 C.ar      1 <0>        -0.1735
      7 C6         -1.2589   -0.7638   -0.0131 C.3       1 <0>         0.1409
      8 N2         -1.4547   -1.0350   -1.4394 N.pl3     1 <0>        -0.6047
      9 C7         -2.0000   -0.0849   -2.4203 C.3       1 <0>         0.0817
     10 C8         -1.9876   -0.8726   -3.7447 C.3       1 <0>         0.0919
     11 N3         -1.4366   -2.1836   -3.3705 N.pl3     1 <0>        -0.6727
     12 C9         -1.1599   -2.1867   -2.0588 C.2       1 <0>         0.6986
     13 N4         -0.6367   -3.2512   -1.4207 N.2       1 <0>        -0.4971
     14 N5         -0.2558   -3.1441   -0.1929 N.pl3     1 <0>         0.2230
     15 O1         -1.0477   -3.5462    0.7796 O.2       1 <0>        -0.2500
     16 O2          0.9248   -2.6326    0.0881 O.3       1 <0>        -0.2646
     17 Cl1        -6.5469   -0.1924    2.6818 Cl        1 <0>        -0.0218
     18 H1         -2.9608   -2.7780    0.6841 H         1 <0>         0.1595
     19 H2         -5.1654   -2.5229    1.8036 H         1 <0>         0.1514
     20 H3         -2.5416    1.4692    0.8061 H         1 <0>         0.1672
     21 H4         -0.7159    0.1737    0.1073 H         1 <0>         0.1114
     22 H5         -0.6864   -1.5755    0.4358 H         1 <0>         0.1266
     23 H6         -3.0181    0.1985   -2.1533 H         1 <0>         0.1007
     24 H7         -1.3633    0.7968   -2.4937 H         1 <0>         0.1061
     25 H8         -2.9995   -0.9803   -4.1352 H         1 <0>         0.1056
     26 H9         -1.3448   -0.3820   -4.4756 H         1 <0>         0.1086
     27 H10        -1.2930   -2.9268   -3.9770 H         1 <0>         0.4500
@<TRIPOS>BOND
     1    1    6 ar
     2    1    2 ar
     3    1   18 1
     4    2    3 ar
     5    2   19 1
     6    3    4 ar
     7    3   17 1
     8    4    5 ar
     9    5    6 ar
    10    5   20 1
    11    6    7 1
    12    7    8 1
    13    7   21 1
    14    7   22 1
    15    8   12 1
    16    8    9 1
    17    9   10 1
    18    9   23 1
    19    9   24 1
    20   10   11 1
    21   10   25 1
    22   10   26 1
    23   11   12 1
    24   11   27 1
    25   12   13 2
    26   13   14 1
    27   14   15 2
    28   14   16 1
@<TRIPOS>MOLECULE
ZINC04474604
   27    28     0     0     0
SMALL
USER_CHARGES

@<TRIPOS>ATOM
      1 C1         -0.0232    1.3761    0.0289 C.ar      1 <0>        -0.0422
      2 C2          1.1873    2.0511    0.0320 C.ar      1 <0>        -0.1593
      3 C3          2.3644    1.3241    0.0228 C.ar      1 <0>         0.1860
      4 N1          2.3421    0.0046    0.0108 N.ar      1 <0>        -0.4757
      5 C4          1.2085   -0.6694    0.0076 C.ar      1 <0>         0.1546
      6 C5         -0.0061   -0.0105    0.0167 C.ar      1 <0>        -0.1801
      7 C6         -1.2963   -0.7892    0.0129 C.3       1 <0>         0.1880
      8 N2         -1.7176   -1.0294   -1.3695 N.pl3     1 <0>        -0.5686
      9 C7         -2.5772   -0.1402   -2.1650 C.3       1 <0>         0.0889
     10 C8         -2.6991   -0.8603   -3.5219 C.3       1 <0>         0.0864
     11 N3         -1.8954   -2.0794   -3.3480 N.pl3     1 <0>        -0.7201
     12 C9         -1.3761   -2.0919   -2.1122 C.2       1 <0>         0.6973
     13 N4         -0.5862   -3.0832   -1.6570 N.2       1 <0>        -0.4965
     14 N5         -0.3770   -4.1272   -2.3854 N.pl3     1 <0>         0.1954
     15 O1          0.6891   -4.1894   -3.1562 O.2       1 <0>        -0.2389
     16 O2         -1.2294   -5.1307   -2.3581 O.3       1 <0>        -0.2492
     17 Cl1         3.8877    2.1568    0.0265 Cl        1 <0>        -0.0218
     18 H1         -0.9578    1.9172    0.0403 H         1 <0>         0.1476
     19 H2          1.2115    3.1308    0.0410 H         1 <0>         0.1502
     20 H3          1.2298   -1.7492   -0.0027 H         1 <0>         0.1706
     21 H4         -1.1463   -1.7433    0.5180 H         1 <0>         0.1138
     22 H5         -2.0660   -0.2195    0.5335 H         1 <0>         0.1128
     23 H6         -3.5565   -0.0362   -1.6978 H         1 <0>         0.1084
     24 H7         -2.1067    0.8350   -2.2905 H         1 <0>         0.1016
     25 H8         -3.7389   -1.1139   -3.7283 H         1 <0>         0.1055
     26 H9         -2.2892   -0.2426   -4.3210 H         1 <0>         0.1031
     27 H10        -1.7598   -2.7640   -4.0217 H         1 <0>         0.4422
@<TRIPOS>BOND
     1    1    6 ar
     2    1    2 ar
     3    1   18 1
     4    2    3 ar
     5    2   19 1
     6    3    4 ar
     7    3   17 1
     8    4    5 ar
     9    5    6 ar
    10    5   20 1
    11    6    7 1
    12    7    8 1
    13    7   21 1
    14    7   22 1
    15    8   12 1
    16    8    9 1
    17    9   10 1
    18    9   23 1
    19    9   24 1
    20   10   11 1
    21   10   25 1
    22   10   26 1
    23   11   12 1
    24   11   27 1
    25   12   13 2
    26   13   14 1
    27   14   15 2
    28   14   16 1
@<TRIPOS>MOLECULE
ZINC04474604
   26    27     0     0     0
SMALL
USER_CHARGES

@<TRIPOS>ATOM
      1 C1         -0.0167    1.3825    0.0096 C.ar      1 <0>        -0.0553
      2 C2          1.1930    2.0590    0.0017 C.ar      1 <0>        -0.1627
      3 C3          2.3709    1.3334   -0.0134 C.ar      1 <0>         0.1701
      4 N1          2.3501    0.0138   -0.0207 N.ar      1 <0>        -0.4798
      5 C4          1.2174   -0.6616   -0.0136 C.ar      1 <0>         0.1507
      6 C5          0.0021   -0.0041    0.0020 C.ar      1 <0>        -0.1462
      7 C6         -1.2872   -0.7844    0.0101 C.3       1 <0>         0.1949
      8 N2         -1.7181   -1.0298   -1.3684 N.pl3     1 <0>        -0.6322
      9 C7         -2.5850   -0.1498   -2.1697 C.3       1 <0>         0.0920
     10 C8         -2.6997   -0.8951   -3.5144 C.3       1 <0>         0.0364
     11 N3         -1.8888   -2.1052   -3.3206 N.2       1 <0>        -0.6245
     12 C9         -1.3789   -2.1126   -2.1323 C.2       1 <0>         0.5431
     13 N4         -0.5682   -3.1241   -1.6745 N.2       1 <0>        -0.5178
     14 N5         -0.2592   -4.2062   -2.5090 N.pl3     1 <0>         0.2255
     15 O1         -0.7055   -4.2504   -3.6317 O.2       1 <0>        -0.2969
     16 O2          0.4537   -5.0958   -2.1064 O.3       1 <0>        -0.3190
     17 Cl1         3.8931    2.1680   -0.0235 Cl        1 <0>        -0.0438
     18 H1         -0.9519    1.9225    0.0259 H         1 <0>         0.1402
     19 H2          1.2158    3.1388    0.0070 H         1 <0>         0.1408
     20 H3          1.2399   -1.7413   -0.0203 H         1 <0>         0.1760
     21 H4         -1.1323   -1.7366    0.5174 H         1 <0>         0.0957
     22 H5         -2.0538   -0.2139    0.5344 H         1 <0>         0.0768
     23 H6         -3.5644   -0.0459   -1.7028 H         1 <0>         0.0602
     24 H7         -2.1189    0.8257   -2.3093 H         1 <0>         0.0548
     25 H8         -3.7376   -1.1591   -3.7176 H         1 <0>         0.0616
     26 H9         -2.2933   -0.2883   -4.3235 H         1 <0>         0.0592
@<TRIPOS>BOND
     1    1    6 ar
     2    1    2 ar
     3    1   18 1
     4    2    3 ar
     5    2   19 1
     6    3    4 ar
     7    3   17 1
     8    4    5 ar
     9    5    6 ar
    10    5   20 1
    11    6    7 1
    12    7    8 1
    13    7   21 1
    14    7   22 1
    15    8   12 1
    16    8    9 1
    17    9   10 1
    18    9   23 1
    19    9   24 1
    20   10   11 1
    21   10   25 1
    22   10   26 1
    23   11   12 2
    24   12   13 1
    25   13   14 1
    26   14   15 2
    27   14   16 1
@<TRIPOS>MOLECULE
ZINC04474604
   26    27     0     0     0
SMALL
USER_CHARGES

@<TRIPOS>ATOM
      1 C1         -0.0167    1.3825    0.0096 C.ar      1 <0>        -0.0532
      2 C2          1.1930    2.0590    0.0017 C.ar      1 <0>        -0.1625
      3 C3          2.3709    1.3334   -0.0134 C.ar      1 <0>         0.1721
      4 N1          2.3501    0.0138   -0.0207 N.ar      1 <0>        -0.4788
      5 C4          1.2174   -0.6616   -0.0136 C.ar      1 <0>         0.1506
      6 C5          0.0021   -0.0041    0.0020 C.ar      1 <0>        -0.1498
      7 C6         -1.2872   -0.7844    0.0101 C.3       1 <0>         0.1883
      8 N2         -1.7181   -1.0298   -1.3684 N.pl3     1 <0>        -0.6118
      9 C7         -2.5845   -0.1444   -2.1607 C.3       1 <0>         0.0913
     10 C8         -2.7153   -0.8693   -3.5142 C.3       1 <0>         0.0217
     11 N3         -1.9088   -2.0868   -3.3420 N.2       1 <0>        -0.5777
     12 C9         -1.3806   -2.0944   -2.1099 C.2       1 <0>         0.5255
     13 N4         -0.5862   -3.0832   -1.6570 N.2       1 <0>        -0.4227
     14 N5         -0.2991   -4.0814   -2.4221 N.pl3     1 <0>         0.2681
     15 O1         -0.7828   -4.1336   -3.6459 O.2       1 <0>        -0.3946
     16 O2          0.4777   -5.0484   -1.9793 O.3       1 <0>        -0.4246
     17 Cl1         3.8931    2.1680   -0.0235 Cl        1 <0>        -0.0420
     18 H1         -0.9519    1.9225    0.0259 H         1 <0>         0.1414
     19 H2          1.2158    3.1388    0.0070 H         1 <0>         0.1418
     20 H3          1.2399   -1.7413   -0.0203 H         1 <0>         0.1764
     21 H4         -1.1323   -1.7366    0.5174 H         1 <0>         0.1001
     22 H5         -2.0538   -0.2139    0.5344 H         1 <0>         0.0828
     23 H6         -3.5605   -0.0401   -1.6868 H         1 <0>         0.0654
     24 H7         -2.1161    0.8309   -2.2928 H         1 <0>         0.0600
     25 H8         -3.7562   -1.1248   -3.7123 H         1 <0>         0.0673
     26 H9         -2.3118   -0.2538   -4.3183 H         1 <0>         0.0649
@<TRIPOS>BOND
     1    1    6 ar
     2    1    2 ar
     3    1   18 1
     4    2    3 ar
     5    2   19 1
     6    3    4 ar
     7    3   17 1
     8    4    5 ar
     9    5    6 ar
    10    5   20 1
    11    6    7 1
    12    7    8 1
    13    7   21 1
    14    7   22 1
    15    8   12 1
    16    8    9 1
    17    9   10 1
    18    9   23 1
    19    9   24 1
    20   10   11 1
    21   10   25 1
    22   10   26 1
    23   11   12 1
    24   12   13 2
    25   13   14 1
    26   14   15 2
    27   14   16 1
@<TRIPOS>MOLECULE
ZINC04474604
   26    27     0     0     0
SMALL
USER_CHARGES

@<TRIPOS>ATOM
      1 C1         -3.3367   -1.7998    0.9453 C.ar      1 <0>        -0.0336
      2 C2         -4.5646   -1.6558    1.5720 C.ar      1 <0>        -0.1545
      3 C3         -5.0109   -0.3872    1.8967 C.ar      1 <0>         0.1698
      4 N1         -4.2820    0.6766    1.6158 N.ar      1 <0>        -0.4846
      5 C4         -3.1096    0.5761    1.0204 C.ar      1 <0>         0.1245
      6 C5         -2.5996   -0.6587    0.6670 C.ar      1 <0>        -0.1426
      7 C6         -1.2589   -0.7638   -0.0131 C.3       1 <0>         0.1390
      8 N2         -1.4547   -1.0350   -1.4394 N.pl3     1 <0>        -0.6490
      9 C7         -2.0000   -0.0849   -2.4203 C.3       1 <0>         0.0881
     10 C8         -1.9876   -0.8726   -3.7447 C.3       1 <0>         0.0485
     11 N3         -1.4366   -2.1836   -3.3705 N.2       1 <0>        -0.6488
     12 C9         -1.1599   -2.1867   -2.0588 C.2       1 <0>         0.6094
     13 N4         -0.6367   -3.2512   -1.4207 N.2       1 <0>        -0.5267
     14 N5         -0.2558   -3.1441   -0.1929 N.pl3     1 <0>         0.2724
     15 O1         -1.0477   -3.5462    0.7796 O.2       1 <0>        -0.3324
     16 O2          0.9248   -2.6326    0.0881 O.3       1 <0>        -0.3484
     17 Cl1        -6.5469   -0.1924    2.6818 Cl        1 <0>        -0.0430
     18 H1         -2.9608   -2.7780    0.6841 H         1 <0>         0.1647
     19 H2         -5.1654   -2.5229    1.8036 H         1 <0>         0.1445
     20 H3         -2.5416    1.4692    0.8061 H         1 <0>         0.1613
     21 H4         -0.7159    0.1737    0.1073 H         1 <0>         0.0780
     22 H5         -0.6864   -1.5755    0.4358 H         1 <0>         0.1225
     23 H6         -3.0181    0.1985   -2.1533 H         1 <0>         0.0583
     24 H7         -1.3633    0.7968   -2.4937 H         1 <0>         0.0626
     25 H8         -2.9995   -0.9803   -4.1352 H         1 <0>         0.0586
     26 H9         -1.3448   -0.3820   -4.4756 H         1 <0>         0.0617
@<TRIPOS>BOND
     1    1    6 ar
     2    1    2 ar
     3    1   18 1
     4    2    3 ar
     5    2   19 1
     6    3    4 ar
     7    3   17 1
     8    4    5 ar
     9    5    6 ar
    10    5   20 1
    11    6    7 1
    12    7    8 1
    13    7   21 1
    14    7   22 1
    15    8   12 1
    16    8    9 1
    17    9   10 1
    18    9   23 1
    19    9   24 1
    20   10   11 1
    21   10   25 1
    22   10   26 1
    23   11   12 1
    24   12   13 2
    25   13   14 1
    26   14   15 2
    27   14   16 1
@<TRIPOS>MOLECULE
ZINC13828082
   25    26     0     0     0
SMALL
USER_CHARGES

@<TRIPOS>ATOM
      1 C1         -0.0167    1.3825    0.0096 C.ar      1 <0>        -0.0454
      2 C2          1.1930    2.0590    0.0017 C.ar      1 <0>        -0.1563
      3 C3          2.3709    1.3334   -0.0134 C.ar      1 <0>         0.1824
      4 N1          2.3501    0.0138   -0.0207 N.ar      1 <0>        -0.4760
      5 C4          1.2174   -0.6616   -0.0136 C.ar      1 <0>         0.1457
      6 C5          0.0021   -0.0041    0.0020 C.ar      1 <0>        -0.1686
      7 C6         -1.2872   -0.7844    0.0101 C.3       1 <0>         0.1628
      8 N2         -1.7181   -1.0298   -1.3684 N.pl3     1 <0>        -0.5873
      9 C7         -2.5773   -0.0773   -2.0451 C.3       1 <0>         0.1022
     10 C8         -2.8970   -0.4860   -3.5026 C.3       1 <0>        -0.0838
     11 S1         -1.6298   -1.8006   -3.7476 S.3       1 <0>        -0.1670
     12 C9         -1.3082   -2.1563   -2.0278 C.2       1 <0>         0.4909
     13 N3         -0.7927   -3.2587   -1.5101 N.2       1 <0>        -0.4701
     14 C10        -0.4392   -4.2863   -2.3195 C.1       1 <0>         0.3757
     15 N4         -0.1429   -5.1478   -2.9981 N.1       1 <0>        -0.4148
     16 Cl1         3.8931    2.1680   -0.0235 Cl        1 <0>        -0.0239
     17 H1         -0.9519    1.9225    0.0259 H         1 <0>         0.1466
     18 H2          1.2158    3.1388    0.0070 H         1 <0>         0.1493
     19 H3          1.2399   -1.7413   -0.0203 H         1 <0>         0.1687
     20 H4         -1.1323   -1.7366    0.5174 H         1 <0>         0.1140
     21 H5         -2.0538   -0.2139    0.5344 H         1 <0>         0.1029
     22 H6         -3.5120    0.0086   -1.4910 H         1 <0>         0.1004
     23 H7         -2.0860    0.8957   -2.0526 H         1 <0>         0.0956
     24 H8         -3.9066   -0.8876   -3.5892 H         1 <0>         0.1209
     25 H9         -2.7435    0.3457   -4.1902 H         1 <0>         0.1351
@<TRIPOS>BOND
     1    1    6 ar
     2    1    2 ar
     3    1   17 1
     4    2    3 ar
     5    2   18 1
     6    3    4 ar
     7    3   16 1
     8    4    5 ar
     9    5    6 ar
    10    5   19 1
    11    6    7 1
    12    7    8 1
    13    7   20 1
    14    7   21 1
    15    8   12 1
    16    8    9 1
    17    9   10 1
    18    9   22 1
    19    9   23 1
    20   10   11 1
    21   10   24 1
    22   10   25 1
    23   11   12 1
    24   12   13 2
    25   13   14 1
    26   14   15 3
