@<TRIPOS>MOLECULE
ZINC00517556
   30    31     0     0     0
SMALL
USER_CHARGES

@<TRIPOS>ATOM
      1 C1         -0.0178    1.4648    0.0101 C.3       1 <0>        -0.0502
      2 N1          0.0021   -0.0041    0.0020 N.4       1 <0>        -0.3831
      3 C2         -1.3756   -0.5106    0.0035 C.3       1 <0>        -0.0061
      4 C3         -1.3615   -2.0381   -0.0867 C.3       1 <0>        -0.1483
      5 C4         -0.6051   -2.6081    1.1167 C.3       1 <0>        -0.1380
      6 C5          0.8066   -2.0155    1.1472 C.3       1 <0>        -0.1367
      7 C6          0.7122   -0.4888    1.1916 C.3       1 <0>         0.0881
      8 H1          0.1701   -0.1847    2.0870 H         1 <0>         0.1437
      9 C7          2.0995    0.0990    1.2220 C.ar      1 <0>        -0.1962
     10 C8          2.6573    0.5208    2.4195 C.ar      1 <0>        -0.0428
     11 C9          3.9362    1.0553    2.3996 C.ar      1 <0>        -0.1556
     12 C10         4.6083    1.1492    1.1954 C.ar      1 <0>         0.1278
     13 N2          4.0464    0.7383    0.0756 N.ar      1 <0>        -0.4674
     14 C11         2.8341    0.2191    0.0578 C.ar      1 <0>         0.1030
     15 H2          1.0047    1.8421    0.0024 H         1 <0>         0.1201
     16 H3         -0.5450    1.8259   -0.8730 H         1 <0>         0.1277
     17 H4         -0.5280    1.8163    0.9069 H         1 <0>         0.1236
     18 H5         -1.8732   -0.2060    0.9241 H         1 <0>         0.1300
     19 H6         -1.9135   -0.1015   -0.8518 H         1 <0>         0.1340
     20 H7         -2.3852   -2.4123   -0.0837 H         1 <0>         0.1148
     21 H8         -0.8642   -2.3438   -1.0072 H         1 <0>         0.0889
     22 H9         -1.1305   -2.3457    2.0350 H         1 <0>         0.0834
     23 H10        -0.5433   -3.6927    1.0279 H         1 <0>         0.0976
     24 H11         1.3327   -2.3735    2.0321 H         1 <0>         0.1124
     25 H12         1.3489   -2.3207    0.2523 H         1 <0>         0.0897
     26 H13         2.1081    0.4354    3.3456 H         1 <0>         0.1469
     27 H14         4.4015    1.3942    3.3134 H         1 <0>         0.1525
     28 H15         5.6050    1.5644    1.1714 H         1 <0>         0.1717
     29 H16         2.4088   -0.1115   -0.8782 H         1 <0>         0.1477
     30 H17         0.4767   -0.3284   -0.8272 H         1 <0>         0.4206
@<TRIPOS>BOND
     1    1    2 1
     2    1   15 1
     3    1   16 1
     4    1   17 1
     5    2    7 1
     6    2    3 1
     7    2   30 1
     8    3    4 1
     9    3   18 1
    10    3   19 1
    11    4    5 1
    12    4   20 1
    13    4   21 1
    14    5    6 1
    15    5   22 1
    16    5   23 1
    17    6    7 1
    18    6   24 1
    19    6   25 1
    20    7    8 1
    21    7    9 1
    22    9   14 ar
    23    9   10 ar
    24   10   11 ar
    25   10   26 1
    26   11   12 ar
    27   11   27 1
    28   12   13 ar
    29   12   28 1
    30   13   14 ar
    31   14   29 1
@<TRIPOS>MOLECULE
ZINC00517558
   30    31     0     0     0
SMALL
USER_CHARGES
3-[(2R)-1-methyl-2-piperidyl]pyridine
@<TRIPOS>ATOM
      1 C1          3.4744    2.1416    1.2751 C.3       1 <0>        -0.0457
      2 C2          1.4188    2.0518   -0.0005 C.3       1 <0>        -0.0009
      3 C3         -0.0187    1.5270    0.0104 C.3       1 <0>        -0.1495
      4 C4          0.0021   -0.0041    0.0020 C.3       1 <0>        -0.1378
      5 C5          0.7943   -0.5026    1.2138 C.3       1 <0>        -0.1380
      6 C6          2.2082    0.0811    1.1680 C.3       1 <0>         0.0931
      7 H1          2.7088   -0.2507    0.2584 H         1 <0>         0.1453
      8 C7          2.9855   -0.3910    2.3697 C.ar      1 <0>        -0.1960
      9 C8          3.8814   -1.4434    2.2572 C.ar      1 <0>        -0.0430
     10 C9          4.5744   -1.8438    3.3891 C.ar      1 <0>        -0.1553
     11 C10         4.3509   -1.1854    4.5838 C.ar      1 <0>         0.1274
     12 N1          3.4910   -0.1882    4.6537 N.ar      1 <0>        -0.4672
     13 C11         2.8186    0.2231    3.5963 C.ar      1 <0>         0.1020
     14 H2          4.0732    1.8281    0.4200 H         1 <0>         0.1247
     15 H3          3.3906    3.2284    1.2810 H         1 <0>         0.1257
     16 H4          3.9538    1.8092    2.1958 H         1 <0>         0.1181
     17 H5          1.9231    1.7108   -0.9046 H         1 <0>         0.1315
     18 H6          1.4077    3.1416    0.0199 H         1 <0>         0.1319
     19 H7         -0.5449    1.8886   -0.8730 H         1 <0>         0.1145
     20 H8         -0.5279    1.8791    0.9076 H         1 <0>         0.0886
     21 H9         -1.0188   -0.3825    0.0535 H         1 <0>         0.0973
     22 H10         0.4756   -0.3569   -0.9142 H         1 <0>         0.0833
     23 H11         0.2979   -0.1824    2.1299 H         1 <0>         0.0894
     24 H12         0.8484   -1.5910    1.1905 H         1 <0>         0.1122
     25 H13         4.0359   -1.9391    1.3102 H         1 <0>         0.1469
     26 H14         5.2803   -2.6596    3.3381 H         1 <0>         0.1525
     27 H15         4.8865   -1.4915    5.4703 H         1 <0>         0.1717
     28 H16         2.1263    1.0466    3.6911 H         1 <0>         0.1472
     29 N2          2.1196    1.5565    1.2032 N.4       1 <0>        -0.3942
     30 H17         1.5900    1.8385    2.0365 H         1 <0>         0.4244
@<TRIPOS>BOND
     1    1   14 1
     2    1   15 1
     3    1   16 1
     4    1   29 1
     5    2    3 1
     6    2   17 1
     7    2   18 1
     8    2   29 1
     9    3    4 1
    10    3   19 1
    11    3   20 1
    12    4    5 1
    13    4   21 1
    14    4   22 1
    15    5    6 1
    16    5   23 1
    17    5   24 1
    18    6    7 1
    19    6    8 1
    20    6   29 1
    21    8   13 ar
    22    8    9 ar
    23    9   10 ar
    24    9   25 1
    25   10   11 ar
    26   10   26 1
    27   11   12 ar
    28   11   27 1
    29   12   13 ar
    30   13   28 1
    31   29   30 1
@<TRIPOS>MOLECULE
ZINC00005898
   24    25     0     0     0
SMALL
USER_CHARGES
3-[(2R)-pyrrolidin-2-yl]pyridine
@<TRIPOS>ATOM
      1 C1         -3.5303    4.7937   -3.0864 C.ar      1 <0>        -0.1553
      2 C2         -3.3015    3.6409   -2.3505 C.ar      1 <0>        -0.0406
      3 C3         -2.2630    3.6396   -1.4321 C.ar      1 <0>        -0.1948
      4 C4         -1.4884    4.7755   -1.2899 C.ar      1 <0>         0.1032
      5 N1         -1.7311    5.8521   -2.0114 N.ar      1 <0>        -0.4673
      6 C5         -2.7136    5.8909   -2.8903 C.ar      1 <0>         0.1291
      7 C6         -1.9784    2.4133   -0.6038 C.3       1 <0>         0.0880
      8 H1         -2.8671    1.7856   -0.5376 H         1 <0>         0.1514
      9 C7         -0.8008    1.6177   -1.2067 C.3       1 <0>        -0.1418
     10 C8         -0.0127    1.0858    0.0080 C.3       1 <0>        -0.1510
     11 C9         -0.7780    1.6049    1.2442 C.3       1 <0>        -0.0060
     12 H2         -4.3332    4.8316   -3.8077 H         1 <0>         0.1533
     13 H3         -3.9205    2.7663   -2.4863 H         1 <0>         0.1482
     14 H4         -0.6746    4.7812   -0.5798 H         1 <0>         0.1483
     15 H5         -2.8820    6.7908   -3.4632 H         1 <0>         0.1724
     16 H6         -0.1711    2.2719   -1.8096 H         1 <0>         0.1009
     17 H7         -1.1729    0.7888   -1.8090 H         1 <0>         0.1144
     18 H8          0.0021   -0.0041    0.0020 H         1 <0>         0.1134
     19 H9          1.0044    1.4776    0.0004 H         1 <0>         0.1017
     20 H10        -1.4779    0.8500    1.6026 H         1 <0>         0.1366
     21 H11        -0.0803    1.8832    2.0340 H         1 <0>         0.1435
     22 N2         -1.5074    2.7697    0.7356 N.4       1 <0>        -0.5148
     23 H12        -2.3044    2.9835    1.3466 H         1 <0>         0.4380
     24 H13        -0.8848    3.5847    0.6874 H         1 <0>         0.4294
@<TRIPOS>BOND
     1    1    6 ar
     2    1    2 ar
     3    1   12 1
     4    2    3 ar
     5    2   13 1
     6    3    4 ar
     7    3    7 1
     8    4    5 ar
     9    4   14 1
    10    5    6 ar
    11    6   15 1
    12    7    8 1
    13    7    9 1
    14    7   22 1
    15    9   10 1
    16    9   16 1
    17    9   17 1
    18   10   11 1
    19   10   18 1
    20   10   19 1
    21   11   20 1
    22   11   21 1
    23   11   22 1
    24   22   23 1
    25   22   24 1
@<TRIPOS>MOLECULE
ZINC00391820
   24    25     0     0     0
SMALL
USER_CHARGES

@<TRIPOS>ATOM
      1 C1         -0.0167    1.3776    0.0096 C.ar      1 <0>        -0.1555
      2 C2          1.1849    2.0698    0.0019 C.ar      1 <0>        -0.0408
      3 C3          2.3651    1.3426   -0.0133 C.ar      1 <0>        -0.1999
      4 C4          2.3054   -0.0383   -0.0202 C.ar      1 <0>         0.1010
      5 N1          1.1443   -0.6632   -0.0129 N.ar      1 <0>        -0.4674
      6 C5          0.0021   -0.0041    0.0020 C.ar      1 <0>         0.1293
      7 C6          3.6964    2.0488   -0.0227 C.3       1 <0>         0.0843
      8 H1          3.5738    3.0754    0.3224 H         1 <0>         0.1494
      9 C7          4.2846    2.0413   -1.4494 C.3       1 <0>        -0.1342
     10 C8          5.8001    1.8213   -1.2015 C.3       1 <0>        -0.1434
     11 C9          5.7823    0.8677    0.0191 C.3       1 <0>        -0.0105
     12 N2          4.6482    1.3366    0.8495 N.4       1 <0>        -0.5163
     13 H2         -0.9552    1.9117    0.0259 H         1 <0>         0.1533
     14 H3          1.2009    3.1496    0.0072 H         1 <0>         0.1483
     15 H4          3.2203   -0.6121   -0.0320 H         1 <0>         0.1503
     16 H5         -0.9294   -0.5505    0.0083 H         1 <0>         0.1724
     17 H6          3.8668    1.2219   -2.0342 H         1 <0>         0.1017
     18 H7          4.1096    2.9971   -1.9434 H         1 <0>         0.1173
     19 H8          6.2715    1.3459   -2.0616 H         1 <0>         0.1204
     20 H9          6.2960    2.7605   -0.9560 H         1 <0>         0.1020
     21 H10         5.6177   -0.1600   -0.3047 H         1 <0>         0.1349
     22 H11         6.7162    0.9461    0.5756 H         1 <0>         0.1412
     23 H12         4.9851    1.9618    1.5663 H         1 <0>         0.4341
     24 H13         4.1901    0.5462    1.2779 H         1 <0>         0.4283
@<TRIPOS>BOND
     1    1    6 ar
     2    1    2 ar
     3    1   13 1
     4    2    3 ar
     5    2   14 1
     6    3    4 ar
     7    3    7 1
     8    4    5 ar
     9    4   15 1
    10    5    6 ar
    11    6   16 1
    12    7    8 1
    13    7   12 1
    14    7    9 1
    15    9   10 1
    16    9   17 1
    17    9   18 1
    18   10   11 1
    19   10   19 1
    20   10   20 1
    21   11   12 1
    22   11   21 1
    23   11   22 1
    24   12   23 1
    25   12   24 1
@<TRIPOS>MOLECULE
ZINC00050682
   37    39     0     0     0
SMALL
USER_CHARGES
[(3R)-quinuclidin-3-yl] N-phenylcarbamate
@<TRIPOS>ATOM
      1 C1         -1.2361    3.1344    0.0548 C.ar      1 <0>        -0.1207
      2 C2         -1.1447    1.9023   -0.5663 C.ar      1 <0>        -0.0979
      3 C3          0.0587    1.2248   -0.5860 C.ar      1 <0>        -0.1338
      4 C4          1.1804    1.7877    0.0084 C.ar      1 <0>         0.1371
      5 C5          1.0869    3.0280    0.6258 C.ar      1 <0>        -0.1178
      6 C6         -0.1208    3.6978    0.6471 C.ar      1 <0>        -0.1010
      7 N1          2.4026    1.1062   -0.0145 N.am      1 <0>        -0.6400
      8 C7          3.5561    1.7947   -0.1236 C.2       1 <0>         0.6471
      9 O1          3.5414    3.0097   -0.1174 O.2       1 <0>        -0.5448
     10 O2          4.7248    1.1361   -0.2393 O.3       1 <0>        -0.3538
     11 C8          5.9273    1.9421   -0.3526 C.3       1 <0>         0.0992
     12 H1          5.6882    2.8886   -0.8376 H         1 <0>         0.1270
     13 C9          6.5005    2.2076    1.0424 C.3       1 <0>        -0.0202
     14 C10         7.8492    0.1984    0.9308 C.3       1 <0>        -0.0023
     15 C11         7.3141   -0.1243   -0.4672 C.3       1 <0>        -0.1361
     16 C12         6.9744    1.1892   -1.1829 C.3       1 <0>        -0.0987
     17 C13         8.2443    2.0459   -1.2621 C.3       1 <0>        -0.1340
     18 C14         8.7536    2.3077    0.1581 C.3       1 <0>        -0.0052
     19 H2         -2.1793    3.6602    0.0727 H         1 <0>         0.1301
     20 H3         -2.0163    1.4672   -1.0325 H         1 <0>         0.1335
     21 H4          0.1283    0.2603   -1.0669 H         1 <0>         0.1297
     22 H5          1.9576    3.4686    1.0886 H         1 <0>         0.1376
     23 H6         -0.1942    4.6625    1.1271 H         1 <0>         0.1306
     24 H7          2.4195    0.1384    0.0481 H         1 <0>         0.4201
     25 H8          6.5333    3.2819    1.2236 H         1 <0>         0.1439
     26 H9          5.8684    1.7313    1.7919 H         1 <0>         0.1368
     27 H10         7.2080   -0.2638    1.6813 H         1 <0>         0.1288
     28 H11         8.8632   -0.1890    1.0304 H         1 <0>         0.1321
     29 H12         6.4163   -0.7366   -0.3822 H         1 <0>         0.1068
     30 H13         8.0720   -0.6641   -1.0348 H         1 <0>         0.1055
     31 H14         6.5847    0.9829   -2.1798 H         1 <0>         0.1267
     32 H15         9.0075    1.5158   -1.8318 H         1 <0>         0.1128
     33 H16         8.0154    2.9941   -1.7485 H         1 <0>         0.1059
     34 H17         8.7709    3.3812    0.3462 H         1 <0>         0.1320
     35 H18         9.7603    1.9033    0.2637 H         1 <0>         0.1341
     36 N2          7.8699    1.6601    1.1509 N.4       1 <0>        -0.3885
     37 H19         8.2311    1.8503    2.0930 H         1 <0>         0.4373
@<TRIPOS>BOND
     1    1    6 ar
     2    1    2 ar
     3    1   19 1
     4    2    3 ar
     5    2   20 1
     6    3    4 ar
     7    3   21 1
     8    4    5 ar
     9    4    7 1
    10    5    6 ar
    11    5   22 1
    12    6   23 1
    13    7    8 am
    14    7   24 1
    15    8    9 2
    16    8   10 1
    17   10   11 1
    18   11   12 1
    19   11   16 1
    20   11   13 1
    21   13   25 1
    22   13   26 1
    23   13   36 1
    24   14   15 1
    25   14   27 1
    26   14   28 1
    27   14   36 1
    28   15   16 1
    29   15   29 1
    30   15   30 1
    31   16   17 1
    32   16   31 1
    33   17   18 1
    34   17   32 1
    35   17   33 1
    36   18   34 1
    37   18   35 1
    38   18   36 1
    39   36   37 1
@<TRIPOS>MOLECULE
ZINC19202664
   24    25     0     0     0
SMALL
USER_CHARGES

@<TRIPOS>ATOM
      1 C1         -0.0187    1.5301    0.0105 C.3       1 <0>        -0.1389
      2 C2          1.4229    2.0435   -0.0006 C.3       1 <0>        -0.0082
      3 N1          2.3570    0.9152   -0.0151 N.4       1 <0>        -0.3728
      4 C3          2.1700    0.1067   -1.2222 C.3       1 <0>        -0.0035
      5 C4          0.7532   -0.4710   -1.2518 C.3       1 <0>        -0.1307
      6 C5          0.0021   -0.0041    0.0020 C.3       1 <0>        -0.0987
      7 C6          0.7765   -0.4843    1.2365 C.3       1 <0>         0.0776
      8 H1          0.2731   -0.1404    2.1401 H         1 <0>         0.0732
      9 C7          2.1925    0.0940    1.1866 C.3       1 <0>        -0.0040
     10 N2          0.8410   -1.9519    1.2371 N.3       1 <0>        -0.8456
     11 H2         -0.5255    1.8836    0.9084 H         1 <0>         0.0992
     12 H3         -0.5425    1.8932   -0.8738 H         1 <0>         0.1036
     13 H4          1.5818    2.6562   -0.8880 H         1 <0>         0.1312
     14 H5          1.5986    2.6471    0.8899 H         1 <0>         0.1293
     15 H6          2.3249    0.7301   -2.1027 H         1 <0>         0.1273
     16 H7          2.8933   -0.7088   -1.2268 H         1 <0>         0.1301
     17 H8          0.2331   -0.1174   -2.1421 H         1 <0>         0.0948
     18 H9          0.8028   -1.5598   -1.2636 H         1 <0>         0.1099
     19 H10        -1.0152   -0.3956    0.0005 H         1 <0>         0.1145
     20 H11         2.9157   -0.7213    1.1693 H         1 <0>         0.1371
     21 H12         2.3636    0.7083    2.0706 H         1 <0>         0.1296
     22 H13         1.3468   -2.2913    2.0415 H         1 <0>         0.3558
     23 H14        -0.0833   -2.3544    1.1948 H         1 <0>         0.3623
     24 H15         3.2977    1.2798   -0.0264 H         1 <0>         0.4268
@<TRIPOS>BOND
     1    1    6 1
     2    1    2 1
     3    1   11 1
     4    1   12 1
     5    2    3 1
     6    2   13 1
     7    2   14 1
     8    3    9 1
     9    3    4 1
    10    3   24 1
    11    4    5 1
    12    4   15 1
    13    4   16 1
    14    5    6 1
    15    5   17 1
    16    5   18 1
    17    6    7 1
    18    6   19 1
    19    7    8 1
    20    7    9 1
    21    7   10 1
    22    9   20 1
    23    9   21 1
    24   10   22 1
    25   10   23 1
@<TRIPOS>MOLECULE
ZINC19202664
   25    26     0     0     0
SMALL
USER_CHARGES

@<TRIPOS>ATOM
      1 C1         -0.0187    1.5301    0.0105 C.3       1 <0>        -0.1357
      2 C2          1.4229    2.0435   -0.0006 C.3       1 <0>        -0.0170
      3 N1          2.3570    0.9152   -0.0151 N.4       1 <0>        -0.3763
      4 C3          2.1700    0.1067   -1.2222 C.3       1 <0>        -0.0229
      5 C4          0.7532   -0.4710   -1.2518 C.3       1 <0>        -0.1563
      6 C5          0.0021   -0.0041    0.0020 C.3       1 <0>        -0.1220
      7 C6          0.7765   -0.4843    1.2365 C.3       1 <0>         0.0188
      8 H1          0.2731   -0.1404    2.1401 H         1 <0>         0.1803
      9 C7          2.1925    0.0940    1.1866 C.3       1 <0>        -0.0263
     10 N2          0.8410   -1.9519    1.2371 N.4       1 <0>        -0.6379
     11 H2         -0.5255    1.8836    0.9084 H         1 <0>         0.1160
     12 H3         -0.5425    1.8932   -0.8738 H         1 <0>         0.1238
     13 H4          1.5818    2.6562   -0.8880 H         1 <0>         0.1468
     14 H5          1.5986    2.6471    0.8899 H         1 <0>         0.1439
     15 H6          2.3249    0.7301   -2.1027 H         1 <0>         0.1508
     16 H7          2.8933   -0.7088   -1.2268 H         1 <0>         0.1389
     17 H8          0.2331   -0.1174   -2.1421 H         1 <0>         0.1308
     18 H9          0.8028   -1.5598   -1.2636 H         1 <0>         0.0978
     19 H10        -1.0152   -0.3956    0.0005 H         1 <0>         0.1455
     20 H11         2.9157   -0.7213    1.1693 H         1 <0>         0.1482
     21 H12         2.3636    0.7083    2.0706 H         1 <0>         0.1702
     22 H13         1.3111   -2.2682    0.4022 H         1 <0>         0.4336
     23 H14         1.3505   -2.2658    2.0494 H         1 <0>         0.4489
     24 H15         3.2977    1.2798   -0.0264 H         1 <0>         0.4459
     25 H16        -0.0944   -2.3296    1.2600 H         1 <0>         0.4541
@<TRIPOS>BOND
     1    1    6 1
     2    1    2 1
     3    1   11 1
     4    1   12 1
     5    2    3 1
     6    2   13 1
     7    2   14 1
     8    3    9 1
     9    3    4 1
    10    3   24 1
    11    4    5 1
    12    4   15 1
    13    4   16 1
    14    5    6 1
    15    5   17 1
    16    5   18 1
    17    6    7 1
    18    6   19 1
    19    7    8 1
    20    7    9 1
    21    7   10 1
    22    9   20 1
    23    9   21 1
    24   10   22 1
    25   10   23 1
    26   10   25 1
@<TRIPOS>MOLECULE
ZINC00403368
   20    20     0     0     0
SMALL
USER_CHARGES
2-(3-pyridyl)ethanamine
@<TRIPOS>ATOM
      1 C1         -0.0126    1.0758    0.0080 C.ar      1 <0>        -0.1663
      2 C2          1.1736    1.7941    0.0005 C.ar      1 <0>        -0.0636
      3 C3          1.1065    3.1788    0.0086 C.ar      1 <0>        -0.1676
      4 C4         -0.1317    3.7930    0.0238 C.ar      1 <0>         0.1133
      5 N1         -1.2394    3.0777    0.0305 N.ar      1 <0>        -0.4784
      6 C5         -1.2136    1.7592    0.0173 C.ar      1 <0>         0.1178
      7 C6          2.3675    4.0039    0.0015 C.3       1 <0>        -0.0983
      8 C7          2.7810    4.2909   -1.4433 C.3       1 <0>        -0.0022
      9 H1          0.0021   -0.0041    0.0020 H         1 <0>         0.1447
     10 H2          2.1270    1.2869   -0.0117 H         1 <0>         0.1376
     11 H3         -0.1926    4.8713    0.0305 H         1 <0>         0.1565
     12 H4         -2.1418    1.2071    0.0183 H         1 <0>         0.1652
     13 H5          2.1890    4.9447    0.5221 H         1 <0>         0.1002
     14 H6          3.1635    3.4553    0.5051 H         1 <0>         0.0978
     15 H7          2.9595    3.3501   -1.9639 H         1 <0>         0.1327
     16 H8          1.9850    4.8395   -1.9469 H         1 <0>         0.1370
     17 H9          4.3042    5.2983   -2.3939 H         1 <0>         0.4421
     18 H10         3.8899    5.9442   -0.9184 H         1 <0>         0.4383
     19 N2          4.0260    5.0791   -1.4388 N.4       1 <0>        -0.6469
     20 H11         4.7702    4.5320   -0.9903 H         1 <0>         0.4400
@<TRIPOS>BOND
     1    1    6 ar
     2    1    2 ar
     3    1    9 1
     4    2    3 ar
     5    2   10 1
     6    3    4 ar
     7    3    7 1
     8    4    5 ar
     9    4   11 1
    10    5    6 ar
    11    6   12 1
    12    7    8 1
    13    7   13 1
    14    7   14 1
    15    8   15 1
    16    8   16 1
    17    8   19 1
    18   17   19 1
    19   18   19 1
    20   19   20 1
@<TRIPOS>MOLECULE
ZINC64540331
   51    55     0     0     0
SMALL
USER_CHARGES

@<TRIPOS>ATOM
      1 C1         -0.0165    1.3620    0.0095 C.ar      1 <0>        -0.1335
      2 C2          1.1708    2.0817    0.0021 C.ar      1 <0>        -0.0695
      3 C3          2.3870    1.4341   -0.0131 C.ar      1 <0>        -0.1161
      4 C4          2.4312    0.0446   -0.0210 C.ar      1 <0>         0.0768
      5 C5          1.2247   -0.6799   -0.0133 C.ar      1 <0>        -0.1529
      6 C6          0.0021   -0.0041    0.0020 C.ar      1 <0>        -0.0532
      7 C7          1.6095   -2.0907   -0.0246 C.2       1 <0>        -0.0815
      8 C8          2.9674   -2.1102   -0.0377 C.2       1 <0>        -0.0575
      9 O1          3.4413   -0.8467   -0.0354 O.3       1 <0>        -0.1910
     10 C9          3.7957   -3.3242   -0.0517 C.2       1 <0>         0.6159
     11 O2          3.2684   -4.4205   -0.0522 O.2       1 <0>        -0.4965
     12 N1          5.1396   -3.2229   -0.0640 N.am      1 <0>        -0.7246
     13 C10         5.9653   -4.4330   -0.0780 C.3       1 <0>         0.1433
     14 H1          5.4707   -5.2059   -0.6663 H         1 <0>         0.1312
     15 C11         7.3303   -4.1154   -0.6928 C.3       1 <0>         0.0253
     16 H2          7.3617   -3.0644   -0.9803 H         1 <0>         0.1433
     17 N2          8.3929   -4.3856    0.2785 N.4       1 <0>        -0.3741
     18 C12         8.2371   -3.5374    1.4625 C.3       1 <0>        -0.0092
     19 C13         6.9022   -3.8357    2.1489 C.3       1 <0>        -0.1386
     20 C14         6.1703   -4.9322    1.3583 C.3       1 <0>        -0.1138
     21 C15         7.0676   -6.1761    1.3148 C.3       1 <0>        -0.1317
     22 C16         8.3997   -5.8011    0.6551 C.3       1 <0>        -0.0206
     23 C17         7.5443   -4.9872   -1.9317 C.3       1 <0>        -0.0924
     24 C18         8.8311   -4.5910   -2.6087 C.ar      1 <0>        -0.1827
     25 C19         8.8367   -3.6051   -3.5839 C.ar      1 <0>        -0.0571
     26 C20        10.0437   -3.2732   -4.1796 C.ar      1 <0>        -0.1559
     27 C21        11.1932   -3.9313   -3.7845 C.ar      1 <0>         0.1176
     28 N3         11.1502   -4.8643   -2.8539 N.ar      1 <0>        -0.4694
     29 C22        10.0211   -5.2014   -2.2615 C.ar      1 <0>         0.0819
     30 H3         -0.9609    1.8855    0.0259 H         1 <0>         0.1384
     31 H4          1.1408    3.1613    0.0078 H         1 <0>         0.1432
     32 H5          3.3039    2.0047   -0.0191 H         1 <0>         0.1368
     33 H6         -0.9244   -0.5591    0.0083 H         1 <0>         0.1360
     34 H7          0.9478   -2.9443   -0.0229 H         1 <0>         0.1731
     35 H8          5.5601   -2.3488   -0.0637 H         1 <0>         0.4101
     36 H9          9.0531   -3.7337    2.1580 H         1 <0>         0.1364
     37 H10         8.2635   -2.4897    1.1629 H         1 <0>         0.1287
     38 H11         7.0839   -4.1798    3.1671 H         1 <0>         0.1064
     39 H12         6.2924   -2.9325    2.1698 H         1 <0>         0.0995
     40 H13         5.2093   -5.1579    1.8204 H         1 <0>         0.1262
     41 H14         7.2482   -6.5319    2.3291 H         1 <0>         0.1090
     42 H15         6.5799   -6.9581    0.7327 H         1 <0>         0.1056
     43 H16         8.5450   -6.4117   -0.2361 H         1 <0>         0.1326
     44 H17         9.2150   -5.9854    1.3546 H         1 <0>         0.1382
     45 H18         7.5978   -6.0345   -1.6342 H         1 <0>         0.1071
     46 H19         6.7126   -4.8478   -2.6223 H         1 <0>         0.1255
     47 H20         7.9225   -3.1079   -3.8726 H         1 <0>         0.1430
     48 H21        10.0852   -2.5103   -4.9429 H         1 <0>         0.1481
     49 H22        12.1375   -3.6785   -4.2437 H         1 <0>         0.1682
     50 H23        10.0259   -5.9668   -1.4995 H         1 <0>         0.1512
     51 H24         9.2798   -4.1647   -0.1489 H         1 <0>         0.4234
@<TRIPOS>BOND
     1    1    6 ar
     2    1    2 ar
     3    1   30 1
     4    2    3 ar
     5    2   31 1
     6    3    4 ar
     7    3   32 1
     8    4    9 1
     9    4    5 ar
    10    5    6 ar
    11    5    7 1
    12    6   33 1
    13    7    8 2
    14    7   34 1
    15    8    9 1
    16    8   10 1
    17   10   11 2
    18   10   12 am
    19   12   13 1
    20   12   35 1
    21   13   14 1
    22   13   20 1
    23   13   15 1
    24   15   16 1
    25   15   17 1
    26   15   23 1
    27   17   22 1
    28   17   18 1
    29   17   51 1
    30   18   19 1
    31   18   36 1
    32   18   37 1
    33   19   20 1
    34   19   38 1
    35   19   39 1
    36   20   21 1
    37   20   40 1
    38   21   22 1
    39   21   41 1
    40   21   42 1
    41   22   43 1
    42   22   44 1
    43   23   24 1
    44   23   45 1
    45   23   46 1
    46   24   29 ar
    47   24   25 ar
    48   25   26 ar
    49   25   47 1
    50   26   27 ar
    51   26   48 1
    52   27   28 ar
    53   27   49 1
    54   28   29 ar
    55   29   50 1
@<TRIPOS>MOLECULE
ZINC00000860
   43    45     0     0     0
SMALL
USER_CHARGES
3-[3-[(2,4-dimethoxyphenyl)methylene]-5,6-dihydro-4H-pyridin-2-yl]pyridine
@<TRIPOS>ATOM
      1 C1         -5.1123   -1.6085   -0.1949 C.3       1 <0>         0.0254
      2 O1         -4.3624   -0.4834   -0.6574 O.3       1 <0>        -0.3140
      3 C2         -3.8184    0.3254    0.2878 C.ar      1 <0>         0.1778
      4 C3         -4.0052    0.0378    1.6362 C.ar      1 <0>        -0.2469
      5 C4         -3.4572    0.8516    2.6010 C.ar      1 <0>        -0.0249
      6 C5         -2.7087    1.9733    2.2260 C.ar      1 <0>        -0.1376
      7 C6         -2.5216    2.2615    0.8641 C.ar      1 <0>         0.1868
      8 C7         -3.0827    1.4375   -0.0954 C.ar      1 <0>        -0.2476
      9 O2         -1.7977    3.3472    0.4908 O.3       1 <0>        -0.3048
     10 C8         -1.6496    3.5772   -0.9118 C.3       1 <0>         0.0229
     11 C9         -2.1211    2.8450    3.2521 C.2       1 <0>        -0.0402
     12 C10        -2.8072    3.1141    4.3818 C.2       1 <0>        -0.1529
     13 C11        -4.2465    2.6699    4.5538 C.3       1 <0>        -0.0843
     14 C12        -4.9899    3.8209    5.2487 C.3       1 <0>        -0.1513
     15 C13        -4.3422    4.0803    6.6076 C.3       1 <0>         0.0456
     16 N1         -2.9062    4.2861    6.4861 N.2       1 <0>        -0.5144
     17 C14        -2.1860    3.8448    5.4973 C.2       1 <0>         0.2539
     18 C15        -0.7232    4.0864    5.4901 C.ar      1 <0>        -0.1029
     19 C16         0.1548    3.1171    4.9945 C.ar      1 <0>        -0.0542
     20 C17         1.5108    3.3936    5.0042 C.ar      1 <0>        -0.1746
     21 C18         1.9512    4.6033    5.5103 C.ar      1 <0>         0.1086
     22 N2          1.0994    5.4964    5.9761 N.ar      1 <0>        -0.4862
     23 C19        -0.2000    5.2808    5.9822 C.ar      1 <0>         0.1406
     24 H1         -4.4692   -2.2516    0.4059 H         1 <0>         0.0592
     25 H2         -5.9492   -1.2628    0.4117 H         1 <0>         0.0589
     26 H3         -5.4903   -2.1693   -1.0497 H         1 <0>         0.1032
     27 H4         -4.5829   -0.8273    1.9267 H         1 <0>         0.1335
     28 H5         -3.6047    0.6251    3.6466 H         1 <0>         0.1376
     29 H6         -2.9449    1.6583   -1.1436 H         1 <0>         0.1399
     30 H7         -1.1524    2.7221   -1.3697 H         1 <0>         0.0600
     31 H8         -1.0511    4.4740   -1.0717 H         1 <0>         0.1045
     32 H9         -2.6324    3.7108   -1.3638 H         1 <0>         0.0594
     33 H10        -1.1398    3.2703    3.1020 H         1 <0>         0.1314
     34 H11        -4.6940    2.4723    3.5797 H         1 <0>         0.0861
     35 H12        -4.2877    1.7723    5.1709 H         1 <0>         0.0763
     36 H13        -4.9250    4.7200    4.6358 H         1 <0>         0.0694
     37 H14        -6.0362    3.5486    5.3873 H         1 <0>         0.0782
     38 H15        -4.7924    4.9676    7.0529 H         1 <0>         0.0930
     39 H16        -4.5243    3.2247    7.2578 H         1 <0>         0.0852
     40 H17        -0.2163    2.1787    4.6097 H         1 <0>         0.1398
     41 H18         2.2180    2.6704    4.6256 H         1 <0>         0.1400
     42 H19         3.0091    4.8203    5.5238 H         1 <0>         0.1585
     43 H20        -0.8660    6.0362    6.3724 H         1 <0>         0.1611
@<TRIPOS>BOND
     1    1    2 1
     2    1   24 1
     3    1   25 1
     4    1   26 1
     5    2    3 1
     6    3    8 ar
     7    3    4 ar
     8    4    5 ar
     9    4   27 1
    10    5    6 ar
    11    5   28 1
    12    6    7 ar
    13    6   11 1
    14    7    8 ar
    15    7    9 1
    16    8   29 1
    17    9   10 1
    18   10   30 1
    19   10   31 1
    20   10   32 1
    21   11   12 2
    22   11   33 1
    23   12   17 1
    24   12   13 1
    25   13   14 1
    26   13   34 1
    27   13   35 1
    28   14   15 1
    29   14   36 1
    30   14   37 1
    31   15   16 1
    32   15   38 1
    33   15   39 1
    34   16   17 2
    35   17   18 1
    36   18   23 ar
    37   18   19 ar
    38   19   20 ar
    39   19   40 1
    40   20   21 ar
    41   20   41 1
    42   21   22 ar
    43   21   42 1
    44   22   23 ar
    45   23   43 1
@<TRIPOS>MOLECULE
ZINC01481833
   30    33     0     0     0
SMALL
USER_CHARGES
BLAH
@<TRIPOS>ATOM
      1 C1         -0.0126    1.0758    0.0080 C.ar      1 <0>         0.0966
      2 C2          1.1918    1.7831    0.0003 C.ar      1 <0>         0.0966
      3 N1          1.1984    3.0965    0.0072 N.ar      1 <0>        -0.4215
      4 C3          0.0401    3.7650    0.0224 C.ar      1 <0>         0.0813
      5 C4          0.0125    5.1704    0.0335 C.ar      1 <0>        -0.0410
      6 C5         -1.1805    5.8238    0.0448 C.ar      1 <0>        -0.1245
      7 C6         -2.3856    5.1162    0.0469 C.ar      1 <0>        -0.1247
      8 C7         -2.3961    3.7559    0.0387 C.ar      1 <0>        -0.0409
      9 C8         -1.1823    3.0472    0.0280 C.ar      1 <0>         0.0811
     10 N2         -1.1627    1.7099    0.0169 N.ar      1 <0>        -0.4215
     11 C9         -3.5341    6.1155    0.0591 C.3       1 <0>        -0.0599
     12 H1         -4.4250    5.7502   -0.4518 H         1 <0>         0.1398
     13 C10        -2.9031    7.3764   -0.5983 C.3       1 <0>        -0.1241
     14 C11        -1.4937    7.3136    0.0576 C.3       1 <0>        -0.0600
     15 H2         -0.7414    7.9138   -0.4542 H         1 <0>         0.1398
     16 C12        -1.6899    7.7219    1.5301 C.3       1 <0>         0.0036
     17 C13        -3.7942    6.4872    1.5314 C.3       1 <0>         0.0036
     18 H3          0.0021   -0.0041    0.0020 H         1 <0>         0.1876
     19 H4          2.1277    1.2443   -0.0119 H         1 <0>         0.1876
     20 H5          0.9363    5.7299    0.0333 H         1 <0>         0.1493
     21 H6         -3.3348    3.2218    0.0415 H         1 <0>         0.1492
     22 H7         -3.4357    8.2839   -0.3139 H         1 <0>         0.1008
     23 H8         -2.8440    7.2746   -1.6819 H         1 <0>         0.1034
     24 H9         -0.7194    7.7941    2.0210 H         1 <0>         0.1339
     25 H10        -2.1966    8.6858    1.5770 H         1 <0>         0.1409
     26 H11        -4.3303    5.6756    2.0234 H         1 <0>         0.1340
     27 H12        -4.3883    7.3999    1.5779 H         1 <0>         0.1409
     28 N3         -2.5008    6.6942    2.2200 N.4       1 <0>        -0.5192
     29 H13        -2.6789    6.9988    3.1842 H         1 <0>         0.4374
     30 H14        -1.9812    5.8087    2.2313 H         1 <0>         0.4298
@<TRIPOS>BOND
     1    1   10 ar
     2    1    2 ar
     3    1   18 1
     4    2    3 ar
     5    2   19 1
     6    3    4 ar
     7    4    9 ar
     8    4    5 ar
     9    5    6 ar
    10    5   20 1
    11    6   14 1
    12    6    7 ar
    13    7    8 ar
    14    7   11 1
    15    8    9 ar
    16    8   21 1
    17    9   10 ar
    18   11   12 1
    19   11   17 1
    20   11   13 1
    21   13   14 1
    22   13   22 1
    23   13   23 1
    24   14   15 1
    25   14   16 1
    26   16   24 1
    27   16   25 1
    28   16   28 1
    29   17   26 1
    30   17   27 1
    31   17   28 1
    32   28   29 1
    33   28   30 1
@<TRIPOS>MOLECULE
ZINC04018167
   26    26     0     0     0
SMALL
USER_CHARGES
N,N-dimethyl-2-(3-pyridyl)ethanamine
@<TRIPOS>ATOM
      1 C1          5.1418    4.3316   -0.9080 C.3       1 <0>        -0.0478
      2 C2          4.3082    5.5892   -2.8017 C.3       1 <0>        -0.0428
      3 C3          2.7809    4.2906   -1.4439 C.3       1 <0>        -0.0034
      4 C4          2.3671    4.0041    0.0009 C.3       1 <0>        -0.0965
      5 C5          1.1060    3.1790    0.0081 C.ar      1 <0>        -0.1644
      6 C6          1.1732    1.7939    0.0005 C.ar      1 <0>        -0.0639
      7 C7         -0.0126    1.0758    0.0080 C.ar      1 <0>        -0.1661
      8 C8         -1.2139    1.7594    0.0173 C.ar      1 <0>         0.1170
      9 N1         -1.2397    3.0777    0.0299 N.ar      1 <0>        -0.4781
     10 C9         -0.1318    3.7931    0.0227 C.ar      1 <0>         0.1127
     11 H1          5.3036    3.4407   -1.5148 H         1 <0>         0.1234
     12 H2          6.0389    4.9505   -0.9247 H         1 <0>         0.1239
     13 H3          4.9225    4.0372    0.1183 H         1 <0>         0.1221
     14 H4          3.4829    6.2092   -3.1520 H         1 <0>         0.1222
     15 H5          5.2230    6.1814   -2.7783 H         1 <0>         0.1238
     16 H6          4.4398    4.7439   -3.4771 H         1 <0>         0.1228
     17 H7          2.9595    3.3496   -1.9641 H         1 <0>         0.1319
     18 H8          1.9850    4.8390   -1.9478 H         1 <0>         0.1314
     19 H9          2.1885    4.9452    0.5212 H         1 <0>         0.0989
     20 H10         3.1629    3.4557    0.5049 H         1 <0>         0.0971
     21 H11         2.1266    1.2867   -0.0113 H         1 <0>         0.1369
     22 H12         0.0021   -0.0041    0.0020 H         1 <0>         0.1443
     23 H13        -2.1422    1.2074    0.0190 H         1 <0>         0.1649
     24 H14        -0.1926    4.8713    0.0287 H         1 <0>         0.1562
     25 N2          4.0059    5.1177   -1.4339 N.4       1 <0>        -0.3986
     26 H15         3.8539    5.9314   -0.8265 H         1 <0>         0.4320
@<TRIPOS>BOND
     1    1   11 1
     2    1   12 1
     3    1   13 1
     4    1   25 1
     5    2   14 1
     6    2   15 1
     7    2   16 1
     8    2   25 1
     9    3    4 1
    10    3   17 1
    11    3   18 1
    12    3   25 1
    13    4    5 1
    14    4   19 1
    15    4   20 1
    16    5   10 ar
    17    5    6 ar
    18    6    7 ar
    19    6   21 1
    20    7    8 ar
    21    7   22 1
    22    8    9 ar
    23    8   23 1
    24    9   10 ar
    25   10   24 1
    26   25   26 1
@<TRIPOS>MOLECULE
ZINC03990028
   36    38     0     0     0
SMALL
USER_CHARGES

@<TRIPOS>ATOM
      1 C1         -0.0169    1.3919    0.0097 C.ar      1 <0>        -0.0399
      2 C2          1.1695    2.0948    0.0021 C.ar      1 <0>        -0.1145
      3 C3          2.3782    1.4186   -0.0130 C.ar      1 <0>        -0.0027
      4 C4          2.4034    0.0338   -0.0212 C.ar      1 <0>        -0.1172
      5 C5          1.2236   -0.6800   -0.0137 C.ar      1 <0>        -0.0734
      6 C6          0.0021   -0.0041    0.0020 C.ar      1 <0>        -0.1487
      7 C7         -1.2659   -0.7632    0.0100 C.2       1 <0>         0.5690
      8 O1         -2.3281   -0.1722    0.0234 O.2       1 <0>        -0.5168
      9 N1         -1.2445   -2.1108    0.0026 N.am      1 <0>        -0.7311
     10 C8         -2.5014   -2.8634    0.0106 C.3       1 <0>         0.1375
     11 H1         -3.2413   -2.3324    0.6096 H         1 <0>         0.1274
     12 C9         -3.0163   -3.0169   -1.4224 C.3       1 <0>        -0.0229
     13 N2         -3.1160   -4.4364   -1.7700 N.4       1 <0>        -0.3746
     14 C10        -1.8001   -5.0767   -1.7057 C.3       1 <0>        -0.0089
     15 C11        -1.2448   -4.9915   -0.2822 C.3       1 <0>        -0.1415
     16 C12        -2.2624   -4.2572    0.6057 C.3       1 <0>        -0.1095
     17 C13        -3.5854   -5.0334    0.5667 C.3       1 <0>        -0.1335
     18 C14        -4.0653   -5.1181   -0.8869 C.3       1 <0>        -0.0096
     19 Cl1         3.8676    2.3104   -0.0225 Cl        1 <0>        -0.0448
     20 H2         -0.9587    1.9202    0.0260 H         1 <0>         0.1488
     21 H3          1.1561    3.1747    0.0077 H         1 <0>         0.1477
     22 H4          3.3489   -0.4880   -0.0337 H         1 <0>         0.1449
     23 H5          1.2444   -1.7598   -0.0205 H         1 <0>         0.1311
     24 H6         -0.3969   -2.5824   -0.0080 H         1 <0>         0.4058
     25 H7         -3.9998   -2.5544   -1.5048 H         1 <0>         0.1406
     26 H8         -2.3279   -2.5240   -2.1088 H         1 <0>         0.1336
     27 H9         -1.8926   -6.1234   -1.9957 H         1 <0>         0.1342
     28 H10        -1.1186   -4.5723   -2.3906 H         1 <0>         0.1296
     29 H11        -1.0800   -5.9964    0.1064 H         1 <0>         0.1089
     30 H12        -0.3037   -4.4416   -0.2896 H         1 <0>         0.0953
     31 H13        -1.8871   -4.1731    1.6256 H         1 <0>         0.1262
     32 H14        -3.4314   -6.0378    0.9610 H         1 <0>         0.1082
     33 H15        -4.3318   -4.5135    1.1672 H         1 <0>         0.1052
     34 H16        -5.0430   -4.6439   -0.9719 H         1 <0>         0.1330
     35 H17        -4.1459   -6.1645   -1.1814 H         1 <0>         0.1335
     36 H18        -3.4528   -4.5100   -2.7183 H         1 <0>         0.4288
@<TRIPOS>BOND
     1    1    6 ar
     2    1    2 ar
     3    1   20 1
     4    2    3 ar
     5    2   21 1
     6    3    4 ar
     7    3   19 1
     8    4    5 ar
     9    4   22 1
    10    5    6 ar
    11    5   23 1
    12    6    7 1
    13    7    8 2
    14    7    9 am
    15    9   10 1
    16    9   24 1
    17   10   11 1
    18   10   16 1
    19   10   12 1
    20   12   13 1
    21   12   25 1
    22   12   26 1
    23   13   18 1
    24   13   14 1
    25   13   36 1
    26   14   15 1
    27   14   27 1
    28   14   28 1
    29   15   16 1
    30   15   29 1
    31   15   30 1
    32   16   17 1
    33   16   31 1
    34   17   18 1
    35   17   32 1
    36   17   33 1
    37   18   34 1
    38   18   35 1
@<TRIPOS>MOLECULE
ZINC00967913
   28    30     0     0     0
SMALL
USER_CHARGES

@<TRIPOS>ATOM
      1 C1          1.2171   -0.6545    0.1555 C.ar      1 <0>        -0.0752
      2 C2          2.3777    0.1031    0.1418 C.ar      1 <0>        -0.1425
      3 C3          2.2860    1.4736   -0.0235 C.ar      1 <0>         0.1878
      4 N1          1.1116    2.0586   -0.1663 N.ar      1 <0>        -0.4633
      5 C4         -0.0121    1.3684   -0.1581 C.ar      1 <0>         0.1458
      6 C5          0.0021   -0.0041    0.0020 C.ar      1 <0>        -0.1631
      7 C6         -1.2872   -0.7844    0.0101 C.3       1 <0>        -0.0612
      8 H1         -2.1393   -0.1141    0.1233 H         1 <0>         0.1365
      9 C7         -1.2749   -1.8456    1.1375 C.3       1 <0>        -0.1443
     10 C8         -1.4042   -3.1952    0.3689 C.3       1 <0>         0.0384
     11 H2         -1.0647   -4.0789    0.9092 H         1 <0>         0.1726
     12 C9         -2.8802   -3.2368   -0.1294 C.3       1 <0>        -0.1467
     13 C10        -2.9122   -2.1745   -1.2554 C.3       1 <0>        -0.1410
     14 C11        -1.4241   -1.6312   -1.2910 C.3       1 <0>         0.0452
     15 H3         -1.1139   -1.1348   -2.2105 H         1 <0>         0.1734
     16 N2         -0.6607   -2.8754   -0.9018 N.4       1 <0>        -0.5418
     17 Cl1         3.7316    2.4346   -0.0426 Cl        1 <0>        -0.0014
     18 H4          1.2583   -1.7267    0.2784 H         1 <0>         0.1305
     19 H5          3.3413   -0.3704    0.2590 H         1 <0>         0.1568
     20 H6         -0.9547    1.8820   -0.2775 H         1 <0>         0.1733
     21 H7         -0.3364   -1.8073    1.6905 H         1 <0>         0.1022
     22 H8         -2.1225   -1.7031    1.8079 H         1 <0>         0.1235
     23 H9         -3.1240   -4.2228   -0.5251 H         1 <0>         0.1015
     24 H10        -3.5644   -2.9648    0.6743 H         1 <0>         0.1177
     25 H11        -3.1719   -2.6339   -2.2092 H         1 <0>         0.1026
     26 H12        -3.6123   -1.3759   -1.0098 H         1 <0>         0.1175
     27 H13         0.3118   -2.6745   -0.7232 H         1 <0>         0.4224
     28 H14        -0.7670   -3.6066   -1.5889 H         1 <0>         0.4327
@<TRIPOS>BOND
     1    1    6 ar
     2    1    2 ar
     3    1   18 1
     4    2    3 ar
     5    2   19 1
     6    3    4 ar
     7    3   17 1
     8    4    5 ar
     9    5    6 ar
    10    5   20 1
    11    6    7 1
    12    7    8 1
    13    7   14 1
    14    7    9 1
    15    9   10 1
    16    9   21 1
    17    9   22 1
    18   10   11 1
    19   10   16 1
    20   10   12 1
    21   12   13 1
    22   12   23 1
    23   12   24 1
    24   13   14 1
    25   13   25 1
    26   13   26 1
    27   14   15 1
    28   14   16 1
    29   16   27 1
    30   16   28 1
@<TRIPOS>MOLECULE
ZINC02565794
   28    30     0     0     0
SMALL
USER_CHARGES

@<TRIPOS>ATOM
      1 C1          1.0928   -0.4585   -0.7237 C.ar      1 <0>        -0.0620
      2 C2          2.2584    0.2913   -0.7024 C.ar      1 <0>        -0.1496
      3 C3          2.2945    1.4601    0.0370 C.ar      1 <0>         0.1879
      4 N1          1.2364    1.8615    0.7161 N.ar      1 <0>        -0.4678
      5 C4          0.1118    1.1728    0.7180 C.ar      1 <0>         0.1387
      6 C5          0.0021   -0.0041    0.0020 C.ar      1 <0>        -0.1517
      7 C6         -1.2872   -0.7844    0.0101 C.3       1 <0>        -0.0603
      8 H1         -2.1406   -0.1121    0.0984 H         1 <0>         0.1214
      9 C7         -1.4069   -1.6526   -1.2663 C.3       1 <0>        -0.1520
     10 C8         -1.4635   -3.1084   -0.7127 C.3       1 <0>         0.0416
     11 H2         -1.8985   -3.8501   -1.3825 H         1 <0>         0.1732
     12 C9         -0.0153   -3.4112   -0.2228 C.3       1 <0>        -0.1506
     13 C10         0.1242   -2.5441    1.0524 C.3       1 <0>        -0.1538
     14 C11        -1.2892   -1.8286    1.1671 C.3       1 <0>         0.0430
     15 H3         -1.5584   -1.4416    2.1499 H         1 <0>         0.1768
     16 N2         -2.1888   -2.8932    0.5901 N.4       1 <0>        -0.5340
     17 Cl1         3.7479    2.4089    0.0725 Cl        1 <0>        -0.0051
     18 H4          1.0341   -1.3727   -1.2956 H         1 <0>         0.1499
     19 H5          3.1274   -0.0328   -1.2557 H         1 <0>         0.1556
     20 H6         -0.7333    1.5325    1.2862 H         1 <0>         0.1691
     21 H7         -2.3211   -1.4127   -1.8092 H         1 <0>         0.1082
     22 H8         -0.5337   -1.5186   -1.9048 H         1 <0>         0.1199
     23 H9          0.0951   -4.4685    0.0180 H         1 <0>         0.1039
     24 H10         0.7148   -3.1093   -0.9738 H         1 <0>         0.1130
     25 H11         0.3037   -3.1717    1.9253 H         1 <0>         0.1016
     26 H12         0.9234   -1.8126    0.9335 H         1 <0>         0.1174
     27 H13        -3.1247   -2.5463    0.4419 H         1 <0>         0.4324
     28 H14        -2.1894   -3.7275    1.1576 H         1 <0>         0.4332
@<TRIPOS>BOND
     1    1    6 ar
     2    1    2 ar
     3    1   18 1
     4    2    3 ar
     5    2   19 1
     6    3    4 ar
     7    3   17 1
     8    4    5 ar
     9    5    6 ar
    10    5   20 1
    11    6    7 1
    12    7    8 1
    13    7   14 1
    14    7    9 1
    15    9   10 1
    16    9   21 1
    17    9   22 1
    18   10   11 1
    19   10   16 1
    20   10   12 1
    21   12   13 1
    22   12   23 1
    23   12   24 1
    24   13   14 1
    25   13   25 1
    26   13   26 1
    27   14   15 1
    28   14   16 1
    29   16   27 1
    30   16   28 1
@<TRIPOS>MOLECULE
ZINC02036061
   54    55     0     0     0
SMALL
USER_CHARGES

@<TRIPOS>ATOM
      1 C1          0.0744    1.7925   -0.3461 C.3       1 <0>        -0.1799
      2 C2          0.1124    0.2950   -0.0346 C.3       1 <0>        -0.0218
      3 N1          0.6743   -0.4297   -1.1823 N.4       1 <0>        -0.2637
      4 C3          2.0804   -0.0450   -1.3636 C.3       1 <0>        -0.0186
      5 C4          2.8718   -0.3955   -0.1020 C.3       1 <0>        -0.1877
      6 C5          0.5899   -1.8756   -0.9373 C.3       1 <0>        -0.0225
      7 C6          1.1751   -2.6304   -2.1325 C.3       1 <0>        -0.1890
      8 C7         -0.0856   -0.0931   -2.3936 C.3       1 <0>        -0.0121
      9 C8         -1.5165   -0.6182   -2.2603 C.3       1 <0>         0.0276
     10 O1         -2.1981    0.1110   -1.2377 O.3       1 <0>        -0.3178
     11 C9         -3.4889   -0.2333   -0.9908 C.ar      1 <0>         0.1044
     12 C10        -4.0832   -1.2576   -1.7167 C.ar      1 <0>        -0.1980
     13 C11        -5.3920   -1.6107   -1.4695 C.ar      1 <0>        -0.0694
     14 C12        -6.1218   -0.9361   -0.4865 C.ar      1 <0>        -0.0673
     15 C13        -5.5194    0.0940    0.2414 C.ar      1 <0>        -0.0763
     16 C14        -4.2084    0.4364   -0.0093 C.ar      1 <0>        -0.1364
     17 C15        -7.5217   -1.3095   -0.2187 C.2       1 <0>        -0.1232
     18 C16        -8.2208   -0.6601    0.7262 C.2       1 <0>        -0.0887
     19 C17        -9.6211   -1.0336    0.9940 C.ar      1 <0>        -0.0689
     20 C18       -10.2228   -2.0668    0.2708 C.ar      1 <0>        -0.1105
     21 C19       -11.5335   -2.4111    0.5273 C.ar      1 <0>        -0.1188
     22 C20       -12.2526   -1.7358    1.4978 C.ar      1 <0>        -0.1120
     23 C21       -11.6635   -0.7113    2.2177 C.ar      1 <0>        -0.1187
     24 C22       -10.3517   -0.3601    1.9765 C.ar      1 <0>        -0.1044
     25 H1          1.0859    2.1489   -0.5410 H         1 <0>         0.0734
     26 H2         -0.5473    1.9652   -1.2246 H         1 <0>         0.0839
     27 H3         -0.3425    2.3303    0.5055 H         1 <0>         0.1018
     28 H4          0.7341    0.1223    0.8439 H         1 <0>         0.1243
     29 H5         -0.8991   -0.0613    0.1603 H         1 <0>         0.1442
     30 H6          2.4973   -0.5827   -2.2151 H         1 <0>         0.1291
     31 H7          2.1429    1.0279   -1.5454 H         1 <0>         0.1294
     32 H8          2.8092   -1.4684    0.0798 H         1 <0>         0.0804
     33 H9          3.9151   -0.1100   -0.2365 H         1 <0>         0.1048
     34 H10         2.4549    0.1422    0.7496 H         1 <0>         0.0816
     35 H11         1.1537   -2.1254   -0.0385 H         1 <0>         0.1323
     36 H12        -0.4534   -2.1611   -0.8027 H         1 <0>         0.1271
     37 H13         1.1125   -3.7034   -1.9507 H         1 <0>         0.1057
     38 H14         0.6113   -2.3807   -3.0314 H         1 <0>         0.0787
     39 H15         2.2184   -2.3450   -2.2671 H         1 <0>         0.0832
     40 H16        -0.1061    0.9892   -2.5206 H         1 <0>         0.1442
     41 H17         0.3905   -0.5517   -3.2603 H         1 <0>         0.1469
     42 H18        -2.0400   -0.4907   -3.2079 H         1 <0>         0.1079
     43 H19        -1.4925   -1.6758   -1.9979 H         1 <0>         0.0877
     44 H20        -3.5187   -1.7780   -2.4763 H         1 <0>         0.1279
     45 H21        -5.8534   -2.4070   -2.0347 H         1 <0>         0.1327
     46 H22        -6.0794    0.6182    1.0017 H         1 <0>         0.1373
     47 H23        -3.7408    1.2294    0.5554 H         1 <0>         0.1336
     48 H24        -7.9856   -2.1054   -0.7823 H         1 <0>         0.1260
     49 H25        -7.7569    0.1358    1.2898 H         1 <0>         0.1229
     50 H26        -9.6630   -2.5942   -0.4875 H         1 <0>         0.1240
     51 H27       -11.9999   -3.2094   -0.0309 H         1 <0>         0.1258
     52 H28       -13.2787   -2.0095    1.6941 H         1 <0>         0.1255
     53 H29       -12.2310   -0.1882    2.9731 H         1 <0>         0.1265
     54 H30        -9.8917    0.4365    2.5425 H         1 <0>         0.1249
@<TRIPOS>BOND
     1    1    2 1
     2    1   25 1
     3    1   26 1
     4    1   27 1
     5    2    3 1
     6    2   28 1
     7    2   29 1
     8    3    4 1
     9    3    6 1
    10    3    8 1
    11    4    5 1
    12    4   30 1
    13    4   31 1
    14    5   32 1
    15    5   33 1
    16    5   34 1
    17    6    7 1
    18    6   35 1
    19    6   36 1
    20    7   37 1
    21    7   38 1
    22    7   39 1
    23    8    9 1
    24    8   40 1
    25    8   41 1
    26    9   10 1
    27    9   42 1
    28    9   43 1
    29   10   11 1
    30   11   16 ar
    31   11   12 ar
    32   12   13 ar
    33   12   44 1
    34   13   14 ar
    35   13   45 1
    36   14   15 ar
    37   14   17 1
    38   15   16 ar
    39   15   46 1
    40   16   47 1
    41   17   18 2
    42   17   48 1
    43   18   19 1
    44   18   49 1
    45   19   24 ar
    46   19   20 ar
    47   20   21 ar
    48   20   50 1
    49   21   22 ar
    50   21   51 1
    51   22   23 ar
    52   22   52 1
    53   23   24 ar
    54   23   53 1
    55   24   54 1
@<TRIPOS>MOLECULE
ZINC13834389
   28    30     0     0     0
SMALL
USER_CHARGES
(5R)-spiro[oxazolidine-5,3'-quinuclidine]-2-one
@<TRIPOS>ATOM
      1 C1         -0.7196    3.0348    3.2617 C.3       1 <0>        -0.1299
      2 C2         -1.2009    1.8020    4.0711 C.3       1 <0>        -0.0099
      3 C3          0.7442    0.5204    3.4131 C.3       1 <0>        -0.0044
      4 C4          1.2855    1.6963    2.5953 C.3       1 <0>        -0.1376
      5 C5          0.1018    2.5213    2.0702 C.3       1 <0>        -0.1042
      6 C6         -0.7881    1.6091    1.2254 C.3       1 <0>         0.0841
      7 C7         -1.2911    0.4481    2.0783 C.3       1 <0>        -0.0036
      8 C8         -0.0127    1.0858    0.0080 C.3       1 <0>         0.0723
      9 N1         -0.7786    1.6002   -1.1398 N.am      1 <0>        -0.7315
     10 C9         -1.8244    2.3039   -0.6823 C.2       1 <0>         0.6419
     11 O1         -2.6300    2.8461   -1.4127 O.2       1 <0>        -0.4903
     12 O2         -1.8992    2.3541    0.6545 O.3       1 <0>        -0.3065
     13 H1         -0.0912    3.6594    3.8966 H         1 <0>         0.1085
     14 H2         -1.5669    3.6160    2.8979 H         1 <0>         0.1109
     15 H3         -2.2906    1.7999    4.0971 H         1 <0>         0.1313
     16 H4         -0.8139    1.8557    5.0887 H         1 <0>         0.1352
     17 H5          1.0716   -0.4165    2.9624 H         1 <0>         0.1335
     18 H6          1.1219    0.5835    4.4336 H         1 <0>         0.1372
     19 H7          1.8690    1.3192    1.7554 H         1 <0>         0.1067
     20 H8          1.9149    2.3222    3.2279 H         1 <0>         0.1154
     21 H9          0.4613    3.3580    1.4711 H         1 <0>         0.1273
     22 H10        -2.3805    0.4639    2.1101 H         1 <0>         0.1524
     23 H11        -0.9508   -0.4943    1.6490 H         1 <0>         0.1455
     24 H12         0.0021   -0.0041    0.0020 H         1 <0>         0.1040
     25 H13         1.0026    1.4822    0.0004 H         1 <0>         0.1107
     26 H14        -0.5620    1.4539   -2.0740 H         1 <0>         0.4472
     27 N2         -0.7386    0.5500    3.4470 N.4       1 <0>        -0.3873
     28 H15        -1.0741   -0.2458    4.0023 H         1 <0>         0.4410
@<TRIPOS>BOND
     1    1    5 1
     2    1    2 1
     3    1   13 1
     4    1   14 1
     5    2   15 1
     6    2   16 1
     7    2   27 1
     8    3    4 1
     9    3   17 1
    10    3   18 1
    11    3   27 1
    12    4    5 1
    13    4   19 1
    14    4   20 1
    15    5    6 1
    16    5   21 1
    17    6   12 1
    18    6    7 1
    19    6    8 1
    20    7   22 1
    21    7   23 1
    22    7   27 1
    23    8    9 1
    24    8   24 1
    25    8   25 1
    26    9   10 am
    27    9   26 1
    28   10   11 2
    29   10   12 1
    30   27   28 1
@<TRIPOS>MOLECULE
ZINC34034921
   38    41     0     0     0
SMALL
USER_CHARGES
N-[(3R)-quinuclidin-3-yl]furo[2,3-c]pyridine-5-carboxamide
@<TRIPOS>ATOM
      1 C1          7.5561   -0.1338   -4.0292 C.2       1 <0>        -0.2079
      2 C2          7.5019   -0.5593   -5.3008 C.2       1 <0>         0.0370
      3 O1          6.2252   -0.6150   -5.7171 O.3       1 <0>        -0.1764
      4 C3          5.3834   -0.2296   -4.7409 C.ar      1 <0>         0.0214
      5 C4          6.1704    0.0969   -3.6184 C.ar      1 <0>        -0.1044
      6 C5          5.5382    0.5318   -2.4544 C.ar      1 <0>        -0.0450
      7 C6          4.1510    0.6258   -2.4489 C.ar      1 <0>         0.0289
      8 N1          3.4415    0.3028   -3.5286 N.ar      1 <0>        -0.4404
      9 C7          4.0012   -0.1047   -4.6451 C.ar      1 <0>         0.1439
     10 C8          3.4544    1.0845   -1.2269 C.2       1 <0>         0.5899
     11 O2          4.0945    1.3764   -0.2358 O.2       1 <0>        -0.5244
     12 N2          2.1100    1.1786   -1.2127 N.am      1 <0>        -0.7322
     13 C9          1.4202    1.6328   -0.0027 C.3       1 <0>         0.1362
     14 H1          1.9978    1.2499    0.8516 H         1 <0>         0.1247
     15 C10         1.3652    3.1631    0.0161 C.3       1 <0>        -0.0176
     16 N3         -0.0373    3.6000    0.0381 N.4       1 <0>        -0.3924
     17 C11        -0.7182    3.1280    1.2517 C.3       1 <0>        -0.0054
     18 C12        -0.7220    1.5968    1.2685 C.3       1 <0>        -0.1375
     19 C13        -0.0127    1.0858    0.0080 C.3       1 <0>        -0.1094
     20 C14        -0.7459    1.6102   -1.2331 C.3       1 <0>        -0.1389
     21 C15        -0.7474    3.1567   -1.1695 C.3       1 <0>        -0.0064
     22 H2          8.4431    0.0101   -3.4302 H         1 <0>         0.1716
     23 H3          8.3601   -0.8191   -5.9027 H         1 <0>         0.2225
     24 H4          6.1128    0.7900   -1.5771 H         1 <0>         0.1548
     25 H5          3.3819   -0.3500   -5.4952 H         1 <0>         0.1791
     26 H6          1.5307    0.9144   -2.1097 H         1 <0>         0.4385
     27 H7          1.8810    3.5375    0.9126 H         1 <0>         0.1390
     28 H8          1.8595    3.5589   -0.8834 H         1 <0>         0.1335
     29 H9         -0.1883    3.5042    2.1392 H         1 <0>         0.1319
     30 H10        -1.7539    3.4984    1.2586 H         1 <0>         0.1326
     31 H11        -0.1935    1.2386    2.1643 H         1 <0>         0.1037
     32 H12        -1.7599    1.2328    1.2851 H         1 <0>         0.1063
     33 H13        -0.0060   -0.0142    0.0020 H         1 <0>         0.1227
     34 H14        -0.2244    1.2677   -2.1390 H         1 <0>         0.0991
     35 H15        -1.7778    1.2291   -1.2378 H         1 <0>         0.1080
     36 H16        -1.7850    3.5207   -1.1391 H         1 <0>         0.1330
     37 H17        -0.2433    3.5600   -2.0601 H         1 <0>         0.1299
     38 H18        -0.0467    4.6999    0.0511 H         1 <0>         0.4499
@<TRIPOS>BOND
     1    1    5 1
     2    1    2 2
     3    1   22 1
     4    2    3 1
     5    2   23 1
     6    3    4 1
     7    4    9 ar
     8    4    5 ar
     9    5    6 ar
    10    6    7 ar
    11    6   24 1
    12    7    8 ar
    13    7   10 1
    14    8    9 ar
    15    9   25 1
    16   10   11 2
    17   10   12 am
    18   12   13 1
    19   12   26 1
    20   13   14 1
    21   13   19 1
    22   13   15 1
    23   15   16 1
    24   15   27 1
    25   15   28 1
    26   16   21 1
    27   16   17 1
    28   16   38 1
    29   17   18 1
    30   17   29 1
    31   17   30 1
    32   18   19 1
    33   18   31 1
    34   18   32 1
    35   19   20 1
    36   19   33 1
    37   20   21 1
    38   20   34 1
    39   20   35 1
    40   21   36 1
    41   21   37 1
@<TRIPOS>MOLECULE
ZINC01753799
   35    36     0     0     0
SMALL
USER_CHARGES

@<TRIPOS>ATOM
      1 C1         -0.0783    0.7097    2.9856 C.3       1 <0>        -0.0890
      2 C2         -0.0427   -0.5972    2.2361 C.2       1 <0>         0.0795
      3 C3         -1.1123   -1.2851    1.7990 C.2       1 <0>        -0.2846
      4 C4         -0.6483   -2.4501    1.1478 C.2       1 <0>         0.3501
      5 N1          0.6591   -2.4463    1.2011 N.2       1 <0>        -0.3549
      6 O1          1.0622   -1.2731    1.8842 O.3       1 <0>        -0.0698
      7 N2         -1.4430   -3.4305    0.5542 N.am      1 <0>        -0.6386
      8 C5         -2.7853   -3.3113    0.5710 C.2       1 <0>         0.7168
      9 O2         -3.3036   -2.3490    1.1038 O.2       1 <0>        -0.5440
     10 N3         -3.5533   -4.2588   -0.0026 N.am      1 <0>        -0.6606
     11 C6         -4.9513   -4.1836    0.0959 C.ar      1 <0>         0.1023
     12 C7         -5.5818   -2.9481    0.0941 C.ar      1 <0>        -0.0343
     13 C8         -6.9590   -2.8741    0.1911 C.ar      1 <0>        -0.0874
     14 C9         -7.7130   -4.0353    0.2905 C.ar      1 <0>         0.1700
     15 C10        -7.0864   -5.2721    0.2926 C.ar      1 <0>        -0.2716
     16 C11        -5.7071   -5.3494    0.1898 C.ar      1 <0>         0.1548
     17 O3         -5.0914   -6.5620    0.1866 O.3       1 <0>        -0.3112
     18 C12        -5.9293   -7.7153    0.2859 C.3       1 <0>         0.0254
     19 O4         -9.0674   -3.9598    0.3862 O.3       1 <0>        -0.2986
     20 C13        -9.7806   -5.1941    0.4854 C.3       1 <0>         0.0234
     21 Cl1        -7.7462   -1.3268    0.1892 Cl        1 <0>        -0.0458
     22 H1          0.9401    1.0310    3.2042 H         1 <0>         0.0857
     23 H2         -0.5745    1.4648    2.3760 H         1 <0>         0.0978
     24 H3         -0.6261    0.5786    3.9188 H         1 <0>         0.0976
     25 H4         -2.1457   -0.9973    1.9239 H         1 <0>         0.1849
     26 H5         -1.0295   -4.1982    0.1292 H         1 <0>         0.4206
     27 H6         -3.1398   -4.9927   -0.4835 H         1 <0>         0.4162
     28 H7         -4.9967   -2.0436    0.0172 H         1 <0>         0.1675
     29 H8         -7.6737   -6.1752    0.3703 H         1 <0>         0.1495
     30 H9         -6.4931   -7.6756    1.2179 H         1 <0>         0.0592
     31 H10        -6.6208   -7.7357   -0.5564 H         1 <0>         0.0595
     32 H11        -5.3131   -8.6143    0.2720 H         1 <0>         0.1065
     33 H12       -10.8494   -4.9916    0.5555 H         1 <0>         0.1069
     34 H13        -9.5829   -5.8001   -0.3988 H         1 <0>         0.0580
     35 H14        -9.4537   -5.7322    1.3752 H         1 <0>         0.0580
@<TRIPOS>BOND
     1    1    2 1
     2    1   22 1
     3    1   23 1
     4    1   24 1
     5    2    6 1
     6    2    3 2
     7    3    4 1
     8    3   25 1
     9    4    5 2
    10    4    7 1
    11    5    6 1
    12    7    8 am
    13    7   26 1
    14    8    9 2
    15    8   10 am
    16   10   11 1
    17   10   27 1
    18   11   16 ar
    19   11   12 ar
    20   12   13 ar
    21   12   28 1
    22   13   14 ar
    23   13   21 1
    24   14   15 ar
    25   14   19 1
    26   15   16 ar
    27   15   29 1
    28   16   17 1
    29   17   18 1
    30   18   30 1
    31   18   31 1
    32   18   32 1
    33   19   20 1
    34   20   33 1
    35   20   34 1
    36   20   35 1
@<TRIPOS>MOLECULE
ZINC29136086
   36    38     0     0     0
SMALL
USER_CHARGES
[2-[4-fluoro-3-(trifluoromethyl)anilino]-4-(4-pyridyl)thiazol-5-yl]methanol
@<TRIPOS>ATOM
      1 C1         -0.0259    0.2236    0.9993 C.ar      1 <0>        -0.1021
      2 C2          1.1599   -0.4533    1.2085 C.ar      1 <0>        -0.1124
      3 C3          2.3373    0.0245    0.6586 C.ar      1 <0>         0.1344
      4 C4          2.3291    1.1818   -0.1021 C.ar      1 <0>        -0.1879
      5 C5          1.1462    1.8622   -0.3131 C.ar      1 <0>        -0.0702
      6 C6         -0.0364    1.3844    0.2372 C.ar      1 <0>         0.1586
      7 N1         -1.2370    2.0684    0.0192 N.pl3     1 <0>        -0.6209
      8 C7         -2.4266    1.3648   -0.0836 C.2       1 <0>         0.3676
      9 N2         -3.6614    1.8222   -0.1773 N.2       1 <0>        -0.5471
     10 C8         -4.6976    0.9921   -0.2740 C.2       1 <0>         0.1456
     11 C9         -4.4764   -0.3569   -0.2638 C.2       1 <0>        -0.1948
     12 S1         -2.6952   -0.4018   -0.1165 S.3       1 <0>         0.0352
     13 C10        -5.4623   -1.4932   -0.3528 C.3       1 <0>         0.1763
     14 O1         -5.6623   -1.8441   -1.7235 O.3       1 <0>        -0.5935
     15 C11        -6.0762    1.5244   -0.3846 C.ar      1 <0>         0.0158
     16 C12        -7.0380    0.8723   -1.1634 C.ar      1 <0>        -0.1597
     17 C13        -8.3101    1.3995   -1.2348 C.ar      1 <0>         0.0976
     18 N3         -8.6215    2.5078   -0.5894 N.ar      1 <0>        -0.4812
     19 C14        -7.7429    3.1564    0.1517 C.ar      1 <0>         0.0959
     20 C15        -6.4498    2.6959    0.2823 C.ar      1 <0>        -0.1388
     21 C16         3.6123    1.6993   -0.6993 C.3       1 <0>         0.5145
     22 F1          3.3526    2.8705   -1.4190 F         1 <0>        -0.1711
     23 F2          4.5256    1.9738    0.3243 F         1 <0>        -0.1683
     24 F3          4.1499    0.7341   -1.5575 F         1 <0>        -0.1681
     25 F4          3.4958   -0.6394    0.8642 F         1 <0>        -0.1181
     26 H1         -0.9441   -0.1495    1.4283 H         1 <0>         0.1492
     27 H2          1.1685   -1.3562    1.8011 H         1 <0>         0.1591
     28 H3          1.1403    2.7646   -0.9065 H         1 <0>         0.1583
     29 H4         -1.2369    3.1647   -0.0706 H         1 <0>         0.4610
     30 H5         -5.0699   -2.3628    0.1948 H         1 <0>         0.0623
     31 H6         -6.4203   -1.1830    0.0898 H         1 <0>         0.0731
     32 H7         -6.3532   -2.6583   -1.9876 H         1 <0>         0.4192
     33 H8         -6.7888   -0.0325   -1.6978 H         1 <0>         0.1538
     34 H9         -9.0608    0.9008   -1.8299 H         1 <0>         0.1596
     35 H10        -8.0407    4.0602    0.6625 H         1 <0>         0.1588
     36 H11        -5.7361    3.2315    0.8908 H         1 <0>         0.1384
@<TRIPOS>BOND
     1    1    6 ar
     2    1    2 ar
     3    1   26 1
     4    2    3 ar
     5    2   27 1
     6    3    4 ar
     7    3   25 1
     8    4    5 ar
     9    4   21 1
    10    5    6 ar
    11    5   28 1
    12    6    7 1
    13    7    8 1
    14    7   29 1
    15    8   12 1
    16    8    9 2
    17    9   10 1
    18   10   11 2
    19   10   15 1
    20   11   12 1
    21   11   13 1
    22   13   14 1
    23   13   30 1
    24   13   31 1
    25   14   32 1
    26   15   20 ar
    27   15   16 ar
    28   16   17 ar
    29   16   33 1
    30   17   18 ar
    31   17   34 1
    32   18   19 ar
    33   19   20 ar
    34   19   35 1
    35   20   36 1
    36   21   22 1
    37   21   23 1
    38   21   24 1
@<TRIPOS>MOLECULE
ZINC03786099
   27    28     0     0     0
SMALL
USER_CHARGES

@<TRIPOS>ATOM
      1 C1          0.5015    1.5311   -0.0916 C.3       1 <0>        -0.0983
      2 C2          0.2787    0.0407   -0.0881 C.2       1 <0>         0.1102
      3 C3          0.3653   -0.8100   -1.2047 C.2       1 <0>        -0.2117
      4 C4          0.1001   -2.0658   -0.7961 C.2       1 <0>        -0.0005
      5 O1         -0.1465   -2.0296    0.5223 O.3       1 <0>        -0.0813
      6 N1         -0.0223   -0.6855    0.9511 N.2       1 <0>        -0.2785
      7 C5          0.0828   -3.2955   -1.6671 C.3       1 <0>         0.1094
      8 H1          0.3536   -3.0298   -2.6889 H         1 <0>         0.1689
      9 C6         -1.3218   -3.9344   -1.6454 C.3       1 <0>        -0.1373
     10 C7         -1.0140   -5.4550   -1.6401 C.3       1 <0>        -0.1406
     11 C8          0.2675   -5.5118   -0.7716 C.3       1 <0>        -0.0105
     12 N2          1.0296   -4.2959   -1.1412 N.4       1 <0>        -0.3895
     13 C9          1.7096   -3.7577    0.0445 C.3       1 <0>        -0.0542
     14 H2          1.5549    1.7415    0.0933 H         1 <0>         0.0996
     15 H3          0.2142    1.9391   -1.0607 H         1 <0>         0.0969
     16 H4         -0.1035    1.9908    0.6899 H         1 <0>         0.0920
     17 H5          0.6027   -0.5087   -2.2142 H         1 <0>         0.1743
     18 H6         -1.8619   -3.6474   -0.7432 H         1 <0>         0.1062
     19 H7         -1.8846   -3.6583   -2.5371 H         1 <0>         0.1232
     20 H8         -1.8253   -6.0160   -1.1762 H         1 <0>         0.1233
     21 H9         -0.8180   -5.8172   -2.6493 H         1 <0>         0.1044
     22 H10         0.0094   -5.4922    0.2872 H         1 <0>         0.1362
     23 H11         0.8452   -6.4059   -1.0057 H         1 <0>         0.1418
     24 H12         0.9908   -3.6464    0.8563 H         1 <0>         0.1346
     25 H13         2.5011   -4.4415    0.3512 H         1 <0>         0.1301
     26 H14         2.1414   -2.7858   -0.1942 H         1 <0>         0.1178
     27 H15         1.7121   -4.5225   -1.8490 H         1 <0>         0.4333
@<TRIPOS>BOND
     1    1    2 1
     2    1   14 1
     3    1   15 1
     4    1   16 1
     5    2    6 2
     6    2    3 1
     7    3    4 2
     8    3   17 1
     9    4    5 1
    10    4    7 1
    11    5    6 1
    12    7    8 1
    13    7   12 1
    14    7    9 1
    15    9   10 1
    16    9   18 1
    17    9   19 1
    18   10   11 1
    19   10   20 1
    20   10   21 1
    21   11   12 1
    22   11   22 1
    23   11   23 1
    24   12   13 1
    25   12   27 1
    26   13   24 1
    27   13   25 1
    28   13   26 1
@<TRIPOS>MOLECULE
ZINC00031164
   27    28     0     0     0
SMALL
USER_CHARGES

@<TRIPOS>ATOM
      1 C1         -0.0167    1.3776    0.0096 C.ar      1 <0>        -0.1568
      2 C2          1.1849    2.0698    0.0019 C.ar      1 <0>        -0.0405
      3 C3          2.3651    1.3426   -0.0133 C.ar      1 <0>        -0.2037
      4 C4          2.3054   -0.0383   -0.0202 C.ar      1 <0>         0.1052
      5 N1          1.1443   -0.6632   -0.0129 N.ar      1 <0>        -0.4685
      6 C5          0.0021   -0.0041    0.0020 C.ar      1 <0>         0.1300
      7 C6          3.6964    2.0488   -0.0227 C.3       1 <0>         0.0903
      8 H1          3.5610    3.0739   -0.3678 H         1 <0>         0.1465
      9 C7          4.2770    2.0604    1.3930 C.3       1 <0>        -0.1371
     10 C8          5.6292    2.7791    1.3785 C.3       1 <0>        -0.1388
     11 C9          6.5554    2.0830    0.3770 C.3       1 <0>        -0.1494
     12 C10         5.8904    2.0706   -1.0011 C.3       1 <0>        -0.0065
     13 N2          4.6157    1.3465   -0.9261 N.4       1 <0>        -0.5054
     14 H2         -0.9552    1.9117    0.0259 H         1 <0>         0.1528
     15 H3          1.2009    3.1496    0.0072 H         1 <0>         0.1475
     16 H4          3.2203   -0.6121   -0.0320 H         1 <0>         0.1490
     17 H5         -0.9294   -0.5505    0.0083 H         1 <0>         0.1719
     18 H6          3.5939    2.5835    2.0622 H         1 <0>         0.1125
     19 H7          4.4130    1.0357    1.7390 H         1 <0>         0.0903
     20 H8          5.4865    3.8181    1.0817 H         1 <0>         0.0839
     21 H9          6.0731    2.7406    2.3732 H         1 <0>         0.0976
     22 H10         7.5009    2.6223    0.3201 H         1 <0>         0.1148
     23 H11         6.7387    1.0588    0.7019 H         1 <0>         0.0895
     24 H12         5.7077    3.0952   -1.3251 H         1 <0>         0.1323
     25 H13         6.5472    1.5759   -1.7165 H         1 <0>         0.1365
     26 H14         4.7795    0.4134   -0.5788 H         1 <0>         0.4245
     27 H15         4.2060    1.2935   -1.8466 H         1 <0>         0.4315
@<TRIPOS>BOND
     1    1    6 ar
     2    1    2 ar
     3    1   14 1
     4    2    3 ar
     5    2   15 1
     6    3    4 ar
     7    3    7 1
     8    4    5 ar
     9    4   16 1
    10    5    6 ar
    11    6   17 1
    12    7    8 1
    13    7   13 1
    14    7    9 1
    15    9   10 1
    16    9   18 1
    17    9   19 1
    18   10   11 1
    19   10   20 1
    20   10   21 1
    21   11   12 1
    22   11   22 1
    23   11   23 1
    24   12   13 1
    25   12   24 1
    26   12   25 1
    27   13   26 1
    28   13   27 1
@<TRIPOS>MOLECULE
ZINC00031165
   27    28     0     0     0
SMALL
USER_CHARGES

@<TRIPOS>ATOM
      1 C1         -0.0167    1.3776    0.0096 C.ar      1 <0>        -0.1568
      2 C2          1.1849    2.0698    0.0019 C.ar      1 <0>        -0.0405
      3 C3          2.3651    1.3426   -0.0133 C.ar      1 <0>        -0.2038
      4 C4          2.3054   -0.0383   -0.0202 C.ar      1 <0>         0.1052
      5 N1          1.1443   -0.6632   -0.0129 N.ar      1 <0>        -0.4685
      6 C5          0.0021   -0.0041    0.0020 C.ar      1 <0>         0.1300
      7 C6          3.6964    2.0488   -0.0227 C.3       1 <0>         0.0903
      8 H1          3.5678    3.0703    0.3352 H         1 <0>         0.1465
      9 C7          4.2492    2.0747   -1.4493 C.3       1 <0>        -0.1371
     10 C8          5.6016    2.7933   -1.4539 C.3       1 <0>        -0.1389
     11 C9          6.5470    2.0873   -0.4778 C.3       1 <0>        -0.1494
     12 C10         5.9090    2.0609    0.9128 C.3       1 <0>        -0.0066
     13 N2          4.6331    1.3375    0.8554 N.4       1 <0>        -0.5054
     14 H2         -0.9552    1.9117    0.0259 H         1 <0>         0.1528
     15 H3          1.2009    3.1496    0.0072 H         1 <0>         0.1475
     16 H4          3.2203   -0.6121   -0.0320 H         1 <0>         0.1490
     17 H5         -0.9294   -0.5505    0.0083 H         1 <0>         0.1719
     18 H6          4.3785    1.0536   -1.8082 H         1 <0>         0.0903
     19 H7          3.5533    2.6045   -2.0998 H         1 <0>         0.1125
     20 H8          6.0260    2.7649   -2.4574 H         1 <0>         0.0975
     21 H9          5.4648    3.8294   -1.1439 H         1 <0>         0.0839
     22 H10         6.7239    1.0665   -0.8165 H         1 <0>         0.0895
     23 H11         7.4935    2.6261   -0.4338 H         1 <0>         0.1148
     24 H12         6.5797    1.5591    1.6103 H         1 <0>         0.1366
     25 H13         5.7328    3.0822    1.2506 H         1 <0>         0.1323
     26 H14         4.2414    1.2752    1.7832 H         1 <0>         0.4315
     27 H15         4.7900    0.4080    0.4956 H         1 <0>         0.4245
@<TRIPOS>BOND
     1    1    6 ar
     2    1    2 ar
     3    1   14 1
     4    2    3 ar
     5    2   15 1
     6    3    4 ar
     7    3    7 1
     8    4    5 ar
     9    4   16 1
    10    5    6 ar
    11    6   17 1
    12    7    8 1
    13    7   13 1
    14    7    9 1
    15    9   10 1
    16    9   18 1
    17    9   19 1
    18   10   11 1
    19   10   20 1
    20   10   21 1
    21   11   12 1
    22   11   22 1
    23   11   23 1
    24   12   13 1
    25   12   24 1
    26   12   25 1
    27   13   26 1
    28   13   27 1
@<TRIPOS>MOLECULE
ZINC00391812
   27    28     0     0     0
SMALL
USER_CHARGES

@<TRIPOS>ATOM
      1 C1          0.3944    1.5372   -0.0882 C.3       1 <0>        -0.0517
      2 N1          0.2218    0.0783   -0.0924 N.4       1 <0>        -0.3878
      3 C2          0.9063   -0.4989   -1.2638 C.3       1 <0>        -0.0125
      4 C3          1.9925   -1.4575   -0.7321 C.3       1 <0>        -0.1421
      5 C4          2.2411   -0.9393    0.7089 C.3       1 <0>        -0.1364
      6 C5          0.8181   -0.4968    1.1321 C.3       1 <0>         0.0811
      7 H1          0.2382   -1.3559    1.4692 H         1 <0>         0.1507
      8 C6          0.8940    0.5453    2.2181 C.ar      1 <0>        -0.2036
      9 C7          1.8431    1.5545    2.1577 C.ar      1 <0>        -0.0573
     10 C8          1.8760    2.4913    3.1790 C.ar      1 <0>        -0.1660
     11 C9          0.9680    2.3891    4.2162 C.ar      1 <0>         0.1377
     12 N2          0.0793    1.4154    4.2410 N.ar      1 <0>        -0.4739
     13 C10         0.0150    0.5105    3.2837 C.ar      1 <0>         0.1353
     14 H2          1.4576    1.7772   -0.0812 H         1 <0>         0.1215
     15 H3         -0.0678    1.9603   -0.9800 H         1 <0>         0.1243
     16 H4         -0.0786    1.9564    0.7999 H         1 <0>         0.1209
     17 H5          0.1926   -1.0502   -1.8760 H         1 <0>         0.1353
     18 H6          1.3676    0.2945   -1.8519 H         1 <0>         0.1319
     19 H7          1.6257   -2.4838   -0.7146 H         1 <0>         0.1029
     20 H8          2.9001   -1.3816   -1.3309 H         1 <0>         0.1144
     21 H9          2.6094   -1.7378    1.3529 H         1 <0>         0.1203
     22 H10         2.9285   -0.0933    0.7065 H         1 <0>         0.0978
     23 H11         2.5404    1.6091    1.3347 H         1 <0>         0.1428
     24 H12         2.6020    3.2907    3.1646 H         1 <0>         0.1512
     25 H13         0.9870    3.1149    5.0157 H         1 <0>         0.1712
     26 H14        -0.7302   -0.2695    3.3356 H         1 <0>         0.1637
     27 H15        -0.7608   -0.1480   -0.1301 H         1 <0>         0.4285
@<TRIPOS>BOND
     1    1    2 1
     2    1   14 1
     3    1   15 1
     4    1   16 1
     5    2    6 1
     6    2    3 1
     7    2   27 1
     8    3    4 1
     9    3   17 1
    10    3   18 1
    11    4    5 1
    12    4   19 1
    13    4   20 1
    14    5    6 1
    15    5   21 1
    16    5   22 1
    17    6    7 1
    18    6    8 1
    19    8   13 ar
    20    8    9 ar
    21    9   10 ar
    22    9   23 1
    23   10   11 ar
    24   10   24 1
    25   11   12 ar
    26   11   25 1
    27   12   13 ar
    28   13   26 1
@<TRIPOS>MOLECULE
ZINC06525315
   25    26     0     0     0
SMALL
USER_CHARGES
3-(azetidin-2-ylmethoxy)-2-fluoro-pyridine
@<TRIPOS>ATOM
      1 C1          1.7767   -0.5074   -3.1314 C.ar      1 <0>        -0.1390
      2 C2          1.1669    0.1527   -2.0749 C.ar      1 <0>        -0.1326
      3 C3          0.6061   -0.6074   -1.0562 C.ar      1 <0>         0.0398
      4 C4          0.6664   -1.9943   -1.1374 C.ar      1 <0>         0.2992
      5 N1          1.2519   -2.5828   -2.1630 N.ar      1 <0>        -0.4717
      6 C5          1.7982   -1.8881   -3.1430 C.ar      1 <0>         0.1183
      7 F1          0.1208   -2.7463   -0.1566 F         1 <0>        -0.1011
      8 O1          0.0021   -0.0041    0.0020 O.3       1 <0>        -0.3070
      9 C6         -0.0173    1.4248    0.0099 C.3       1 <0>         0.0437
     10 C7         -0.7334    1.9182    1.2687 C.3       1 <0>         0.0138
     11 H1         -1.6681    1.3897    1.4563 H         1 <0>         0.1745
     12 C8         -0.8689    3.4458    1.3361 C.3       1 <0>        -0.1667
     13 C9         -0.5657    3.2343    2.8261 C.3       1 <0>        -0.0227
     14 H2          2.2262    0.0524   -3.9383 H         1 <0>         0.1565
     15 H3          1.1323    1.2317   -2.0430 H         1 <0>         0.1507
     16 H4          2.2683   -2.4065   -3.9656 H         1 <0>         0.1803
     17 H5          1.0053    1.8021    0.0021 H         1 <0>         0.0891
     18 H6         -0.5445    1.7859   -0.8732 H         1 <0>         0.1145
     19 H7         -0.0927    3.9870    0.7951 H         1 <0>         0.1292
     20 H8         -1.8745    3.8141    1.1332 H         1 <0>         0.1322
     21 H9         -1.4561    3.0580    3.4296 H         1 <0>         0.1557
     22 H10         0.0864    3.9979    3.2501 H         1 <0>         0.1552
     23 N2          0.0393    2.0739    2.3977 N.4       1 <0>        -0.4741
     24 H11         1.0351    2.2017    2.1825 H         1 <0>         0.4375
     25 H12        -0.0704    1.3000    3.0635 H         1 <0>         0.4249
@<TRIPOS>BOND
     1    1    6 ar
     2    1    2 ar
     3    1   14 1
     4    2    3 ar
     5    2   15 1
     6    3    4 ar
     7    3    8 1
     8    4    5 ar
     9    4    7 1
    10    5    6 ar
    11    6   16 1
    12    8    9 1
    13    9   10 1
    14    9   17 1
    15    9   18 1
    16   10   11 1
    17   10   12 1
    18   10   23 1
    19   12   13 1
    20   12   19 1
    21   12   20 1
    22   13   21 1
    23   13   22 1
    24   13   23 1
    25   23   24 1
    26   23   25 1
@<TRIPOS>MOLECULE
ZINC13474371
   26    27     0     0     0
SMALL
USER_CHARGES

@<TRIPOS>ATOM
      1 C1         -0.0167    1.3825    0.0096 C.ar      1 <0>        -0.0333
      2 C2          1.1930    2.0590    0.0017 C.ar      1 <0>        -0.1495
      3 C3          2.3709    1.3334   -0.0134 C.ar      1 <0>         0.1928
      4 N1          2.3501    0.0138   -0.0207 N.ar      1 <0>        -0.4714
      5 C4          1.2174   -0.6616   -0.0136 C.ar      1 <0>         0.1389
      6 C5          0.0021   -0.0041    0.0020 C.ar      1 <0>        -0.1976
      7 C6         -1.2872   -0.7844    0.0101 C.3       1 <0>         0.1761
      8 N2         -1.7181   -1.0298   -1.3684 N.pl3     1 <0>        -0.5857
      9 C7         -2.5850   -0.1498   -2.1697 C.3       1 <0>         0.0823
     10 C8         -2.7002   -0.8954   -3.5142 C.3       1 <0>         0.0760
     11 N3         -1.8895   -2.1056   -3.3203 N.pl3     1 <0>        -0.6516
     12 C9         -1.3789   -2.1126   -2.1323 C.cat     1 <0>         0.7174
     13 N4         -0.5681   -3.1241   -1.6745 N.pl3     1 <0>        -0.8092
     14 Cl1         3.8931    2.1680   -0.0235 Cl        1 <0>        -0.0026
     15 H1         -0.9519    1.9225    0.0259 H         1 <0>         0.1525
     16 H2          1.2158    3.1388    0.0070 H         1 <0>         0.1577
     17 H3          1.2399   -1.7413   -0.0203 H         1 <0>         0.1568
     18 H4         -1.1323   -1.7366    0.5174 H         1 <0>         0.1096
     19 H5         -2.0538   -0.2139    0.5344 H         1 <0>         0.1289
     20 H6         -3.5643   -0.0456   -1.7026 H         1 <0>         0.1207
     21 H7         -2.1188    0.8255   -2.3096 H         1 <0>         0.1145
     22 H8         -3.7382   -1.1593   -3.7170 H         1 <0>         0.1252
     23 H9         -2.2939   -0.2888   -4.3235 H         1 <0>         0.1228
     24 H10        -0.2099   -3.0885   -0.7738 H         1 <0>         0.4337
     25 H11        -0.3541   -3.8733   -2.2523 H         1 <0>         0.4395
     26 H12        -1.7539   -2.7964   -3.9876 H         1 <0>         0.4556
@<TRIPOS>BOND
     1    1    6 ar
     2    1    2 ar
     3    1   15 1
     4    2    3 ar
     5    2   16 1
     6    3    4 ar
     7    3   14 1
     8    4    5 ar
     9    5    6 ar
    10    5   17 1
    11    6    7 1
    12    7    8 1
    13    7   18 1
    14    7   19 1
    15    8   12 1
    16    8    9 1
    17    9   10 1
    18    9   20 1
    19    9   21 1
    20   10   11 1
    21   10   22 1
    22   10   23 1
    23   11   12 2
    24   11   26 1
    25   12   13 1
    26   13   24 1
    27   13   25 1
@<TRIPOS>MOLECULE
ZINC04474604
   27    28     0     0     0
SMALL
USER_CHARGES

@<TRIPOS>ATOM
      1 C1         -3.3367   -1.7998    0.9454 C.ar      1 <0>        -0.0334
      2 C2         -4.5646   -1.6558    1.5720 C.ar      1 <0>        -0.1529
      3 C3         -5.0109   -0.3872    1.8967 C.ar      1 <0>         0.1850
      4 N1         -4.2820    0.6766    1.6158 N.ar      1 <0>        -0.4783
      5 C4         -3.1096    0.5761    1.0204 C.ar      1 <0>         0.1406
      6 C5         -2.5996   -0.6587    0.6670 C.ar      1 <0>        -0.1735
      7 C6         -1.2589   -0.7638   -0.0131 C.3       1 <0>         0.1409
      8 N2         -1.4547   -1.0350   -1.4394 N.pl3     1 <0>        -0.6047
      9 C7         -2.0000   -0.0849   -2.4203 C.3       1 <0>         0.0817
     10 C8         -1.9876   -0.8726   -3.7447 C.3       1 <0>         0.0919
     11 N3         -1.4366   -2.1836   -3.3705 N.pl3     1 <0>        -0.6727
     12 C9         -1.1599   -2.1867   -2.0588 C.2       1 <0>         0.6986
     13 N4         -0.6367   -3.2512   -1.4207 N.2       1 <0>        -0.4971
     14 N5         -0.2558   -3.1441   -0.1929 N.pl3     1 <0>         0.2230
     15 O1         -1.0477   -3.5462    0.7796 O.2       1 <0>        -0.2500
     16 O2          0.9248   -2.6326    0.0881 O.3       1 <0>        -0.2646
     17 Cl1        -6.5469   -0.1924    2.6818 Cl        1 <0>        -0.0218
     18 H1         -2.9608   -2.7780    0.6841 H         1 <0>         0.1595
     19 H2         -5.1654   -2.5229    1.8036 H         1 <0>         0.1514
     20 H3         -2.5416    1.4692    0.8061 H         1 <0>         0.1672
     21 H4         -0.7159    0.1737    0.1073 H         1 <0>         0.1114
     22 H5         -0.6864   -1.5755    0.4358 H         1 <0>         0.1266
     23 H6         -3.0181    0.1985   -2.1533 H         1 <0>         0.1007
     24 H7         -1.3633    0.7968   -2.4937 H         1 <0>         0.1061
     25 H8         -2.9995   -0.9803   -4.1352 H         1 <0>         0.1056
     26 H9         -1.3448   -0.3820   -4.4756 H         1 <0>         0.1086
     27 H10        -1.2930   -2.9268   -3.9770 H         1 <0>         0.4500
@<TRIPOS>BOND
     1    1    6 ar
     2    1    2 ar
     3    1   18 1
     4    2    3 ar
     5    2   19 1
     6    3    4 ar
     7    3   17 1
     8    4    5 ar
     9    5    6 ar
    10    5   20 1
    11    6    7 1
    12    7    8 1
    13    7   21 1
    14    7   22 1
    15    8   12 1
    16    8    9 1
    17    9   10 1
    18    9   23 1
    19    9   24 1
    20   10   11 1
    21   10   25 1
    22   10   26 1
    23   11   12 1
    24   11   27 1
    25   12   13 2
    26   13   14 1
    27   14   15 2
    28   14   16 1
@<TRIPOS>MOLECULE
ZINC04474604
   27    28     0     0     0
SMALL
USER_CHARGES

@<TRIPOS>ATOM
      1 C1         -0.0232    1.3761    0.0289 C.ar      1 <0>        -0.0422
      2 C2          1.1873    2.0511    0.0320 C.ar      1 <0>        -0.1593
      3 C3          2.3644    1.3241    0.0228 C.ar      1 <0>         0.1860
      4 N1          2.3421    0.0046    0.0108 N.ar      1 <0>        -0.4757
      5 C4          1.2085   -0.6694    0.0076 C.ar      1 <0>         0.1546
      6 C5         -0.0061   -0.0105    0.0167 C.ar      1 <0>        -0.1801
      7 C6         -1.2963   -0.7892    0.0129 C.3       1 <0>         0.1880
      8 N2         -1.7176   -1.0294   -1.3695 N.pl3     1 <0>        -0.5686
      9 C7         -2.5772   -0.1402   -2.1650 C.3       1 <0>         0.0889
     10 C8         -2.6991   -0.8603   -3.5219 C.3       1 <0>         0.0864
     11 N3         -1.8954   -2.0794   -3.3480 N.pl3     1 <0>        -0.7201
     12 C9         -1.3761   -2.0919   -2.1122 C.2       1 <0>         0.6973
     13 N4         -0.5862   -3.0832   -1.6570 N.2       1 <0>        -0.4965
     14 N5         -0.3770   -4.1272   -2.3854 N.pl3     1 <0>         0.1954
     15 O1          0.6891   -4.1894   -3.1562 O.2       1 <0>        -0.2389
     16 O2         -1.2294   -5.1307   -2.3581 O.3       1 <0>        -0.2492
     17 Cl1         3.8877    2.1568    0.0265 Cl        1 <0>        -0.0218
     18 H1         -0.9578    1.9172    0.0403 H         1 <0>         0.1476
     19 H2          1.2115    3.1308    0.0410 H         1 <0>         0.1502
     20 H3          1.2298   -1.7492   -0.0027 H         1 <0>         0.1706
     21 H4         -1.1463   -1.7433    0.5180 H         1 <0>         0.1138
     22 H5         -2.0660   -0.2195    0.5335 H         1 <0>         0.1128
     23 H6         -3.5565   -0.0362   -1.6978 H         1 <0>         0.1084
     24 H7         -2.1067    0.8350   -2.2905 H         1 <0>         0.1016
     25 H8         -3.7389   -1.1139   -3.7283 H         1 <0>         0.1055
     26 H9         -2.2892   -0.2426   -4.3210 H         1 <0>         0.1031
     27 H10        -1.7598   -2.7640   -4.0217 H         1 <0>         0.4422
@<TRIPOS>BOND
     1    1    6 ar
     2    1    2 ar
     3    1   18 1
     4    2    3 ar
     5    2   19 1
     6    3    4 ar
     7    3   17 1
     8    4    5 ar
     9    5    6 ar
    10    5   20 1
    11    6    7 1
    12    7    8 1
    13    7   21 1
    14    7   22 1
    15    8   12 1
    16    8    9 1
    17    9   10 1
    18    9   23 1
    19    9   24 1
    20   10   11 1
    21   10   25 1
    22   10   26 1
    23   11   12 1
    24   11   27 1
    25   12   13 2
    26   13   14 1
    27   14   15 2
    28   14   16 1
@<TRIPOS>MOLECULE
ZINC04474604
   26    27     0     0     0
SMALL
USER_CHARGES

@<TRIPOS>ATOM
      1 C1         -0.0167    1.3825    0.0096 C.ar      1 <0>        -0.0553
      2 C2          1.1930    2.0590    0.0017 C.ar      1 <0>        -0.1627
      3 C3          2.3709    1.3334   -0.0134 C.ar      1 <0>         0.1701
      4 N1          2.3501    0.0138   -0.0207 N.ar      1 <0>        -0.4798
      5 C4          1.2174   -0.6616   -0.0136 C.ar      1 <0>         0.1507
      6 C5          0.0021   -0.0041    0.0020 C.ar      1 <0>        -0.1462
      7 C6         -1.2872   -0.7844    0.0101 C.3       1 <0>         0.1949
      8 N2         -1.7181   -1.0298   -1.3684 N.pl3     1 <0>        -0.6322
      9 C7         -2.5850   -0.1498   -2.1697 C.3       1 <0>         0.0920
     10 C8         -2.6997   -0.8951   -3.5144 C.3       1 <0>         0.0364
     11 N3         -1.8888   -2.1052   -3.3206 N.2       1 <0>        -0.6245
     12 C9         -1.3789   -2.1126   -2.1323 C.2       1 <0>         0.5431
     13 N4         -0.5682   -3.1241   -1.6745 N.2       1 <0>        -0.5178
     14 N5         -0.2592   -4.2062   -2.5090 N.pl3     1 <0>         0.2255
     15 O1         -0.7055   -4.2504   -3.6317 O.2       1 <0>        -0.2969
     16 O2          0.4537   -5.0958   -2.1064 O.3       1 <0>        -0.3190
     17 Cl1         3.8931    2.1680   -0.0235 Cl        1 <0>        -0.0438
     18 H1         -0.9519    1.9225    0.0259 H         1 <0>         0.1402
     19 H2          1.2158    3.1388    0.0070 H         1 <0>         0.1408
     20 H3          1.2399   -1.7413   -0.0203 H         1 <0>         0.1760
     21 H4         -1.1323   -1.7366    0.5174 H         1 <0>         0.0957
     22 H5         -2.0538   -0.2139    0.5344 H         1 <0>         0.0768
     23 H6         -3.5644   -0.0459   -1.7028 H         1 <0>         0.0602
     24 H7         -2.1189    0.8257   -2.3093 H         1 <0>         0.0548
     25 H8         -3.7376   -1.1591   -3.7176 H         1 <0>         0.0616
     26 H9         -2.2933   -0.2883   -4.3235 H         1 <0>         0.0592
@<TRIPOS>BOND
     1    1    6 ar
     2    1    2 ar
     3    1   18 1
     4    2    3 ar
     5    2   19 1
     6    3    4 ar
     7    3   17 1
     8    4    5 ar
     9    5    6 ar
    10    5   20 1
    11    6    7 1
    12    7    8 1
    13    7   21 1
    14    7   22 1
    15    8   12 1
    16    8    9 1
    17    9   10 1
    18    9   23 1
    19    9   24 1
    20   10   11 1
    21   10   25 1
    22   10   26 1
    23   11   12 2
    24   12   13 1
    25   13   14 1
    26   14   15 2
    27   14   16 1
@<TRIPOS>MOLECULE
ZINC04474604
   26    27     0     0     0
SMALL
USER_CHARGES

@<TRIPOS>ATOM
      1 C1         -0.0167    1.3825    0.0096 C.ar      1 <0>        -0.0532
      2 C2          1.1930    2.0590    0.0017 C.ar      1 <0>        -0.1625
      3 C3          2.3709    1.3334   -0.0134 C.ar      1 <0>         0.1721
      4 N1          2.3501    0.0138   -0.0207 N.ar      1 <0>        -0.4788
      5 C4          1.2174   -0.6616   -0.0136 C.ar      1 <0>         0.1506
      6 C5          0.0021   -0.0041    0.0020 C.ar      1 <0>        -0.1498
      7 C6         -1.2872   -0.7844    0.0101 C.3       1 <0>         0.1883
      8 N2         -1.7181   -1.0298   -1.3684 N.pl3     1 <0>        -0.6118
      9 C7         -2.5845   -0.1444   -2.1607 C.3       1 <0>         0.0913
     10 C8         -2.7153   -0.8693   -3.5142 C.3       1 <0>         0.0217
     11 N3         -1.9088   -2.0868   -3.3420 N.2       1 <0>        -0.5777
     12 C9         -1.3806   -2.0944   -2.1099 C.2       1 <0>         0.5255
     13 N4         -0.5862   -3.0832   -1.6570 N.2       1 <0>        -0.4227
     14 N5         -0.2991   -4.0814   -2.4221 N.pl3     1 <0>         0.2681
     15 O1         -0.7828   -4.1336   -3.6459 O.2       1 <0>        -0.3946
     16 O2          0.4777   -5.0484   -1.9793 O.3       1 <0>        -0.4246
     17 Cl1         3.8931    2.1680   -0.0235 Cl        1 <0>        -0.0420
     18 H1         -0.9519    1.9225    0.0259 H         1 <0>         0.1414
     19 H2          1.2158    3.1388    0.0070 H         1 <0>         0.1418
     20 H3          1.2399   -1.7413   -0.0203 H         1 <0>         0.1764
     21 H4         -1.1323   -1.7366    0.5174 H         1 <0>         0.1001
     22 H5         -2.0538   -0.2139    0.5344 H         1 <0>         0.0828
     23 H6         -3.5605   -0.0401   -1.6868 H         1 <0>         0.0654
     24 H7         -2.1161    0.8309   -2.2928 H         1 <0>         0.0600
     25 H8         -3.7562   -1.1248   -3.7123 H         1 <0>         0.0673
     26 H9         -2.3118   -0.2538   -4.3183 H         1 <0>         0.0649
@<TRIPOS>BOND
     1    1    6 ar
     2    1    2 ar
     3    1   18 1
     4    2    3 ar
     5    2   19 1
     6    3    4 ar
     7    3   17 1
     8    4    5 ar
     9    5    6 ar
    10    5   20 1
    11    6    7 1
    12    7    8 1
    13    7   21 1
    14    7   22 1
    15    8   12 1
    16    8    9 1
    17    9   10 1
    18    9   23 1
    19    9   24 1
    20   10   11 1
    21   10   25 1
    22   10   26 1
    23   11   12 1
    24   12   13 2
    25   13   14 1
    26   14   15 2
    27   14   16 1
@<TRIPOS>MOLECULE
ZINC04474604
   26    27     0     0     0
SMALL
USER_CHARGES

@<TRIPOS>ATOM
      1 C1         -3.3367   -1.7998    0.9453 C.ar      1 <0>        -0.0336
      2 C2         -4.5646   -1.6558    1.5720 C.ar      1 <0>        -0.1545
      3 C3         -5.0109   -0.3872    1.8967 C.ar      1 <0>         0.1698
      4 N1         -4.2820    0.6766    1.6158 N.ar      1 <0>        -0.4846
      5 C4         -3.1096    0.5761    1.0204 C.ar      1 <0>         0.1245
      6 C5         -2.5996   -0.6587    0.6670 C.ar      1 <0>        -0.1426
      7 C6         -1.2589   -0.7638   -0.0131 C.3       1 <0>         0.1390
      8 N2         -1.4547   -1.0350   -1.4394 N.pl3     1 <0>        -0.6490
      9 C7         -2.0000   -0.0849   -2.4203 C.3       1 <0>         0.0881
     10 C8         -1.9876   -0.8726   -3.7447 C.3       1 <0>         0.0485
     11 N3         -1.4366   -2.1836   -3.3705 N.2       1 <0>        -0.6488
     12 C9         -1.1599   -2.1867   -2.0588 C.2       1 <0>         0.6094
     13 N4         -0.6367   -3.2512   -1.4207 N.2       1 <0>        -0.5267
     14 N5         -0.2558   -3.1441   -0.1929 N.pl3     1 <0>         0.2724
     15 O1         -1.0477   -3.5462    0.7796 O.2       1 <0>        -0.3324
     16 O2          0.9248   -2.6326    0.0881 O.3       1 <0>        -0.3484
     17 Cl1        -6.5469   -0.1924    2.6818 Cl        1 <0>        -0.0430
     18 H1         -2.9608   -2.7780    0.6841 H         1 <0>         0.1647
     19 H2         -5.1654   -2.5229    1.8036 H         1 <0>         0.1445
     20 H3         -2.5416    1.4692    0.8061 H         1 <0>         0.1613
     21 H4         -0.7159    0.1737    0.1073 H         1 <0>         0.0780
     22 H5         -0.6864   -1.5755    0.4358 H         1 <0>         0.1225
     23 H6         -3.0181    0.1985   -2.1533 H         1 <0>         0.0583
     24 H7         -1.3633    0.7968   -2.4937 H         1 <0>         0.0626
     25 H8         -2.9995   -0.9803   -4.1352 H         1 <0>         0.0586
     26 H9         -1.3448   -0.3820   -4.4756 H         1 <0>         0.0617
@<TRIPOS>BOND
     1    1    6 ar
     2    1    2 ar
     3    1   18 1
     4    2    3 ar
     5    2   19 1
     6    3    4 ar
     7    3   17 1
     8    4    5 ar
     9    5    6 ar
    10    5   20 1
    11    6    7 1
    12    7    8 1
    13    7   21 1
    14    7   22 1
    15    8   12 1
    16    8    9 1
    17    9   10 1
    18    9   23 1
    19    9   24 1
    20   10   11 1
    21   10   25 1
    22   10   26 1
    23   11   12 1
    24   12   13 2
    25   13   14 1
    26   14   15 2
    27   14   16 1
@<TRIPOS>MOLECULE
ZINC01752617
   32    33     0     0     0
SMALL
USER_CHARGES
3-(5-chloro-2-hydroxy-phenyl)-1-[2-chloro-5-(trifluoromethyl)phenyl]-urea
@<TRIPOS>ATOM
      1 C1          3.4459   10.0967   -0.1839 C.ar      1 <0>        -0.0788
      2 C2          4.4831    9.4214   -0.8012 C.ar      1 <0>        -0.0853
      3 C3          4.5011    8.0397   -0.8102 C.ar      1 <0>        -0.0427
      4 C4          3.4755    7.3293   -0.1975 C.ar      1 <0>         0.1784
      5 C5          2.4337    8.0109    0.4163 C.ar      1 <0>        -0.0712
      6 C6          2.4244    9.3925    0.4258 C.ar      1 <0>        -0.1550
      7 C7          1.2961   10.1327    1.0967 C.3       1 <0>         0.5109
      8 F1          1.5028   11.5107    0.9714 F         1 <0>        -0.1741
      9 F2          0.0845    9.7858    0.4895 F         1 <0>        -0.1696
     10 F3          1.2537    9.7890    2.4522 F         1 <0>        -0.1732
     11 N1          3.4902    5.9295   -0.2045 N.am      1 <0>        -0.6734
     12 C8          2.3361    5.2428   -0.0908 C.2       1 <0>         0.7066
     13 O1          1.2742    5.8351   -0.0861 O.2       1 <0>        -0.5463
     14 N2          2.3590    3.8996    0.0177 N.am      1 <0>        -0.6704
     15 C9          1.1579    3.1775    0.0365 C.ar      1 <0>         0.1469
     16 C10         0.0330    3.7150    0.6446 C.ar      1 <0>        -0.0979
     17 C11        -1.1511    3.0007    0.6614 C.ar      1 <0>        -0.0247
     18 C12        -1.2179    1.7523    0.0681 C.ar      1 <0>        -0.1053
     19 C13        -0.0987    1.2090   -0.5348 C.ar      1 <0>        -0.1118
     20 C14         1.0909    1.9187   -0.5556 C.ar      1 <0>         0.0869
     21 O2          2.1909    1.3874   -1.1535 O.3       1 <0>        -0.4918
     22 Cl1        -2.5584    3.6743    1.4226 Cl        1 <0>        -0.0558
     23 Cl2         5.8031    7.1924   -1.5851 Cl        1 <0>        -0.0475
     24 H1          3.4338   11.1766   -0.1784 H         1 <0>         0.1520
     25 H2          5.2795    9.9745   -1.2769 H         1 <0>         0.1533
     26 H3          1.6330    7.4617    0.8894 H         1 <0>         0.1682
     27 H4          4.3311    5.4537   -0.2912 H         1 <0>         0.4157
     28 H5          3.2067    3.4327    0.0828 H         1 <0>         0.4174
     29 H6          0.0817    4.6911    1.1043 H         1 <0>         0.1574
     30 H7         -2.1456    1.1995    0.0794 H         1 <0>         0.1421
     31 H8         -0.1530    0.2329   -0.9937 H         1 <0>         0.1457
     32 H9          2.2732    1.6066   -2.0917 H         1 <0>         0.3932
@<TRIPOS>BOND
     1    1    6 ar
     2    1    2 ar
     3    1   24 1
     4    2    3 ar
     5    2   25 1
     6    3    4 ar
     7    3   23 1
     8    4    5 ar
     9    4   11 1
    10    5    6 ar
    11    5   26 1
    12    6    7 1
    13    7    8 1
    14    7    9 1
    15    7   10 1
    16   11   12 am
    17   11   27 1
    18   12   13 2
    19   12   14 am
    20   14   15 1
    21   14   28 1
    22   15   20 ar
    23   15   16 ar
    24   16   17 ar
    25   16   29 1
    26   17   18 ar
    27   17   22 1
    28   18   19 ar
    29   18   30 1
    30   19   20 ar
    31   19   31 1
    32   20   21 1
    33   21   32 1
@<TRIPOS>MOLECULE
ZINC01085771
   47    51     0     0     0
SMALL
USER_CHARGES

@<TRIPOS>ATOM
      1 C1         -0.0164    1.3567    0.0095 C.ar      1 <0>        -0.1174
      2 C2          1.1685    2.0906    0.0021 C.ar      1 <0>        -0.1090
      3 C3          2.3785    1.4679   -0.0132 C.ar      1 <0>        -0.1159
      4 C4          2.4378    0.0637   -0.0214 C.ar      1 <0>        -0.0394
      5 C5          1.2328   -0.6827   -0.0134 C.ar      1 <0>        -0.0522
      6 C6          0.0021   -0.0041    0.0020 C.ar      1 <0>        -0.1024
      7 C7          1.2920   -2.0865   -0.0210 C.ar      1 <0>        -0.1017
      8 C8          2.5022   -2.7094   -0.0359 C.ar      1 <0>        -0.1166
      9 C9          3.6867   -1.9757   -0.0433 C.ar      1 <0>        -0.0933
     10 C10         3.6681   -0.6146   -0.0367 C.ar      1 <0>        -0.1002
     11 C11         4.9603    0.1606   -0.0459 C.3       1 <0>         0.2098
     12 H1          4.8134    1.0668   -0.6335 H         1 <0>         0.0954
     13 C12         5.2865    0.5563    1.3632 C.3       1 <0>        -0.0929
     14 H2          4.3645    0.8208    1.8809 H         1 <0>         0.0978
     15 C13         6.2563    1.7544    1.4252 C.3       1 <0>        -0.0974
     16 C14         6.9851    1.5612    2.7385 C.2       1 <0>        -0.1581
     17 C15         6.8526    0.3342    3.1703 C.2       1 <0>        -0.1617
     18 C16         6.0416   -0.4791    2.1923 C.3       1 <0>        -0.0070
     19 H3          5.3411   -1.1128    2.7362 H         1 <0>         0.0882
     20 C17         6.9928   -1.3092    1.3772 C.ar      1 <0>        -0.1634
     21 C18         7.9473   -2.0630    2.0454 C.ar      1 <0>         0.0335
     22 C19         8.8504   -2.8326    1.3403 C.ar      1 <0>        -0.7278
     23 C20         8.8113   -2.8574   -0.0420 C.ar      1 <0>         0.0250
     24 C21         7.8633   -2.1144   -0.7148 C.ar      1 <0>        -0.2140
     25 C22         6.9477   -1.3419   -0.0048 C.ar      1 <0>         0.2797
     26 N1          5.9741   -0.6459   -0.6930 N.pl3     1 <0>        -0.7172
     27 S1         10.0560   -3.7851    2.2030 S.o2      1 <0>         2.7024
     28 O1         11.1326   -3.9925    1.2990 O.2       1 <0>        -0.9691
     29 O2         10.2332   -3.1651    3.4693 O.2       1 <0>        -0.9691
     30 N2          9.3886   -5.2725    2.4935 N.pl3     1 <0>        -1.2522
     31 H4         -0.9634    1.8756    0.0259 H         1 <0>         0.1243
     32 H5          1.1258    3.1698    0.0084 H         1 <0>         0.1242
     33 H6          3.2883    2.0497   -0.0195 H         1 <0>         0.1260
     34 H7         -0.9241   -0.5595    0.0082 H         1 <0>         0.1278
     35 H8          0.3820   -2.6682   -0.0147 H         1 <0>         0.1276
     36 H9          2.5450   -3.7886   -0.0417 H         1 <0>         0.1234
     37 H10         4.6338   -2.4947   -0.0548 H         1 <0>         0.1225
     38 H11         6.9566    1.7236    0.5905 H         1 <0>         0.0775
     39 H12         5.7041    2.6942    1.4284 H         1 <0>         0.0765
     40 H13         7.5404    2.3336    3.2499 H         1 <0>         0.1284
     41 H14         7.2762   -0.0429    4.0894 H         1 <0>         0.1331
     42 H15         7.9839   -2.0471    3.1247 H         1 <0>         0.1391
     43 H16         9.5211   -3.4564   -0.5932 H         1 <0>         0.1419
     44 H17         7.8314   -2.1317   -1.7942 H         1 <0>         0.1327
     45 H18         5.9929   -0.6790   -1.6623 H         1 <0>         0.4064
     46 H19         8.4867   -5.4664    2.1936 H         1 <0>         0.4159
     47 H20         9.8996   -5.9500    2.9635 H         1 <0>         0.4193
@<TRIPOS>BOND
     1    1    6 ar
     2    1    2 ar
     3    1   31 1
     4    2    3 ar
     5    2   32 1
     6    3    4 ar
     7    3   33 1
     8    4   10 ar
     9    4    5 ar
    10    5    6 ar
    11    5    7 ar
    12    6   34 1
    13    7    8 ar
    14    7   35 1
    15    8    9 ar
    16    8   36 1
    17    9   10 ar
    18    9   37 1
    19   10   11 1
    20   11   12 1
    21   11   26 1
    22   11   13 1
    23   13   14 1
    24   13   18 1
    25   13   15 1
    26   15   16 1
    27   15   38 1
    28   15   39 1
    29   16   17 2
    30   16   40 1
    31   17   18 1
    32   17   41 1
    33   18   19 1
    34   18   20 1
    35   20   25 ar
    36   20   21 ar
    37   21   22 ar
    38   21   42 1
    39   22   23 ar
    40   22   27 1
    41   23   24 ar
    42   23   43 1
    43   24   25 ar
    44   24   44 1
    45   25   26 1
    46   26   45 1
    47   27   28 2
    48   27   29 2
    49   27   30 1
    50   30   46 1
    51   30   47 1
@<TRIPOS>MOLECULE
ZINC04456011
   47    51     0     0     0
SMALL
USER_CHARGES

@<TRIPOS>ATOM
      1 C1         -0.0164    1.3567    0.0095 C.ar      1 <0>        -0.1154
      2 C2          1.1685    2.0906    0.0021 C.ar      1 <0>        -0.1088
      3 C3          2.3785    1.4679   -0.0132 C.ar      1 <0>        -0.1145
      4 C4          2.4378    0.0637   -0.0214 C.ar      1 <0>        -0.0375
      5 C5          1.2328   -0.6827   -0.0134 C.ar      1 <0>        -0.0498
      6 C6          0.0021   -0.0041    0.0020 C.ar      1 <0>        -0.1032
      7 C7          1.2920   -2.0865   -0.0210 C.ar      1 <0>        -0.1004
      8 C8          2.5022   -2.7094   -0.0359 C.ar      1 <0>        -0.1144
      9 C9          3.6867   -1.9757   -0.0433 C.ar      1 <0>        -0.1051
     10 C10         3.6681   -0.6146   -0.0367 C.ar      1 <0>        -0.0884
     11 C11         4.9603    0.1606   -0.0459 C.3       1 <0>         0.2102
     12 H1          4.8541    1.0138    0.6241 H         1 <0>         0.0813
     13 C12         5.1959    0.6743   -1.4349 C.3       1 <0>        -0.0936
     14 H2          4.5833    1.5616   -1.5947 H         1 <0>         0.0969
     15 C13         4.8496   -0.3734   -2.5129 C.3       1 <0>        -0.0909
     16 C14         5.7514   -0.0085   -3.6736 C.2       1 <0>        -0.1572
     17 C15         6.7310    0.7627   -3.2797 C.2       1 <0>        -0.1641
     18 C16         6.6435    0.9999   -1.7925 C.3       1 <0>        -0.0085
     19 H3          6.8613    2.0457   -1.5755 H         1 <0>         0.0900
     20 C17         7.6365    0.0953   -1.1186 C.ar      1 <0>        -0.1654
     21 C18         8.9424    0.0858   -1.5880 C.ar      1 <0>         0.0345
     22 C19         9.8882   -0.7358   -1.0086 C.ar      1 <0>        -0.7287
     23 C20         9.5397   -1.5598    0.0462 C.ar      1 <0>         0.0255
     24 C21         8.2446   -1.5547    0.5216 C.ar      1 <0>        -0.2143
     25 C22         7.2907   -0.7215   -0.0574 C.ar      1 <0>         0.2812
     26 N1          6.0116   -0.6947    0.4642 N.pl3     1 <0>        -0.7195
     27 S1         11.5428   -0.7353   -1.6144 S.o2      1 <0>         2.7029
     28 O1         12.1055   -1.9910   -1.2597 O.2       1 <0>        -0.9693
     29 O2         11.4828   -0.2800   -2.9592 O.2       1 <0>        -0.9692
     30 N2         12.3759    0.4143   -0.7621 N.pl3     1 <0>        -1.2522
     31 H4         -0.9634    1.8756    0.0259 H         1 <0>         0.1248
     32 H5          1.1258    3.1698    0.0084 H         1 <0>         0.1248
     33 H6          3.2883    2.0497   -0.0195 H         1 <0>         0.1267
     34 H7         -0.9241   -0.5595    0.0082 H         1 <0>         0.1284
     35 H8          0.3820   -2.6682   -0.0147 H         1 <0>         0.1287
     36 H9          2.5450   -3.7886   -0.0417 H         1 <0>         0.1252
     37 H10         4.6338   -2.4947   -0.0548 H         1 <0>         0.1234
     38 H11         5.0733   -1.3786   -2.1557 H         1 <0>         0.0777
     39 H12         3.8018   -0.2931   -2.8023 H         1 <0>         0.0737
     40 H13         5.6051   -0.3411   -4.6907 H         1 <0>         0.1271
     41 H14         7.4988    1.1599   -3.9270 H         1 <0>         0.1332
     42 H15         9.2207    0.7259   -2.4121 H         1 <0>         0.1395
     43 H16        10.2792   -2.2056    0.4961 H         1 <0>         0.1420
     44 H17         7.9701   -2.1977    1.3447 H         1 <0>         0.1322
     45 H18         5.8048   -1.3014    1.1923 H         1 <0>         0.4055
     46 H19        11.9250    0.9313   -0.0764 H         1 <0>         0.4160
     47 H20        13.3149    0.5708   -0.9487 H         1 <0>         0.4193
@<TRIPOS>BOND
     1    1    6 ar
     2    1    2 ar
     3    1   31 1
     4    2    3 ar
     5    2   32 1
     6    3    4 ar
     7    3   33 1
     8    4   10 ar
     9    4    5 ar
    10    5    6 ar
    11    5    7 ar
    12    6   34 1
    13    7    8 ar
    14    7   35 1
    15    8    9 ar
    16    8   36 1
    17    9   10 ar
    18    9   37 1
    19   10   11 1
    20   11   12 1
    21   11   26 1
    22   11   13 1
    23   13   14 1
    24   13   18 1
    25   13   15 1
    26   15   16 1
    27   15   38 1
    28   15   39 1
    29   16   17 2
    30   16   40 1
    31   17   18 1
    32   17   41 1
    33   18   19 1
    34   18   20 1
    35   20   25 ar
    36   20   21 ar
    37   21   22 ar
    38   21   42 1
    39   22   23 ar
    40   22   27 1
    41   23   24 ar
    42   23   43 1
    43   24   25 ar
    44   24   44 1
    45   25   26 1
    46   26   45 1
    47   27   28 2
    48   27   29 2
    49   27   30 1
    50   30   46 1
    51   30   47 1
@<TRIPOS>MOLECULE
ZINC04456012
   47    51     0     0     0
SMALL
USER_CHARGES

@<TRIPOS>ATOM
      1 C1         -0.0071    1.3447    0.3062 C.ar      1 <0>        -0.1151
      2 C2          1.1779    2.0785    0.3005 C.ar      1 <0>        -0.1084
      3 C3          2.3848    1.4597    0.1894 C.ar      1 <0>        -0.1147
      4 C4          2.4409    0.0596    0.0792 C.ar      1 <0>        -0.0346
      5 C5          1.2358   -0.6867    0.0855 C.ar      1 <0>        -0.0506
      6 C6          0.0083   -0.0121    0.2014 C.ar      1 <0>        -0.1027
      7 C7          1.2918   -2.0863   -0.0243 C.ar      1 <0>        -0.0986
      8 C8          2.4991   -2.7054   -0.1349 C.ar      1 <0>        -0.1155
      9 C9          3.6836   -1.9718   -0.1407 C.ar      1 <0>        -0.1027
     10 C10         3.6681   -0.6146   -0.0367 C.ar      1 <0>        -0.0858
     11 C11         4.9603    0.1606   -0.0459 C.3       1 <0>         0.2038
     12 H1          4.8575    1.0700    0.5462 H         1 <0>         0.0882
     13 C12         5.3555    0.5046   -1.4708 C.3       1 <0>        -0.1008
     14 H2          5.5410   -0.3935   -2.0600 H         1 <0>         0.0956
     15 C13         4.4624    1.4984   -2.2251 C.3       1 <0>        -0.0877
     16 C14         5.4644    2.1488   -3.1810 C.2       1 <0>        -0.1608
     17 C15         6.6888    2.0764   -2.6731 C.2       1 <0>        -0.1519
     18 C16         6.6308    1.3912   -1.3458 C.3       1 <0>        -0.0283
     19 H3          6.4294    2.1555   -0.5953 H         1 <0>         0.0836
     20 C17         7.7251    0.5405   -0.8298 C.ar      1 <0>        -0.1574
     21 C18         9.0361    0.7021   -1.2226 C.ar      1 <0>         0.0319
     22 C19        10.0259   -0.1102   -0.7011 C.ar      1 <0>        -0.7278
     23 C20         9.7020   -1.0896    0.2202 C.ar      1 <0>         0.0288
     24 C21         8.3917   -1.2629    0.6158 C.ar      1 <0>        -0.2145
     25 C22         7.3881   -0.4565    0.0925 C.ar      1 <0>         0.2779
     26 N1          6.0604   -0.6734    0.4853 N.pl3     1 <0>        -0.7336
     27 S1         11.6994    0.1018   -1.2103 S.o2      1 <0>         2.7039
     28 O1         12.3523   -1.1403   -0.9871 O.2       1 <0>        -0.9690
     29 O2         11.6595    0.7228   -2.4879 O.2       1 <0>        -0.9687
     30 N2         12.3917    1.1933   -0.1750 N.pl3     1 <0>        -1.2521
     31 H4         -0.9515    1.8602    0.3997 H         1 <0>         0.1251
     32 H5          1.1376    3.1544    0.3851 H         1 <0>         0.1250
     33 H6          3.2948    2.0413    0.1857 H         1 <0>         0.1271
     34 H7         -0.9179   -0.5675    0.2076 H         1 <0>         0.1288
     35 H8          0.3818   -2.6679   -0.0206 H         1 <0>         0.1294
     36 H9          2.5394   -3.7813   -0.2192 H         1 <0>         0.1260
     37 H10         4.6283   -2.4877   -0.2293 H         1 <0>         0.1239
     38 H11         3.6781    0.9788   -2.7756 H         1 <0>         0.0760
     39 H12         4.0368    2.2356   -1.5444 H         1 <0>         0.0841
     40 H13         5.2127    2.6000   -4.1294 H         1 <0>         0.1331
     41 H14         7.5897    2.4374   -3.1469 H         1 <0>         0.1341
     42 H15         9.2914    1.4666   -1.9414 H         1 <0>         0.1405
     43 H16        10.4765   -1.7206    0.6305 H         1 <0>         0.1420
     44 H17         8.1447   -2.0290    1.3359 H         1 <0>         0.1316
     45 H18         5.8585   -1.3836    1.1144 H         1 <0>         0.4055
     46 H19        11.8680    1.5784    0.5449 H         1 <0>         0.4160
     47 H20        13.3209    1.4474   -0.2885 H         1 <0>         0.4194
@<TRIPOS>BOND
     1    1    6 ar
     2    1    2 ar
     3    1   31 1
     4    2    3 ar
     5    2   32 1
     6    3    4 ar
     7    3   33 1
     8    4   10 ar
     9    4    5 ar
    10    5    6 ar
    11    5    7 ar
    12    6   34 1
    13    7    8 ar
    14    7   35 1
    15    8    9 ar
    16    8   36 1
    17    9   10 ar
    18    9   37 1
    19   10   11 1
    20   11   12 1
    21   11   26 1
    22   11   13 1
    23   13   14 1
    24   13   18 1
    25   13   15 1
    26   15   16 1
    27   15   38 1
    28   15   39 1
    29   16   17 2
    30   16   40 1
    31   17   18 1
    32   17   41 1
    33   18   19 1
    34   18   20 1
    35   20   25 ar
    36   20   21 ar
    37   21   22 ar
    38   21   42 1
    39   22   23 ar
    40   22   27 1
    41   23   24 ar
    42   23   43 1
    43   24   25 ar
    44   24   44 1
    45   25   26 1
    46   26   45 1
    47   27   28 2
    48   27   29 2
    49   27   30 1
    50   30   46 1
    51   30   47 1
@<TRIPOS>MOLECULE
ZINC04456013
   47    51     0     0     0
SMALL
USER_CHARGES

@<TRIPOS>ATOM
      1 C1         -0.0164    1.3567    0.0095 C.ar      1 <0>        -0.1159
      2 C2          1.1685    2.0906    0.0021 C.ar      1 <0>        -0.1098
      3 C3          2.3785    1.4679   -0.0132 C.ar      1 <0>        -0.1136
      4 C4          2.4378    0.0637   -0.0214 C.ar      1 <0>        -0.0378
      5 C5          1.2328   -0.6827   -0.0134 C.ar      1 <0>        -0.0515
      6 C6          0.0021   -0.0041    0.0020 C.ar      1 <0>        -0.1028
      7 C7          1.2920   -2.0865   -0.0210 C.ar      1 <0>        -0.1000
      8 C8          2.5022   -2.7094   -0.0359 C.ar      1 <0>        -0.1172
      9 C9          3.6867   -1.9757   -0.0433 C.ar      1 <0>        -0.0981
     10 C10         3.6681   -0.6146   -0.0367 C.ar      1 <0>        -0.0916
     11 C11         4.9603    0.1606   -0.0459 C.3       1 <0>         0.2002
     12 H1          4.8458    1.0755   -0.6273 H         1 <0>         0.1060
     13 C12         5.3838    0.4912    1.3740 C.3       1 <0>        -0.1039
     14 H2          6.3574    0.9807    1.3951 H         1 <0>         0.0981
     15 C13         4.3652    1.2255    2.2559 C.3       1 <0>        -0.0946
     16 C14         4.7529    0.7312    3.6510 C.2       1 <0>        -0.1629
     17 C15         5.3436   -0.4545    3.5644 C.2       1 <0>        -0.1515
     18 C16         5.4019   -0.8712    2.1300 C.3       1 <0>        -0.0403
     19 H3          4.4684   -1.3867    1.9043 H         1 <0>         0.0982
     20 C17         6.5038   -1.6845    1.5715 C.ar      1 <0>        -0.1519
     21 C18         7.2564   -2.5417    2.3447 C.ar      1 <0>         0.0294
     22 C19         8.2678   -3.2912    1.7730 C.ar      1 <0>        -0.7258
     23 C20         8.5269   -3.1831    0.4188 C.ar      1 <0>         0.0269
     24 C21         7.7826   -2.3239   -0.3630 C.ar      1 <0>        -0.2133
     25 C22         6.7684   -1.5607    0.2030 C.ar      1 <0>         0.2727
     26 N1          6.0496   -0.6683   -0.6067 N.pl3     1 <0>        -0.7322
     27 S1          9.2267   -4.3831    2.7694 S.o2      1 <0>         2.7032
     28 O1         10.4663   -4.5623    2.0983 O.2       1 <0>        -0.9688
     29 O2          9.1450   -3.8947    4.1014 O.2       1 <0>        -0.9684
     30 N2          8.4649   -5.8535    2.7570 N.pl3     1 <0>        -1.2521
     31 H4         -0.9634    1.8756    0.0259 H         1 <0>         0.1245
     32 H5          1.1258    3.1698    0.0084 H         1 <0>         0.1248
     33 H6          3.2883    2.0497   -0.0195 H         1 <0>         0.1275
     34 H7         -0.9241   -0.5595    0.0082 H         1 <0>         0.1280
     35 H8          0.3820   -2.6682   -0.0147 H         1 <0>         0.1284
     36 H9          2.5450   -3.7886   -0.0417 H         1 <0>         0.1242
     37 H10         4.6338   -2.4947   -0.0548 H         1 <0>         0.1242
     38 H11         4.4867    2.3057    2.1765 H         1 <0>         0.0752
     39 H12         3.3465    0.9291    2.0057 H         1 <0>         0.0916
     40 H13         4.5729    1.2681    4.5706 H         1 <0>         0.1317
     41 H14         5.7374   -1.0241    4.3932 H         1 <0>         0.1321
     42 H15         7.0554   -2.6281    3.4023 H         1 <0>         0.1401
     43 H16         9.3141   -3.7724   -0.0278 H         1 <0>         0.1420
     44 H17         7.9892   -2.2440   -1.4200 H         1 <0>         0.1322
     45 H18         6.2695   -0.5921   -1.5484 H         1 <0>         0.4076
     46 H19         7.6436   -5.9700    2.2541 H         1 <0>         0.4159
     47 H20         8.8399   -6.5982    3.2526 H         1 <0>         0.4195
@<TRIPOS>BOND
     1    1    6 ar
     2    1    2 ar
     3    1   31 1
     4    2    3 ar
     5    2   32 1
     6    3    4 ar
     7    3   33 1
     8    4   10 ar
     9    4    5 ar
    10    5    6 ar
    11    5    7 ar
    12    6   34 1
    13    7    8 ar
    14    7   35 1
    15    8    9 ar
    16    8   36 1
    17    9   10 ar
    18    9   37 1
    19   10   11 1
    20   11   12 1
    21   11   26 1
    22   11   13 1
    23   13   14 1
    24   13   18 1
    25   13   15 1
    26   15   16 1
    27   15   38 1
    28   15   39 1
    29   16   17 2
    30   16   40 1
    31   17   18 1
    32   17   41 1
    33   18   19 1
    34   18   20 1
    35   20   25 ar
    36   20   21 ar
    37   21   22 ar
    38   21   42 1
    39   22   23 ar
    40   22   27 1
    41   23   24 ar
    42   23   43 1
    43   24   25 ar
    44   24   44 1
    45   25   26 1
    46   26   45 1
    47   27   28 2
    48   27   29 2
    49   27   30 1
    50   30   46 1
    51   30   47 1
@<TRIPOS>MOLECULE
ZINC29046739
   41    43     0     0     0
SMALL
USER_CHARGES

@<TRIPOS>ATOM
      1 C1         -0.0316    1.4895    0.0447 C.3       1 <0>        -0.0895
      2 C2         -0.0096   -0.0173    0.0271 C.2       1 <0>         0.1063
      3 C3          0.0012   -0.8236   -1.1177 C.2       1 <0>        -0.2717
      4 C4          0.0211   -2.1265   -0.7148 C.2       1 <0>         0.1200
      5 O1          0.0227   -2.1378    0.6317 O.3       1 <0>        -0.0783
      6 N1          0.0083   -0.7934    1.0761 N.2       1 <0>        -0.3165
      7 C5          0.0371   -3.3092   -1.5949 C.2       1 <0>        -0.2761
      8 C6          1.1211   -4.1393   -1.6032 C.2       1 <0>         0.2631
      9 N2          2.1878   -3.8747   -0.7985 N.pl3     1 <0>        -0.6330
     10 C7          3.2976   -4.7245   -0.8070 C.ar      1 <0>         0.1572
     11 C8          3.3165   -5.8361   -1.6399 C.ar      1 <0>        -0.1515
     12 C9          4.4142   -6.6740   -1.6463 C.ar      1 <0>        -0.0691
     13 C10         5.4946   -6.4074   -0.8236 C.ar      1 <0>        -0.0595
     14 C11         5.4786   -5.3006    0.0072 C.ar      1 <0>        -0.0709
     15 C12         4.3862   -4.4559    0.0132 C.ar      1 <0>        -0.1421
     16 Cl1         6.8724   -7.4635   -0.8334 Cl        1 <0>        -0.0617
     17 C13        -1.1116   -3.5942   -2.4615 C.2       1 <0>         0.5949
     18 O2         -1.0983   -4.5706   -3.1881 O.2       1 <0>        -0.5279
     19 N3         -2.1816   -2.7748   -2.4533 N.am      1 <0>        -0.6701
     20 C14        -3.2349   -2.9906   -3.3484 C.ar      1 <0>         0.1521
     21 C15        -3.9193   -1.9107   -3.8907 C.ar      1 <0>        -0.1329
     22 C16        -4.9584   -2.1266   -4.7745 C.ar      1 <0>        -0.0905
     23 C17        -5.3177   -3.4176   -5.1198 C.ar      1 <0>        -0.0498
     24 C18        -4.6377   -4.4955   -4.5806 C.ar      1 <0>        -0.0907
     25 C19        -3.5941   -4.2851   -3.7008 C.ar      1 <0>        -0.1078
     26 Cl2        -6.6243   -3.6854   -6.2310 Cl        1 <0>        -0.0692
     27 H1          0.9906    1.8678    0.0430 H         1 <0>         0.0913
     28 H2         -0.5560    1.8555   -0.8379 H         1 <0>         0.0898
     29 H3         -0.5454    1.8348    0.9419 H         1 <0>         0.0839
     30 H4         -0.0056   -0.4752   -2.1399 H         1 <0>         0.1628
     31 H5          1.1329   -5.0057   -2.2479 H         1 <0>         0.1833
     32 H6          2.1773   -3.0965   -0.2194 H         1 <0>         0.4165
     33 H7          2.4733   -6.0451   -2.2816 H         1 <0>         0.1417
     34 H8          4.4293   -7.5384   -2.2936 H         1 <0>         0.1436
     35 H9          6.3231   -5.0950    0.6481 H         1 <0>         0.1425
     36 H10         4.3762   -3.5897    0.6581 H         1 <0>         0.1381
     37 H11        -2.2214   -2.0354   -1.8267 H         1 <0>         0.4114
     38 H12        -3.6395   -0.9030   -3.6212 H         1 <0>         0.1347
     39 H13        -5.4912   -1.2872   -5.1962 H         1 <0>         0.1380
     40 H14        -4.9204   -5.5020   -4.8515 H         1 <0>         0.1378
     41 H15        -3.0609   -5.1265   -3.2836 H         1 <0>         0.1501
@<TRIPOS>BOND
     1    1    2 1
     2    1   27 1
     3    1   28 1
     4    1   29 1
     5    2    6 2
     6    2    3 1
     7    3    4 2
     8    3   30 1
     9    4    5 1
    10    4    7 1
    11    5    6 1
    12    7    8 2
    13    7   17 1
    14    8    9 1
    15    8   31 1
    16    9   10 1
    17    9   32 1
    18   10   15 ar
    19   10   11 ar
    20   11   12 ar
    21   11   33 1
    22   12   13 ar
    23   12   34 1
    24   13   14 ar
    25   13   16 1
    26   14   15 ar
    27   14   35 1
    28   15   36 1
    29   17   18 2
    30   17   19 am
    31   19   20 1
    32   19   37 1
    33   20   25 ar
    34   20   21 ar
    35   21   22 ar
    36   21   38 1
    37   22   23 ar
    38   22   39 1
    39   23   24 ar
    40   23   26 1
    41   24   25 ar
    42   24   40 1
    43   25   41 1
@<TRIPOS>MOLECULE
ZINC29046739
   41    43     0     0     0
SMALL
USER_CHARGES

@<TRIPOS>ATOM
      1 C1          0.0315    1.4010    0.2079 C.3       1 <0>        -0.0890
      2 C2          0.0850   -0.1046    0.1711 C.2       1 <0>         0.1055
      3 C3          0.1394   -0.8950   -0.9836 C.2       1 <0>        -0.2796
      4 C4          0.1767   -2.2025   -0.5975 C.2       1 <0>         0.1434
      5 O1          0.1467   -2.2320    0.7485 O.3       1 <0>        -0.0728
      6 N1          0.0941   -0.8944    1.2099 N.2       1 <0>        -0.3176
      7 C5          0.2378   -3.3726   -1.4923 C.2       1 <0>        -0.2924
      8 C6          1.3385   -4.1803   -1.4856 C.2       1 <0>         0.2700
      9 N2          1.3513   -5.3203   -2.2310 N.pl3     1 <0>        -0.6193
     10 C7          2.4291   -6.2053   -2.1363 C.ar      1 <0>         0.1540
     11 C8          3.4853   -5.9263   -1.2782 C.ar      1 <0>        -0.1569
     12 C9          4.5489   -6.8023   -1.1867 C.ar      1 <0>        -0.0707
     13 C10         4.5634   -7.9572   -1.9492 C.ar      1 <0>        -0.0609
     14 C11         3.5125   -8.2377   -2.8049 C.ar      1 <0>        -0.0715
     15 C12         2.4435   -7.3683   -2.8959 C.ar      1 <0>        -0.1385
     16 Cl1         5.9026   -9.0557   -1.8324 Cl        1 <0>        -0.0635
     17 C13        -0.8840   -3.6690   -2.3897 C.2       1 <0>         0.5935
     18 O2         -0.8780   -4.6880   -3.0554 O.2       1 <0>        -0.5423
     19 N3         -1.9214   -2.8130   -2.4772 N.am      1 <0>        -0.6653
     20 C14        -2.9467   -3.0485   -3.3995 C.ar      1 <0>         0.1481
     21 C15        -3.5668   -1.9821   -4.0376 C.ar      1 <0>        -0.1310
     22 C16        -4.5784   -2.2174   -4.9479 C.ar      1 <0>        -0.0902
     23 C17        -4.9743   -3.5142   -5.2244 C.ar      1 <0>        -0.0485
     24 C18        -4.3584   -4.5786   -4.5897 C.ar      1 <0>        -0.0911
     25 C19        -3.3424   -4.3492   -3.6828 C.ar      1 <0>        -0.1075
     26 Cl2        -6.2462   -3.8064   -6.3692 Cl        1 <0>        -0.0677
     27 H1          1.0454    1.8000    0.2355 H         1 <0>         0.0910
     28 H2         -0.4794    1.7683   -0.6822 H         1 <0>         0.0887
     29 H3         -0.5103    1.7237    1.0970 H         1 <0>         0.0831
     30 H4          0.1495   -0.5328   -2.0010 H         1 <0>         0.1613
     31 H5          2.1992   -3.9154   -0.8893 H         1 <0>         0.1671
     32 H6          0.6124   -5.5181   -2.8276 H         1 <0>         0.4329
     33 H7          3.4748   -5.0249   -0.6834 H         1 <0>         0.1373
     34 H8          5.3703   -6.5859   -0.5197 H         1 <0>         0.1416
     35 H9          3.5265   -9.1397   -3.3988 H         1 <0>         0.1422
     36 H10         1.6214   -7.5902   -3.5603 H         1 <0>         0.1403
     37 H11        -1.9571   -2.0337   -1.9008 H         1 <0>         0.4148
     38 H12        -3.2585   -0.9698   -3.8219 H         1 <0>         0.1359
     39 H13        -5.0612   -1.3885   -5.4441 H         1 <0>         0.1389
     40 H14        -4.6695   -5.5897   -4.8070 H         1 <0>         0.1379
     41 H15        -2.8591   -5.1804   -3.1909 H         1 <0>         0.1489
@<TRIPOS>BOND
     1    1    2 1
     2    1   27 1
     3    1   28 1
     4    1   29 1
     5    2    6 2
     6    2    3 1
     7    3    4 2
     8    3   30 1
     9    4    5 1
    10    4    7 1
    11    5    6 1
    12    7    8 2
    13    7   17 1
    14    8    9 1
    15    8   31 1
    16    9   10 1
    17    9   32 1
    18   10   15 ar
    19   10   11 ar
    20   11   12 ar
    21   11   33 1
    22   12   13 ar
    23   12   34 1
    24   13   14 ar
    25   13   16 1
    26   14   15 ar
    27   14   35 1
    28   15   36 1
    29   17   18 2
    30   17   19 am
    31   19   20 1
    32   19   37 1
    33   20   25 ar
    34   20   21 ar
    35   21   22 ar
    36   21   38 1
    37   22   23 ar
    38   22   39 1
    39   23   24 ar
    40   23   26 1
    41   24   25 ar
    42   24   40 1
    43   25   41 1
@<TRIPOS>MOLECULE
ZINC00967771
   17    16     0     0     0
SMALL
USER_CHARGES
tetramethylammonium
@<TRIPOS>ATOM
      1 C1         -0.0127    1.0858    0.0080 C.3       1 <0>        -0.0460
      2 N1         -0.7003    1.5596    1.2166 N.4       1 <0>        -0.2745
      3 C2          0.0102    1.0729    2.4067 C.3       1 <0>        -0.0460
      4 C3         -0.7202    3.0284    1.2247 C.3       1 <0>        -0.0460
      5 C4         -2.0784    1.0511    1.2271 C.3       1 <0>        -0.0460
      6 H1          0.0021   -0.0041    0.0020 H         1 <0>         0.1216
      7 H2          1.0099    1.4631    0.0003 H         1 <0>         0.1215
      8 H3         -0.5399    1.4469   -0.8751 H         1 <0>         0.1216
      9 H4          1.0328    1.4502    2.3990 H         1 <0>         0.1215
     10 H5         -0.5000    1.4245    3.3035 H         1 <0>         0.1215
     11 H6          0.0250   -0.0169    2.4007 H         1 <0>         0.1215
     12 H7         -1.2474    3.3895    0.3416 H         1 <0>         0.1216
     13 H8         -1.2304    3.3799    2.1215 H         1 <0>         0.1215
     14 H9          0.3024    3.4057    1.2170 H         1 <0>         0.1216
     15 H10        -2.0637   -0.0388    1.2211 H         1 <0>         0.1216
     16 H11        -2.5886    1.4026    2.1238 H         1 <0>         0.1215
     17 H12        -2.6056    1.4122    0.3440 H         1 <0>         0.1215
@<TRIPOS>BOND
     1    1    2 1
     2    1    6 1
     3    1    7 1
     4    1    8 1
     5    2    3 1
     6    2    4 1
     7    2    5 1
     8    3    9 1
     9    3   10 1
    10    3   11 1
    11    4   12 1
    12    4   13 1
    13    4   14 1
    14    5   15 1
    15    5   16 1
    16    5   17 1
@<TRIPOS>MOLECULE
ZINC06068314
   56    60     0     0     0
SMALL
USER_CHARGES

@<TRIPOS>ATOM
      1 C1          5.1604   -4.2760    0.2466 C.3       1 <0>        -0.0403
      2 N1          3.7227   -3.9751    0.2237 N.4       1 <0>        -0.2769
      3 C2          3.1017   -4.2858    1.5388 C.3       1 <0>         0.0376
      4 H1          3.7007   -3.9227    2.3739 H         1 <0>         0.1476
      5 C3          2.9680   -5.8261    1.5414 C.3       1 <0>        -0.1433
      6 C4          2.9093   -6.2202    0.0509 C.3       1 <0>        -0.1433
      7 C5          3.0128   -4.8822   -0.7169 C.3       1 <0>         0.0393
      8 H2          3.5415   -4.9903   -1.6639 H         1 <0>         0.1507
      9 C6          1.5890   -4.3307   -0.8944 C.3       1 <0>        -0.1530
     10 C7          0.8585   -4.4021    0.4496 C.3       1 <0>         0.0801
     11 C8          1.6901   -3.6774    1.5312 C.3       1 <0>        -0.1653
     12 O1         -0.4163   -3.7673    0.3320 O.3       1 <0>        -0.3566
     13 C9         -1.4919   -4.5126    0.9062 C.3       1 <0>         0.1720
     14 C10        -1.2931   -4.4647    2.3703 C.ar      1 <0>        -0.0967
     15 C11        -1.3296   -3.1481    2.8761 C.ar      1 <0>        -0.1050
     16 C12        -1.2265   -2.8914    4.2203 C.ar      1 <0>        -0.1202
     17 C13        -1.0946   -3.9576    5.0916 C.ar      1 <0>        -0.1073
     18 C14        -1.0377   -5.2296    4.5856 C.ar      1 <0>        -0.1344
     19 C15        -1.1036   -5.4876    3.1955 C.ar      1 <0>        -0.0589
     20 C16        -0.8519   -6.9587    2.9470 C.3       1 <0>        -0.0740
     21 C17        -1.7549   -7.5889    1.9337 C.3       1 <0>        -0.0839
     22 C18        -1.6541   -7.0065    0.5391 C.ar      1 <0>        -0.0537
     23 C19        -1.6113   -5.7486    0.1070 C.ar      1 <0>        -0.1023
     24 C20        -1.6586   -5.4866   -1.2792 C.ar      1 <0>        -0.1048
     25 C21        -1.6743   -6.4984   -2.2051 C.ar      1 <0>        -0.1235
     26 C22        -1.6345   -7.8078   -1.7606 C.ar      1 <0>        -0.1063
     27 C23        -1.6306   -8.0519   -0.4122 C.ar      1 <0>        -0.1347
     28 C24         3.4944   -2.5705   -0.1407 C.3       1 <0>        -0.0567
     29 H3          5.5753   -4.1434   -0.7525 H         1 <0>         0.1200
     30 H4          5.6617   -3.6015    0.9407 H         1 <0>         0.1198
     31 H5          5.3108   -5.3064    0.5687 H         1 <0>         0.1196
     32 H6          3.8349   -6.2813    2.0202 H         1 <0>         0.0999
     33 H7          2.0516   -6.1265    2.0495 H         1 <0>         0.1092
     34 H8          3.7474   -6.8691   -0.2032 H         1 <0>         0.0999
     35 H9          1.9641   -6.7144   -0.1739 H         1 <0>         0.1106
     36 H10         1.6380   -3.2944   -1.2287 H         1 <0>         0.1006
     37 H11         1.0550   -4.9293   -1.6324 H         1 <0>         0.1142
     38 H12         0.7184   -5.4458    0.7311 H         1 <0>         0.0895
     39 H13         1.2245   -3.8232    2.5058 H         1 <0>         0.1130
     40 H14         1.7531   -2.6118    1.3104 H         1 <0>         0.1003
     41 H15        -2.3896   -3.9291    0.7018 H         1 <0>         0.1114
     42 H16        -1.4409   -2.3224    2.1889 H         1 <0>         0.1267
     43 H17        -1.2476   -1.8770    4.5904 H         1 <0>         0.1285
     44 H18        -1.0369   -3.7896    6.1568 H         1 <0>         0.1269
     45 H19        -0.9392   -6.0607    5.2682 H         1 <0>         0.1229
     46 H20         0.1784   -7.0798    2.6124 H         1 <0>         0.0678
     47 H21        -0.9680   -7.4919    3.8905 H         1 <0>         0.0859
     48 H22        -1.5223   -8.6525    1.8800 H         1 <0>         0.0848
     49 H23        -2.7840   -7.4831    2.2771 H         1 <0>         0.0809
     50 H24        -1.6833   -4.4621   -1.6199 H         1 <0>         0.1275
     51 H25        -1.7173   -6.2770   -3.2613 H         1 <0>         0.1280
     52 H26        -1.6073   -8.6255   -2.4657 H         1 <0>         0.1268
     53 H27        -1.6089   -9.0745   -0.0655 H         1 <0>         0.1230
     54 H28         3.9221   -2.3762   -1.1243 H         1 <0>         0.1210
     55 H29         2.4231   -2.3708   -0.1644 H         1 <0>         0.1344
     56 H30         3.9685   -1.9222    0.5962 H         1 <0>         0.1204
@<TRIPOS>BOND
     1    1    2 1
     2    1   29 1
     3    1   30 1
     4    1   31 1
     5    2    7 1
     6    2    3 1
     7    2   28 1
     8    3    4 1
     9    3   11 1
    10    3    5 1
    11    5    6 1
    12    5   32 1
    13    5   33 1
    14    6    7 1
    15    6   34 1
    16    6   35 1
    17    7    8 1
    18    7    9 1
    19    9   10 1
    20    9   36 1
    21    9   37 1
    22   10   11 1
    23   10   12 1
    24   10   38 1
    25   11   39 1
    26   11   40 1
    27   12   13 1
    28   13   23 1
    29   13   14 1
    30   13   41 1
    31   14   19 ar
    32   14   15 ar
    33   15   16 ar
    34   15   42 1
    35   16   17 ar
    36   16   43 1
    37   17   18 ar
    38   17   44 1
    39   18   19 ar
    40   18   45 1
    41   19   20 1
    42   20   21 1
    43   20   46 1
    44   20   47 1
    45   21   22 1
    46   21   48 1
    47   21   49 1
    48   22   27 ar
    49   22   23 ar
    50   23   24 ar
    51   24   25 ar
    52   24   50 1
    53   25   26 ar
    54   25   51 1
    55   26   27 ar
    56   26   52 1
    57   27   53 1
    58   28   54 1
    59   28   55 1
    60   28   56 1
@<TRIPOS>MOLECULE
ZINC01599730
   29    31     0     0     0
SMALL
USER_CHARGES

@<TRIPOS>ATOM
      1 C1         -0.0164    1.3600    0.0095 C.2       1 <0>        -0.0245
      2 C2          1.1996    2.0523    0.0016 C.2       1 <0>        -0.1843
      3 C3          2.3778    1.3768   -0.0442 C.2       1 <0>         0.0941
      4 N1          2.3937    0.0268   -0.1381 N.am      1 <0>        -0.5087
      5 C4          1.2352   -0.6700   -0.0346 C.2       1 <0>         0.5066
      6 O1          1.2662   -1.8886    0.0278 O.2       1 <0>        -0.5237
      7 C5          0.0021   -0.0041    0.0020 C.2       1 <0>        -0.2160
      8 C6          3.6089   -0.7431   -0.4070 C.3       1 <0>         0.0769
      9 C7          4.8712    0.0424   -0.0913 C.3       1 <0>        -0.1209
     10 H1          5.7197   -0.4721   -0.5424 H         1 <0>         0.1427
     11 C8          4.7670    1.4398   -0.7098 C.3       1 <0>        -0.1321
     12 C9          3.6522    2.1878    0.0311 C.3       1 <0>        -0.0636
     13 H2          3.5027    3.1776   -0.4001 H         1 <0>         0.1512
     14 C10         4.0502    2.2840    1.5133 C.3       1 <0>        -0.0032
     15 N2          4.0742    0.9227    2.0685 N.4       1 <0>        -0.5068
     16 C11         5.1112    0.1456    1.4075 C.3       1 <0>        -0.0085
     17 H3         -0.9536    1.8964    0.0258 H         1 <0>         0.1488
     18 H4          1.2018    3.1319    0.0318 H         1 <0>         0.1548
     19 H5         -0.9213   -0.5637    0.0243 H         1 <0>         0.1605
     20 H6          3.5951   -1.6485    0.1997 H         1 <0>         0.1127
     21 H7          3.6225   -1.0255   -1.4597 H         1 <0>         0.1058
     22 H8          5.7120    1.9695   -0.5893 H         1 <0>         0.1044
     23 H9          4.5190    1.3590   -1.7681 H         1 <0>         0.1039
     24 H10         5.0388    2.7347    1.6006 H         1 <0>         0.1478
     25 H11         3.3204    2.8884    2.0520 H         1 <0>         0.1423
     26 H12         4.2644    0.9675    3.0584 H         1 <0>         0.4367
     27 H13         5.1185   -0.8558    1.8380 H         1 <0>         0.1365
     28 H14         6.0788    0.6158    1.5829 H         1 <0>         0.1433
     29 H15         3.1779    0.4839    1.9198 H         1 <0>         0.4231
@<TRIPOS>BOND
     1    1    7 2
     2    1    2 1
     3    1   17 1
     4    2    3 2
     5    2   18 1
     6    3   12 1
     7    3    4 1
     8    4    5 am
     9    4    8 1
    10    5    6 2
    11    5    7 1
    12    7   19 1
    13    8    9 1
    14    8   20 1
    15    8   21 1
    16    9   10 1
    17    9   16 1
    18    9   11 1
    19   11   12 1
    20   11   22 1
    21   11   23 1
    22   12   13 1
    23   12   14 1
    24   14   15 1
    25   14   24 1
    26   14   25 1
    27   15   16 1
    28   15   26 1
    29   15   29 1
    30   16   27 1
    31   16   28 1
@<TRIPOS>MOLECULE
ZINC03805142
   25    26     0     0     0
SMALL
USER_CHARGES
3-(azetidin-2-ylmethoxy)pyridine
@<TRIPOS>ATOM
      1 C1          3.6404    0.9113    5.5508 C.ar      1 <0>        -0.1268
      2 C2          3.2165    0.4989    4.2975 C.ar      1 <0>        -0.0959
      3 C3          2.7161    1.4560    3.4209 C.ar      1 <0>         0.0579
      4 C4          2.6650    2.7814    3.8281 C.ar      1 <0>         0.0241
      5 N1          3.0729    3.1315    5.0317 N.ar      1 <0>        -0.4473
      6 C5          3.5529    2.2492    5.8863 C.ar      1 <0>         0.0804
      7 O1          2.2884    1.0988    2.1813 O.3       1 <0>        -0.3149
      8 C6          1.7886    2.1417    1.3419 C.3       1 <0>         0.0434
      9 C7          1.3579    1.5520   -0.0026 C.3       1 <0>         0.0140
     10 H1          2.0964    0.8664   -0.4180 H         1 <0>         0.1732
     11 C8          0.8692    2.6072   -1.0048 C.3       1 <0>        -0.1675
     12 C9         -0.1751    1.5387   -1.3575 C.3       1 <0>        -0.0228
     13 H2          4.0341    0.1955    6.2572 H         1 <0>         0.1518
     14 H3          3.2735   -0.5401    4.0083 H         1 <0>         0.1465
     15 H4          2.2825    3.5333    3.1537 H         1 <0>         0.1551
     16 H5          3.8817    2.5765    6.8615 H         1 <0>         0.1677
     17 H6          2.5705    2.8836    1.1795 H         1 <0>         0.1137
     18 H7          0.9323    2.6155    1.8219 H         1 <0>         0.0883
     19 H8          0.4531    3.5025   -0.5428 H         1 <0>         0.1295
     20 H9          1.5771    2.8248   -1.8045 H         1 <0>         0.1319
     21 H10         0.1542    0.8499   -2.1354 H         1 <0>         0.1551
     22 H11        -1.1674    1.9475   -1.5479 H         1 <0>         0.1549
     23 N2          0.0682    1.0763   -0.0834 N.4       1 <0>        -0.4736
     24 H12        -0.5543    1.4964    0.6168 H         1 <0>         0.4378
     25 H13         0.0177    0.0530   -0.0162 H         1 <0>         0.4235
@<TRIPOS>BOND
     1    1    6 ar
     2    1    2 ar
     3    1   13 1
     4    2    3 ar
     5    2   14 1
     6    3    4 ar
     7    3    7 1
     8    4    5 ar
     9    4   15 1
    10    5    6 ar
    11    6   16 1
    12    7    8 1
    13    8    9 1
    14    8   17 1
    15    8   18 1
    16    9   10 1
    17    9   11 1
    18    9   23 1
    19   11   12 1
    20   11   19 1
    21   11   20 1
    22   12   21 1
    23   12   22 1
    24   12   23 1
    25   23   24 1
    26   23   25 1
