@<TRIPOS>MOLECULE
ZINC13783311
   45    48     0     0     0
SMALL
USER_CHARGES

@<TRIPOS>ATOM
      1 C1         -0.1271    1.4586   -0.0425 C.3       1 <0>        -0.0399
      2 N1          0.0021   -0.0041    0.0020 N.4       1 <0>        -0.2795
      3 C2         -1.3242   -0.6405    0.2202 C.3       1 <0>         0.0403
      4 H1         -2.1006   -0.2009   -0.4059 H         1 <0>         0.1526
      5 C3         -1.6015   -0.4337    1.7270 C.3       1 <0>        -0.1464
      6 C4         -0.2062   -0.2909    2.3698 C.3       1 <0>        -0.1460
      7 C5          0.7875   -0.4244    1.1929 C.3       1 <0>         0.0410
      8 H2          1.6793    0.1858    1.3352 H         1 <0>         0.1565
      9 C6          1.1136   -1.9165    1.0199 C.3       1 <0>        -0.1468
     10 C7         -0.1937   -2.7140    1.0289 C.3       1 <0>         0.0785
     11 C8         -1.1551   -2.1462   -0.0387 C.3       1 <0>        -0.1687
     12 O1          0.0833   -4.0841    0.7319 O.3       1 <0>        -0.3448
     13 C9         -0.7385   -5.0061    1.2731 C.2       1 <0>         0.5453
     14 O2         -1.6652   -4.6554    1.9781 O.2       1 <0>        -0.5048
     15 C10        -0.5146   -6.4324    1.0113 C.2       1 <0>        -0.2388
     16 C11         0.4792   -6.9775    0.2512 C.2       1 <0>         0.1528
     17 N2          0.3622   -8.3264    0.2432 N.pl3     1 <0>        -0.5702
     18 H3          0.9557   -8.9304   -0.2299 H         1 <0>         0.4269
     19 C12        -0.7201   -8.7210    1.0028 C.ar      1 <0>         0.0806
     20 C13        -1.3152   -7.5604    1.5229 C.ar      1 <0>        -0.0590
     21 C14        -2.4381   -7.6574    2.3401 C.ar      1 <0>        -0.0751
     22 C15        -2.9597   -8.8976    2.6382 C.ar      1 <0>        -0.1265
     23 C16        -2.3711  -10.0453    2.1281 C.ar      1 <0>        -0.0946
     24 C17        -1.2638   -9.9632    1.3118 C.ar      1 <0>        -0.1182
     25 C18         0.6235   -0.5058   -1.2309 C.3       1 <0>        -0.0575
     26 H4          0.8638    1.9094   -0.0961 H         1 <0>         0.1211
     27 H5         -0.7049    1.7457   -0.9210 H         1 <0>         0.1209
     28 H6         -0.6361    1.8059    0.8567 H         1 <0>         0.1211
     29 H7         -2.1861    0.4727    1.8842 H         1 <0>         0.1025
     30 H8         -2.1223   -1.2981    2.1390 H         1 <0>         0.1163
     31 H9         -0.1047    0.6858    2.8429 H         1 <0>         0.1030
     32 H10        -0.0408   -1.0850    3.0978 H         1 <0>         0.1131
     33 H11         1.6285   -2.0702    0.0716 H         1 <0>         0.1054
     34 H12         1.7495   -2.2487    1.8406 H         1 <0>         0.1202
     35 H13        -0.6547   -2.6434    2.0141 H         1 <0>         0.1074
     36 H14        -2.1225   -2.6416    0.0432 H         1 <0>         0.1167
     37 H15        -0.7469   -2.3013   -1.0375 H         1 <0>         0.1042
     38 H16         1.2437   -6.4171   -0.2665 H         1 <0>         0.1879
     39 H17        -2.8979   -6.7652    2.7388 H         1 <0>         0.1323
     40 H18        -3.8305   -8.9763    3.2722 H         1 <0>         0.1309
     41 H19        -2.7879  -11.0122    2.3684 H         1 <0>         0.1338
     42 H20        -0.8122  -10.8632    0.9213 H         1 <0>         0.1282
     43 H21         1.6154   -0.0677   -1.3421 H         1 <0>         0.1231
     44 H22         0.7094   -1.5911   -1.1789 H         1 <0>         0.1319
     45 H23         0.0069   -0.2307   -2.0866 H         1 <0>         0.1223
@<TRIPOS>BOND
     1    1    2 1
     2    1   26 1
     3    1   27 1
     4    1   28 1
     5    2    7 1
     6    2    3 1
     7    2   25 1
     8    3    4 1
     9    3   11 1
    10    3    5 1
    11    5    6 1
    12    5   29 1
    13    5   30 1
    14    6    7 1
    15    6   31 1
    16    6   32 1
    17    7    8 1
    18    7    9 1
    19    9   10 1
    20    9   33 1
    21    9   34 1
    22   10   11 1
    23   10   12 1
    24   10   35 1
    25   11   36 1
    26   11   37 1
    27   12   13 1
    28   13   14 2
    29   13   15 1
    30   15   20 1
    31   15   16 2
    32   16   17 1
    33   16   38 1
    34   17   18 1
    35   17   19 1
    36   19   24 ar
    37   19   20 ar
    38   20   21 ar
    39   21   22 ar
    40   21   39 1
    41   22   23 ar
    42   22   40 1
    43   23   24 ar
    44   23   41 1
    45   24   42 1
    46   25   43 1
    47   25   44 1
    48   25   45 1
@<TRIPOS>MOLECULE
ZINC03826943
   29    30     0     0     0
SMALL
USER_CHARGES
3-ethynyl-5-(1-methylpyrrolidin-2-yl)-pyridine
@<TRIPOS>ATOM
      1 C1          3.5644    3.2214   -2.2497 C.3       1 <0>        -0.0373
      2 C2          4.4369    4.4100   -0.3119 C.3       1 <0>        -0.0064
      3 C3          4.4738    4.1666    1.2121 C.3       1 <0>        -0.1497
      4 C4          3.9188    2.7401    1.4037 C.3       1 <0>        -0.1418
      5 C5          3.5933    2.2416   -0.0207 C.3       1 <0>         0.0859
      6 H1          4.4262    1.6633   -0.4207 H         1 <0>         0.1505
      7 C6          2.3350    1.4124   -0.0127 C.ar      1 <0>        -0.1842
      8 C7          2.4082    0.0303   -0.0208 C.ar      1 <0>        -0.0267
      9 C8          1.2130   -0.6972   -0.0133 C.ar      1 <0>        -0.0041
     10 C9          0.0021   -0.0041    0.0020 C.ar      1 <0>         0.1477
     11 N1         -0.0158    1.3127    0.0093 N.ar      1 <0>        -0.4587
     12 C10         1.0950    2.0245    0.0025 C.ar      1 <0>         0.1045
     13 C11         1.2323   -2.1291   -0.0216 C.1       1 <0>        -0.1957
     14 C12         1.2480   -3.3030   -0.0285 C.1       1 <0>        -0.1039
     15 H2          2.8374    2.4769   -2.5741 H         1 <0>         0.1212
     16 H3          3.4114    4.1455   -2.8072 H         1 <0>         0.1288
     17 H4          4.5723    2.8491   -2.4329 H         1 <0>         0.1216
     18 H5          4.1619    5.4430   -0.5253 H         1 <0>         0.1412
     19 H6          5.4033    4.1748   -0.7579 H         1 <0>         0.1354
     20 H7          3.8422    4.8908    1.7266 H         1 <0>         0.1022
     21 H8          5.4979    4.2270    1.5805 H         1 <0>         0.1136
     22 H9          3.0148    2.7641    2.0122 H         1 <0>         0.1016
     23 H10         4.6692    2.0993    1.8668 H         1 <0>         0.1148
     24 H11         3.3633   -0.4737   -0.0322 H         1 <0>         0.1512
     25 H12        -0.9285   -0.5522    0.0076 H         1 <0>         0.1758
     26 H13         1.0349    3.1028    0.0088 H         1 <0>         0.1510
     27 H14         1.2621   -4.3528   -0.0346 H         1 <0>         0.2338
     28 N2          3.4090    3.4746   -0.7825 N.4       1 <0>        -0.3982
     29 H15         2.4743    3.8604   -0.6042 H         1 <0>         0.4259
@<TRIPOS>BOND
     1    1   15 1
     2    1   16 1
     3    1   17 1
     4    1   28 1
     5    2    3 1
     6    2   18 1
     7    2   19 1
     8    2   28 1
     9    3    4 1
    10    3   20 1
    11    3   21 1
    12    4    5 1
    13    4   22 1
    14    4   23 1
    15    5    6 1
    16    5    7 1
    17    5   28 1
    18    7   12 ar
    19    7    8 ar
    20    8    9 ar
    21    8   24 1
    22    9   10 ar
    23    9   13 1
    24   10   11 ar
    25   10   25 1
    26   11   12 ar
    27   12   26 1
    28   13   14 3
    29   14   27 1
    30   28   29 1
@<TRIPOS>MOLECULE
ZINC38140873
   33    34     0     0     0
SMALL
USER_CHARGES

@<TRIPOS>ATOM
      1 C1         -0.0820    1.2566   -0.1597 C.3       1 <0>        -0.1376
      2 C2          0.1299   -0.2584   -0.1357 C.3       1 <0>         0.1209
      3 C3          1.1088   -0.6885   -1.2706 C.3       1 <0>        -0.1308
      4 H1          0.9713   -0.1930   -2.2316 H         1 <0>         0.0927
      5 C4          1.0260   -2.2454   -1.2884 C.3       1 <0>        -0.1285
      6 C5          1.7232   -2.6889    0.0180 C.3       1 <0>        -0.1306
      7 C6          2.1617   -1.3581    0.7021 C.3       1 <0>        -0.0951
      8 H2          2.9507   -1.4439    1.4493 H         1 <0>         0.0975
      9 C7          2.4912   -0.4592   -0.5636 C.3       1 <0>        -0.1231
     10 C8          0.8366   -0.6831    1.1718 C.3       1 <0>        -0.0537
     11 C9         -0.0129   -1.7053    1.9297 C.3       1 <0>        -0.1366
     12 C10         1.1126    0.5389    2.0502 C.3       1 <0>        -0.1384
     13 N1         -1.1554   -0.9564   -0.2730 N.3       1 <0>        -0.6808
     14 C11        -1.7845   -0.6516   -1.5651 C.3       1 <0>         0.0196
     15 H3          0.8832    1.7594   -0.0985 H         1 <0>         0.0616
     16 H4         -0.5807    1.5391   -1.0868 H         1 <0>         0.0519
     17 H5         -0.6993    1.5507    0.6891 H         1 <0>         0.0651
     18 H6         -0.0144   -2.5706   -1.2931 H         1 <0>         0.0625
     19 H7          1.5535   -2.6441   -2.1549 H         1 <0>         0.0637
     20 H8          1.0256   -3.2321    0.6555 H         1 <0>         0.0757
     21 H9          2.5935   -3.3056   -0.2062 H         1 <0>         0.0629
     22 H10         3.3195   -0.8663   -1.1435 H         1 <0>         0.0668
     23 H11         2.6519    0.5887   -0.3101 H         1 <0>         0.0728
     24 H12        -0.2810   -2.5226    1.2602 H         1 <0>         0.0585
     25 H13         0.5564   -2.0977    2.7723 H         1 <0>         0.0506
     26 H14        -0.9194   -1.2238    2.2964 H         1 <0>         0.0628
     27 H15         0.1706    1.0280    2.2985 H         1 <0>         0.0610
     28 H16         1.6105    0.2226    2.9668 H         1 <0>         0.0528
     29 H17         1.7531    1.2367    1.5109 H         1 <0>         0.0573
     30 H18        -1.0412   -1.9516   -0.1523 H         1 <0>         0.3433
     31 H19        -1.9599    0.4216   -1.6396 H         1 <0>         0.0667
     32 H20        -1.1262   -0.9692   -2.3736 H         1 <0>         0.0247
     33 H21        -2.7343   -1.1811   -1.6406 H         1 <0>         0.0639
@<TRIPOS>BOND
     1    1    2 1
     2    1   15 1
     3    1   16 1
     4    1   17 1
     5    2   10 1
     6    2    3 1
     7    2   13 1
     8    3    4 1
     9    3    9 1
    10    3    5 1
    11    5    6 1
    12    5   18 1
    13    5   19 1
    14    6    7 1
    15    6   20 1
    16    6   21 1
    17    7    8 1
    18    7    9 1
    19    7   10 1
    20    9   22 1
    21    9   23 1
    22   10   11 1
    23   10   12 1
    24   11   24 1
    25   11   25 1
    26   11   26 1
    27   12   27 1
    28   12   28 1
    29   12   29 1
    30   13   14 1
    31   13   30 1
    32   14   31 1
    33   14   32 1
    34   14   33 1
@<TRIPOS>MOLECULE
ZINC13611494
   45    46     0     0     0
SMALL
USER_CHARGES
3-(6-fluorohex-1-ynyl)-5-[[(2S)-1-methylpyrrolidin-2-yl]methoxy]pyridine
@<TRIPOS>ATOM
      1 C1         -3.0878    2.3839    1.5872 C.3       1 <0>        -0.0362
      2 C2         -0.8009    1.6167    1.2317 C.3       1 <0>        -0.0070
      3 C3         -0.0127    1.0858    0.0080 C.3       1 <0>        -0.1483
      4 C4         -0.8223    1.6286   -1.1920 C.3       1 <0>        -0.1400
      5 C5         -2.2314    1.9037   -0.6350 C.3       1 <0>         0.0333
      6 H1         -2.4649    2.9648   -0.7234 H         1 <0>         0.1515
      7 C6         -3.2650    1.0734   -1.3987 C.3       1 <0>         0.0340
      8 O1         -4.5778    1.4215   -0.9545 O.3       1 <0>        -0.3197
      9 C7         -5.6191    0.7704   -1.5368 C.ar      1 <0>         0.0665
     10 C8         -6.9251    1.0535   -1.1586 C.ar      1 <0>        -0.0831
     11 C9         -7.9620    0.3572   -1.7875 C.ar      1 <0>         0.0266
     12 C10        -7.6456   -0.5884   -2.7640 C.ar      1 <0>         0.1020
     13 N1         -6.3919   -0.8234   -3.0906 N.ar      1 <0>        -0.4390
     14 C11        -5.3905   -0.1815   -2.5209 C.ar      1 <0>         0.0279
     15 C12        -9.3267    0.6101   -1.4350 C.1       1 <0>        -0.1777
     16 C13       -10.4455    0.8175   -1.1459 C.1       1 <0>        -0.0992
     17 C14       -11.8483    1.0774   -0.7835 C.3       1 <0>        -0.0179
     18 C15       -12.1814    2.5459   -1.0547 C.3       1 <0>        -0.1132
     19 C16       -13.6395    2.8161   -0.6780 C.3       1 <0>        -0.1568
     20 C17       -13.9726    4.2846   -0.9492 C.3       1 <0>         0.0608
     21 F1        -15.3058    4.5316   -0.6048 F         1 <0>        -0.2162
     22 H2         -4.1102    2.3192    1.2148 H         1 <0>         0.1288
     23 H3         -3.0608    2.0703    2.6308 H         1 <0>         0.1232
     24 H4         -2.7367    3.4128    1.5078 H         1 <0>         0.1195
     25 H5         -0.6178    0.9936    2.1071 H         1 <0>         0.1401
     26 H6         -0.5403    2.6552    1.4361 H         1 <0>         0.1359
     27 H7          0.0021   -0.0041    0.0020 H         1 <0>         0.0999
     28 H8          1.0019    1.4840    0.0005 H         1 <0>         0.1195
     29 H9         -0.3756    2.5508   -1.5636 H         1 <0>         0.1127
     30 H10        -0.8682    0.8829   -1.9857 H         1 <0>         0.1091
     31 H11        -3.1769    1.2759   -2.4660 H         1 <0>         0.1128
     32 H12        -3.0880    0.0138   -1.2141 H         1 <0>         0.0900
     33 H13        -7.1344    1.7917   -0.3985 H         1 <0>         0.1482
     34 H14        -8.4374   -1.1328   -3.2571 H         1 <0>         0.1704
     35 H15        -4.3771   -0.4026   -2.8218 H         1 <0>         0.1597
     36 H16       -12.5017    0.4405   -1.3798 H         1 <0>         0.0998
     37 H17       -11.9964    0.8606    0.2744 H         1 <0>         0.0993
     38 H18       -11.5281    3.1828   -0.4584 H         1 <0>         0.0709
     39 H19       -12.0333    2.7627   -2.1126 H         1 <0>         0.0719
     40 H20       -14.2928    2.1792   -1.2743 H         1 <0>         0.0803
     41 H21       -13.7876    2.5993    0.3799 H         1 <0>         0.0798
     42 H22       -13.3193    4.9214   -0.3529 H         1 <0>         0.0737
     43 H23       -13.8245    4.5013   -2.0071 H         1 <0>         0.0742
     44 N2         -2.1941    1.5010    0.7758 N.4       1 <0>        -0.3968
     45 H24        -2.5082    0.5278    0.8675 H         1 <0>         0.4286
@<TRIPOS>BOND
     1    1   22 1
     2    1   23 1
     3    1   24 1
     4    1   44 1
     5    2    3 1
     6    2   25 1
     7    2   26 1
     8    2   44 1
     9    3    4 1
    10    3   27 1
    11    3   28 1
    12    4    5 1
    13    4   29 1
    14    4   30 1
    15    5    6 1
    16    5    7 1
    17    5   44 1
    18    7    8 1
    19    7   31 1
    20    7   32 1
    21    8    9 1
    22    9   14 ar
    23    9   10 ar
    24   10   11 ar
    25   10   33 1
    26   11   12 ar
    27   11   15 1
    28   12   13 ar
    29   12   34 1
    30   13   14 ar
    31   14   35 1
    32   15   16 3
    33   16   17 1
    34   17   18 1
    35   17   36 1
    36   17   37 1
    37   18   19 1
    38   18   38 1
    39   18   39 1
    40   19   20 1
    41   19   40 1
    42   19   41 1
    43   20   21 1
    44   20   42 1
    45   20   43 1
    46   44   45 1
@<TRIPOS>MOLECULE
ZINC03786099
   27    28     0     0     0
SMALL
USER_CHARGES

@<TRIPOS>ATOM
      1 C1          0.5015    1.5311   -0.0916 C.3       1 <0>        -0.0983
      2 C2          0.2787    0.0407   -0.0881 C.2       1 <0>         0.1102
      3 C3          0.3653   -0.8100   -1.2047 C.2       1 <0>        -0.2117
      4 C4          0.1001   -2.0658   -0.7961 C.2       1 <0>        -0.0005
      5 O1         -0.1465   -2.0296    0.5223 O.3       1 <0>        -0.0813
      6 N1         -0.0223   -0.6855    0.9511 N.2       1 <0>        -0.2785
      7 C5          0.0828   -3.2955   -1.6671 C.3       1 <0>         0.1094
      8 H1          0.3536   -3.0298   -2.6889 H         1 <0>         0.1689
      9 C6         -1.3218   -3.9344   -1.6454 C.3       1 <0>        -0.1373
     10 C7         -1.0140   -5.4550   -1.6401 C.3       1 <0>        -0.1406
     11 C8          0.2675   -5.5118   -0.7716 C.3       1 <0>        -0.0105
     12 N2          1.0296   -4.2959   -1.1412 N.4       1 <0>        -0.3895
     13 C9          1.7096   -3.7577    0.0445 C.3       1 <0>        -0.0542
     14 H2          1.5549    1.7415    0.0933 H         1 <0>         0.0996
     15 H3          0.2142    1.9391   -1.0607 H         1 <0>         0.0969
     16 H4         -0.1035    1.9908    0.6899 H         1 <0>         0.0920
     17 H5          0.6027   -0.5087   -2.2142 H         1 <0>         0.1743
     18 H6         -1.8619   -3.6474   -0.7432 H         1 <0>         0.1062
     19 H7         -1.8846   -3.6583   -2.5371 H         1 <0>         0.1232
     20 H8         -1.8253   -6.0160   -1.1762 H         1 <0>         0.1233
     21 H9         -0.8180   -5.8172   -2.6493 H         1 <0>         0.1044
     22 H10         0.0094   -5.4922    0.2872 H         1 <0>         0.1362
     23 H11         0.8452   -6.4059   -1.0057 H         1 <0>         0.1418
     24 H12         0.9908   -3.6464    0.8563 H         1 <0>         0.1346
     25 H13         2.5011   -4.4415    0.3512 H         1 <0>         0.1301
     26 H14         2.1414   -2.7858   -0.1942 H         1 <0>         0.1178
     27 H15         1.7121   -4.5225   -1.8490 H         1 <0>         0.4333
@<TRIPOS>BOND
     1    1    2 1
     2    1   14 1
     3    1   15 1
     4    1   16 1
     5    2    6 2
     6    2    3 1
     7    3    4 2
     8    3   17 1
     9    4    5 1
    10    4    7 1
    11    5    6 1
    12    7    8 1
    13    7   12 1
    14    7    9 1
    15    9   10 1
    16    9   18 1
    17    9   19 1
    18   10   11 1
    19   10   20 1
    20   10   21 1
    21   11   12 1
    22   11   22 1
    23   11   23 1
    24   12   13 1
    25   12   27 1
    26   13   24 1
    27   13   25 1
    28   13   26 1
@<TRIPOS>MOLECULE
ZINC00391812
   27    28     0     0     0
SMALL
USER_CHARGES

@<TRIPOS>ATOM
      1 C1          0.3944    1.5372   -0.0882 C.3       1 <0>        -0.0517
      2 N1          0.2218    0.0783   -0.0924 N.4       1 <0>        -0.3878
      3 C2          0.9063   -0.4989   -1.2638 C.3       1 <0>        -0.0125
      4 C3          1.9925   -1.4575   -0.7321 C.3       1 <0>        -0.1421
      5 C4          2.2411   -0.9393    0.7089 C.3       1 <0>        -0.1364
      6 C5          0.8181   -0.4968    1.1321 C.3       1 <0>         0.0811
      7 H1          0.2382   -1.3559    1.4692 H         1 <0>         0.1507
      8 C6          0.8940    0.5453    2.2181 C.ar      1 <0>        -0.2036
      9 C7          1.8431    1.5545    2.1577 C.ar      1 <0>        -0.0573
     10 C8          1.8760    2.4913    3.1790 C.ar      1 <0>        -0.1660
     11 C9          0.9680    2.3891    4.2162 C.ar      1 <0>         0.1377
     12 N2          0.0793    1.4154    4.2410 N.ar      1 <0>        -0.4739
     13 C10         0.0150    0.5105    3.2837 C.ar      1 <0>         0.1353
     14 H2          1.4576    1.7772   -0.0812 H         1 <0>         0.1215
     15 H3         -0.0678    1.9603   -0.9800 H         1 <0>         0.1243
     16 H4         -0.0786    1.9564    0.7999 H         1 <0>         0.1209
     17 H5          0.1926   -1.0502   -1.8760 H         1 <0>         0.1353
     18 H6          1.3676    0.2945   -1.8519 H         1 <0>         0.1319
     19 H7          1.6257   -2.4838   -0.7146 H         1 <0>         0.1029
     20 H8          2.9001   -1.3816   -1.3309 H         1 <0>         0.1144
     21 H9          2.6094   -1.7378    1.3529 H         1 <0>         0.1203
     22 H10         2.9285   -0.0933    0.7065 H         1 <0>         0.0978
     23 H11         2.5404    1.6091    1.3347 H         1 <0>         0.1428
     24 H12         2.6020    3.2907    3.1646 H         1 <0>         0.1512
     25 H13         0.9870    3.1149    5.0157 H         1 <0>         0.1712
     26 H14        -0.7302   -0.2695    3.3356 H         1 <0>         0.1637
     27 H15        -0.7608   -0.1480   -0.1301 H         1 <0>         0.4285
@<TRIPOS>BOND
     1    1    2 1
     2    1   14 1
     3    1   15 1
     4    1   16 1
     5    2    6 1
     6    2    3 1
     7    2   27 1
     8    3    4 1
     9    3   17 1
    10    3   18 1
    11    4    5 1
    12    4   19 1
    13    4   20 1
    14    5    6 1
    15    5   21 1
    16    5   22 1
    17    6    7 1
    18    6    8 1
    19    8   13 ar
    20    8    9 ar
    21    9   10 ar
    22    9   23 1
    23   10   11 ar
    24   10   24 1
    25   11   12 ar
    26   11   25 1
    27   12   13 ar
    28   13   26 1
@<TRIPOS>MOLECULE
ZINC06525315
   25    26     0     0     0
SMALL
USER_CHARGES
3-(azetidin-2-ylmethoxy)-2-fluoro-pyridine
@<TRIPOS>ATOM
      1 C1          1.7767   -0.5074   -3.1314 C.ar      1 <0>        -0.1390
      2 C2          1.1669    0.1527   -2.0749 C.ar      1 <0>        -0.1326
      3 C3          0.6061   -0.6074   -1.0562 C.ar      1 <0>         0.0398
      4 C4          0.6664   -1.9943   -1.1374 C.ar      1 <0>         0.2992
      5 N1          1.2519   -2.5828   -2.1630 N.ar      1 <0>        -0.4717
      6 C5          1.7982   -1.8881   -3.1430 C.ar      1 <0>         0.1183
      7 F1          0.1208   -2.7463   -0.1566 F         1 <0>        -0.1011
      8 O1          0.0021   -0.0041    0.0020 O.3       1 <0>        -0.3070
      9 C6         -0.0173    1.4248    0.0099 C.3       1 <0>         0.0437
     10 C7         -0.7334    1.9182    1.2687 C.3       1 <0>         0.0138
     11 H1         -1.6681    1.3897    1.4563 H         1 <0>         0.1745
     12 C8         -0.8689    3.4458    1.3361 C.3       1 <0>        -0.1667
     13 C9         -0.5657    3.2343    2.8261 C.3       1 <0>        -0.0227
     14 H2          2.2262    0.0524   -3.9383 H         1 <0>         0.1565
     15 H3          1.1323    1.2317   -2.0430 H         1 <0>         0.1507
     16 H4          2.2683   -2.4065   -3.9656 H         1 <0>         0.1803
     17 H5          1.0053    1.8021    0.0021 H         1 <0>         0.0891
     18 H6         -0.5445    1.7859   -0.8732 H         1 <0>         0.1145
     19 H7         -0.0927    3.9870    0.7951 H         1 <0>         0.1292
     20 H8         -1.8745    3.8141    1.1332 H         1 <0>         0.1322
     21 H9         -1.4561    3.0580    3.4296 H         1 <0>         0.1557
     22 H10         0.0864    3.9979    3.2501 H         1 <0>         0.1552
     23 N2          0.0393    2.0739    2.3977 N.4       1 <0>        -0.4741
     24 H11         1.0351    2.2017    2.1825 H         1 <0>         0.4375
     25 H12        -0.0704    1.3000    3.0635 H         1 <0>         0.4249
@<TRIPOS>BOND
     1    1    6 ar
     2    1    2 ar
     3    1   14 1
     4    2    3 ar
     5    2   15 1
     6    3    4 ar
     7    3    8 1
     8    4    5 ar
     9    4    7 1
    10    5    6 ar
    11    6   16 1
    12    8    9 1
    13    9   10 1
    14    9   17 1
    15    9   18 1
    16   10   11 1
    17   10   12 1
    18   10   23 1
    19   12   13 1
    20   12   19 1
    21   12   20 1
    22   13   21 1
    23   13   22 1
    24   13   23 1
    25   23   24 1
    26   23   25 1
@<TRIPOS>MOLECULE
ZINC13474371
   26    27     0     0     0
SMALL
USER_CHARGES

@<TRIPOS>ATOM
      1 C1         -0.0167    1.3825    0.0096 C.ar      1 <0>        -0.0333
      2 C2          1.1930    2.0590    0.0017 C.ar      1 <0>        -0.1495
      3 C3          2.3709    1.3334   -0.0134 C.ar      1 <0>         0.1928
      4 N1          2.3501    0.0138   -0.0207 N.ar      1 <0>        -0.4714
      5 C4          1.2174   -0.6616   -0.0136 C.ar      1 <0>         0.1389
      6 C5          0.0021   -0.0041    0.0020 C.ar      1 <0>        -0.1976
      7 C6         -1.2872   -0.7844    0.0101 C.3       1 <0>         0.1761
      8 N2         -1.7181   -1.0298   -1.3684 N.pl3     1 <0>        -0.5857
      9 C7         -2.5850   -0.1498   -2.1697 C.3       1 <0>         0.0823
     10 C8         -2.7002   -0.8954   -3.5142 C.3       1 <0>         0.0760
     11 N3         -1.8895   -2.1056   -3.3203 N.pl3     1 <0>        -0.6516
     12 C9         -1.3789   -2.1126   -2.1323 C.cat     1 <0>         0.7174
     13 N4         -0.5681   -3.1241   -1.6745 N.pl3     1 <0>        -0.8092
     14 Cl1         3.8931    2.1680   -0.0235 Cl        1 <0>        -0.0026
     15 H1         -0.9519    1.9225    0.0259 H         1 <0>         0.1525
     16 H2          1.2158    3.1388    0.0070 H         1 <0>         0.1577
     17 H3          1.2399   -1.7413   -0.0203 H         1 <0>         0.1568
     18 H4         -1.1323   -1.7366    0.5174 H         1 <0>         0.1096
     19 H5         -2.0538   -0.2139    0.5344 H         1 <0>         0.1289
     20 H6         -3.5643   -0.0456   -1.7026 H         1 <0>         0.1207
     21 H7         -2.1188    0.8255   -2.3096 H         1 <0>         0.1145
     22 H8         -3.7382   -1.1593   -3.7170 H         1 <0>         0.1252
     23 H9         -2.2939   -0.2888   -4.3235 H         1 <0>         0.1228
     24 H10        -0.2099   -3.0885   -0.7738 H         1 <0>         0.4337
     25 H11        -0.3541   -3.8733   -2.2523 H         1 <0>         0.4395
     26 H12        -1.7539   -2.7964   -3.9876 H         1 <0>         0.4556
@<TRIPOS>BOND
     1    1    6 ar
     2    1    2 ar
     3    1   15 1
     4    2    3 ar
     5    2   16 1
     6    3    4 ar
     7    3   14 1
     8    4    5 ar
     9    5    6 ar
    10    5   17 1
    11    6    7 1
    12    7    8 1
    13    7   18 1
    14    7   19 1
    15    8   12 1
    16    8    9 1
    17    9   10 1
    18    9   20 1
    19    9   21 1
    20   10   11 1
    21   10   22 1
    22   10   23 1
    23   11   12 2
    24   11   26 1
    25   12   13 1
    26   13   24 1
    27   13   25 1
@<TRIPOS>MOLECULE
ZINC13611482
   33    34     0     0     0
SMALL
USER_CHARGES
3-ethynyl-5-[[(2S)-1-methylpyrrolidin-2-yl]methoxy]pyridine
@<TRIPOS>ATOM
      1 C1         -3.0878    2.3839    1.5872 C.3       1 <0>        -0.0362
      2 C2         -0.8009    1.6167    1.2317 C.3       1 <0>        -0.0070
      3 C3         -0.0127    1.0858    0.0080 C.3       1 <0>        -0.1484
      4 C4         -0.8223    1.6286   -1.1920 C.3       1 <0>        -0.1399
      5 C5         -2.2314    1.9037   -0.6350 C.3       1 <0>         0.0333
      6 H1         -2.4649    2.9648   -0.7234 H         1 <0>         0.1516
      7 C6         -3.2650    1.0734   -1.3987 C.3       1 <0>         0.0340
      8 O1         -4.5778    1.4215   -0.9545 O.3       1 <0>        -0.3195
      9 C7         -5.6191    0.7704   -1.5368 C.ar      1 <0>         0.0655
     10 C8         -6.9251    1.0535   -1.1586 C.ar      1 <0>        -0.0809
     11 C9         -7.9620    0.3572   -1.7875 C.ar      1 <0>         0.0173
     12 C10        -7.6456   -0.5884   -2.7640 C.ar      1 <0>         0.1039
     13 N1         -6.3919   -0.8234   -3.0906 N.ar      1 <0>        -0.4399
     14 C11        -5.3905   -0.1815   -2.5209 C.ar      1 <0>         0.0297
     15 C12        -9.3267    0.6101   -1.4350 C.1       1 <0>        -0.1834
     16 C13       -10.4455    0.8175   -1.1459 C.1       1 <0>        -0.1169
     17 H2         -4.1102    2.3192    1.2148 H         1 <0>         0.1289
     18 H3         -3.0608    2.0703    2.6308 H         1 <0>         0.1233
     19 H4         -2.7367    3.4128    1.5078 H         1 <0>         0.1195
     20 H5         -0.6178    0.9936    2.1071 H         1 <0>         0.1401
     21 H6         -0.5403    2.6552    1.4361 H         1 <0>         0.1359
     22 H7          0.0021   -0.0041    0.0020 H         1 <0>         0.0999
     23 H8          1.0019    1.4840    0.0005 H         1 <0>         0.1194
     24 H9         -0.3756    2.5508   -1.5636 H         1 <0>         0.1127
     25 H10        -0.8682    0.8829   -1.9857 H         1 <0>         0.1091
     26 H11        -3.1769    1.2759   -2.4660 H         1 <0>         0.1129
     27 H12        -3.0880    0.0138   -1.2141 H         1 <0>         0.0900
     28 H13        -7.1344    1.7917   -0.3985 H         1 <0>         0.1492
     29 H14        -8.4374   -1.1328   -3.2571 H         1 <0>         0.1713
     30 H15        -4.3771   -0.4026   -2.8218 H         1 <0>         0.1600
     31 H16       -11.4462    1.0029   -0.8874 H         1 <0>         0.2326
     32 N2         -2.1941    1.5010    0.7758 N.4       1 <0>        -0.3968
     33 H17        -2.5082    0.5278    0.8675 H         1 <0>         0.4286
@<TRIPOS>BOND
     1    1   17 1
     2    1   18 1
     3    1   19 1
     4    1   32 1
     5    2    3 1
     6    2   20 1
     7    2   21 1
     8    2   32 1
     9    3    4 1
    10    3   22 1
    11    3   23 1
    12    4    5 1
    13    4   24 1
    14    4   25 1
    15    5    6 1
    16    5    7 1
    17    5   32 1
    18    7    8 1
    19    7   26 1
    20    7   27 1
    21    8    9 1
    22    9   14 ar
    23    9   10 ar
    24   10   11 ar
    25   10   28 1
    26   11   12 ar
    27   11   15 1
    28   12   13 ar
    29   12   29 1
    30   13   14 ar
    31   14   30 1
    32   15   16 3
    33   16   31 1
    34   32   33 1
@<TRIPOS>MOLECULE
ZINC13519529
   29    31     0     0     0
SMALL
USER_CHARGES
bromoBLAHone
@<TRIPOS>ATOM
      1 C1          1.2165   -0.6973    0.0657 C.2       1 <0>         0.0148
      2 C2          0.0021   -0.0041    0.0020 C.2       1 <0>        -0.1886
      3 C3         -0.0163    1.3543    0.0095 C.2       1 <0>         0.1149
      4 N1          1.1394    2.0591    0.0022 N.am      1 <0>        -0.5042
      5 C4          2.3226    1.4157    0.1551 C.2       1 <0>         0.5201
      6 O1          3.3490    2.0615    0.2938 O.2       1 <0>        -0.4988
      7 C5          2.3777    0.0138    0.1551 C.2       1 <0>        -0.2094
      8 Br1         4.0401   -0.8791    0.2782 Br        1 <0>         0.0179
      9 C6          1.1908    3.5045   -0.2210 C.3       1 <0>         0.0776
     10 C7         -0.1352    4.1819    0.0832 C.3       1 <0>        -0.1228
     11 H1         -0.1140    5.1867   -0.3388 H         1 <0>         0.1443
     12 C8         -1.2704    3.4086   -0.5936 C.3       1 <0>        -0.1318
     13 C9         -1.3645    2.0357    0.0819 C.3       1 <0>        -0.0649
     14 H2         -2.1296    1.4201   -0.3911 H         1 <0>         0.1537
     15 C10        -1.6930    2.2572    1.5674 C.3       1 <0>         0.0017
     16 C11        -0.3798    4.2935    1.5813 C.3       1 <0>        -0.0009
     17 H3          1.2341   -1.7769    0.0441 H         1 <0>         0.1576
     18 H4         -0.9265   -0.5528   -0.0538 H         1 <0>         0.1642
     19 H5          1.9620    3.9338    0.4187 H         1 <0>         0.1165
     20 H6          1.4513    3.6923   -1.2626 H         1 <0>         0.1085
     21 H7         -2.2099    3.9470   -0.4693 H         1 <0>         0.1060
     22 H8         -1.0521    3.2845   -1.6543 H         1 <0>         0.1051
     23 H9         -1.8350    1.2954    2.0604 H         1 <0>         0.1421
     24 H10        -2.5993    2.8557    1.6588 H         1 <0>         0.1492
     25 H11         0.4746    4.7838    2.0480 H         1 <0>         0.1380
     26 H12        -1.2738    4.8926    1.7545 H         1 <0>         0.1435
     27 N2         -0.5565    2.9648    2.1925 N.4       1 <0>        -0.5222
     28 H13         0.2998    2.4142    2.0585 H         1 <0>         0.4261
     29 H14        -0.7383    3.0759    3.1969 H         1 <0>         0.4417
@<TRIPOS>BOND
     1    1    7 2
     2    1    2 1
     3    1   17 1
     4    2    3 2
     5    2   18 1
     6    3   13 1
     7    3    4 1
     8    4    5 am
     9    4    9 1
    10    5    6 2
    11    5    7 1
    12    7    8 1
    13    9   10 1
    14    9   19 1
    15    9   20 1
    16   10   11 1
    17   10   16 1
    18   10   12 1
    19   12   13 1
    20   12   21 1
    21   12   22 1
    22   13   14 1
    23   13   15 1
    24   15   23 1
    25   15   24 1
    26   15   27 1
    27   16   25 1
    28   16   26 1
    29   16   27 1
    30   27   28 1
    31   27   29 1
@<TRIPOS>MOLECULE
ZINC04474604
   27    28     0     0     0
SMALL
USER_CHARGES

@<TRIPOS>ATOM
      1 C1         -3.3367   -1.7998    0.9454 C.ar      1 <0>        -0.0334
      2 C2         -4.5646   -1.6558    1.5720 C.ar      1 <0>        -0.1529
      3 C3         -5.0109   -0.3872    1.8967 C.ar      1 <0>         0.1850
      4 N1         -4.2820    0.6766    1.6158 N.ar      1 <0>        -0.4783
      5 C4         -3.1096    0.5761    1.0204 C.ar      1 <0>         0.1406
      6 C5         -2.5996   -0.6587    0.6670 C.ar      1 <0>        -0.1735
      7 C6         -1.2589   -0.7638   -0.0131 C.3       1 <0>         0.1409
      8 N2         -1.4547   -1.0350   -1.4394 N.pl3     1 <0>        -0.6047
      9 C7         -2.0000   -0.0849   -2.4203 C.3       1 <0>         0.0817
     10 C8         -1.9876   -0.8726   -3.7447 C.3       1 <0>         0.0919
     11 N3         -1.4366   -2.1836   -3.3705 N.pl3     1 <0>        -0.6727
     12 C9         -1.1599   -2.1867   -2.0588 C.2       1 <0>         0.6986
     13 N4         -0.6367   -3.2512   -1.4207 N.2       1 <0>        -0.4971
     14 N5         -0.2558   -3.1441   -0.1929 N.pl3     1 <0>         0.2230
     15 O1         -1.0477   -3.5462    0.7796 O.2       1 <0>        -0.2500
     16 O2          0.9248   -2.6326    0.0881 O.3       1 <0>        -0.2646
     17 Cl1        -6.5469   -0.1924    2.6818 Cl        1 <0>        -0.0218
     18 H1         -2.9608   -2.7780    0.6841 H         1 <0>         0.1595
     19 H2         -5.1654   -2.5229    1.8036 H         1 <0>         0.1514
     20 H3         -2.5416    1.4692    0.8061 H         1 <0>         0.1672
     21 H4         -0.7159    0.1737    0.1073 H         1 <0>         0.1114
     22 H5         -0.6864   -1.5755    0.4358 H         1 <0>         0.1266
     23 H6         -3.0181    0.1985   -2.1533 H         1 <0>         0.1007
     24 H7         -1.3633    0.7968   -2.4937 H         1 <0>         0.1061
     25 H8         -2.9995   -0.9803   -4.1352 H         1 <0>         0.1056
     26 H9         -1.3448   -0.3820   -4.4756 H         1 <0>         0.1086
     27 H10        -1.2930   -2.9268   -3.9770 H         1 <0>         0.4500
@<TRIPOS>BOND
     1    1    6 ar
     2    1    2 ar
     3    1   18 1
     4    2    3 ar
     5    2   19 1
     6    3    4 ar
     7    3   17 1
     8    4    5 ar
     9    5    6 ar
    10    5   20 1
    11    6    7 1
    12    7    8 1
    13    7   21 1
    14    7   22 1
    15    8   12 1
    16    8    9 1
    17    9   10 1
    18    9   23 1
    19    9   24 1
    20   10   11 1
    21   10   25 1
    22   10   26 1
    23   11   12 1
    24   11   27 1
    25   12   13 2
    26   13   14 1
    27   14   15 2
    28   14   16 1
@<TRIPOS>MOLECULE
ZINC04474604
   27    28     0     0     0
SMALL
USER_CHARGES

@<TRIPOS>ATOM
      1 C1         -0.0232    1.3761    0.0289 C.ar      1 <0>        -0.0422
      2 C2          1.1873    2.0511    0.0320 C.ar      1 <0>        -0.1593
      3 C3          2.3644    1.3241    0.0228 C.ar      1 <0>         0.1860
      4 N1          2.3421    0.0046    0.0108 N.ar      1 <0>        -0.4757
      5 C4          1.2085   -0.6694    0.0076 C.ar      1 <0>         0.1546
      6 C5         -0.0061   -0.0105    0.0167 C.ar      1 <0>        -0.1801
      7 C6         -1.2963   -0.7892    0.0129 C.3       1 <0>         0.1880
      8 N2         -1.7176   -1.0294   -1.3695 N.pl3     1 <0>        -0.5686
      9 C7         -2.5772   -0.1402   -2.1650 C.3       1 <0>         0.0889
     10 C8         -2.6991   -0.8603   -3.5219 C.3       1 <0>         0.0864
     11 N3         -1.8954   -2.0794   -3.3480 N.pl3     1 <0>        -0.7201
     12 C9         -1.3761   -2.0919   -2.1122 C.2       1 <0>         0.6973
     13 N4         -0.5862   -3.0832   -1.6570 N.2       1 <0>        -0.4965
     14 N5         -0.3770   -4.1272   -2.3854 N.pl3     1 <0>         0.1954
     15 O1          0.6891   -4.1894   -3.1562 O.2       1 <0>        -0.2389
     16 O2         -1.2294   -5.1307   -2.3581 O.3       1 <0>        -0.2492
     17 Cl1         3.8877    2.1568    0.0265 Cl        1 <0>        -0.0218
     18 H1         -0.9578    1.9172    0.0403 H         1 <0>         0.1476
     19 H2          1.2115    3.1308    0.0410 H         1 <0>         0.1502
     20 H3          1.2298   -1.7492   -0.0027 H         1 <0>         0.1706
     21 H4         -1.1463   -1.7433    0.5180 H         1 <0>         0.1138
     22 H5         -2.0660   -0.2195    0.5335 H         1 <0>         0.1128
     23 H6         -3.5565   -0.0362   -1.6978 H         1 <0>         0.1084
     24 H7         -2.1067    0.8350   -2.2905 H         1 <0>         0.1016
     25 H8         -3.7389   -1.1139   -3.7283 H         1 <0>         0.1055
     26 H9         -2.2892   -0.2426   -4.3210 H         1 <0>         0.1031
     27 H10        -1.7598   -2.7640   -4.0217 H         1 <0>         0.4422
@<TRIPOS>BOND
     1    1    6 ar
     2    1    2 ar
     3    1   18 1
     4    2    3 ar
     5    2   19 1
     6    3    4 ar
     7    3   17 1
     8    4    5 ar
     9    5    6 ar
    10    5   20 1
    11    6    7 1
    12    7    8 1
    13    7   21 1
    14    7   22 1
    15    8   12 1
    16    8    9 1
    17    9   10 1
    18    9   23 1
    19    9   24 1
    20   10   11 1
    21   10   25 1
    22   10   26 1
    23   11   12 1
    24   11   27 1
    25   12   13 2
    26   13   14 1
    27   14   15 2
    28   14   16 1
@<TRIPOS>MOLECULE
ZINC04474604
   26    27     0     0     0
SMALL
USER_CHARGES

@<TRIPOS>ATOM
      1 C1         -0.0167    1.3825    0.0096 C.ar      1 <0>        -0.0553
      2 C2          1.1930    2.0590    0.0017 C.ar      1 <0>        -0.1627
      3 C3          2.3709    1.3334   -0.0134 C.ar      1 <0>         0.1701
      4 N1          2.3501    0.0138   -0.0207 N.ar      1 <0>        -0.4798
      5 C4          1.2174   -0.6616   -0.0136 C.ar      1 <0>         0.1507
      6 C5          0.0021   -0.0041    0.0020 C.ar      1 <0>        -0.1462
      7 C6         -1.2872   -0.7844    0.0101 C.3       1 <0>         0.1949
      8 N2         -1.7181   -1.0298   -1.3684 N.pl3     1 <0>        -0.6322
      9 C7         -2.5850   -0.1498   -2.1697 C.3       1 <0>         0.0920
     10 C8         -2.6997   -0.8951   -3.5144 C.3       1 <0>         0.0364
     11 N3         -1.8888   -2.1052   -3.3206 N.2       1 <0>        -0.6245
     12 C9         -1.3789   -2.1126   -2.1323 C.2       1 <0>         0.5431
     13 N4         -0.5682   -3.1241   -1.6745 N.2       1 <0>        -0.5178
     14 N5         -0.2592   -4.2062   -2.5090 N.pl3     1 <0>         0.2255
     15 O1         -0.7055   -4.2504   -3.6317 O.2       1 <0>        -0.2969
     16 O2          0.4537   -5.0958   -2.1064 O.3       1 <0>        -0.3190
     17 Cl1         3.8931    2.1680   -0.0235 Cl        1 <0>        -0.0438
     18 H1         -0.9519    1.9225    0.0259 H         1 <0>         0.1402
     19 H2          1.2158    3.1388    0.0070 H         1 <0>         0.1408
     20 H3          1.2399   -1.7413   -0.0203 H         1 <0>         0.1760
     21 H4         -1.1323   -1.7366    0.5174 H         1 <0>         0.0957
     22 H5         -2.0538   -0.2139    0.5344 H         1 <0>         0.0768
     23 H6         -3.5644   -0.0459   -1.7028 H         1 <0>         0.0602
     24 H7         -2.1189    0.8257   -2.3093 H         1 <0>         0.0548
     25 H8         -3.7376   -1.1591   -3.7176 H         1 <0>         0.0616
     26 H9         -2.2933   -0.2883   -4.3235 H         1 <0>         0.0592
@<TRIPOS>BOND
     1    1    6 ar
     2    1    2 ar
     3    1   18 1
     4    2    3 ar
     5    2   19 1
     6    3    4 ar
     7    3   17 1
     8    4    5 ar
     9    5    6 ar
    10    5   20 1
    11    6    7 1
    12    7    8 1
    13    7   21 1
    14    7   22 1
    15    8   12 1
    16    8    9 1
    17    9   10 1
    18    9   23 1
    19    9   24 1
    20   10   11 1
    21   10   25 1
    22   10   26 1
    23   11   12 2
    24   12   13 1
    25   13   14 1
    26   14   15 2
    27   14   16 1
@<TRIPOS>MOLECULE
ZINC04474604
   26    27     0     0     0
SMALL
USER_CHARGES

@<TRIPOS>ATOM
      1 C1         -0.0167    1.3825    0.0096 C.ar      1 <0>        -0.0532
      2 C2          1.1930    2.0590    0.0017 C.ar      1 <0>        -0.1625
      3 C3          2.3709    1.3334   -0.0134 C.ar      1 <0>         0.1721
      4 N1          2.3501    0.0138   -0.0207 N.ar      1 <0>        -0.4788
      5 C4          1.2174   -0.6616   -0.0136 C.ar      1 <0>         0.1506
      6 C5          0.0021   -0.0041    0.0020 C.ar      1 <0>        -0.1498
      7 C6         -1.2872   -0.7844    0.0101 C.3       1 <0>         0.1883
      8 N2         -1.7181   -1.0298   -1.3684 N.pl3     1 <0>        -0.6118
      9 C7         -2.5845   -0.1444   -2.1607 C.3       1 <0>         0.0913
     10 C8         -2.7153   -0.8693   -3.5142 C.3       1 <0>         0.0217
     11 N3         -1.9088   -2.0868   -3.3420 N.2       1 <0>        -0.5777
     12 C9         -1.3806   -2.0944   -2.1099 C.2       1 <0>         0.5255
     13 N4         -0.5862   -3.0832   -1.6570 N.2       1 <0>        -0.4227
     14 N5         -0.2991   -4.0814   -2.4221 N.pl3     1 <0>         0.2681
     15 O1         -0.7828   -4.1336   -3.6459 O.2       1 <0>        -0.3946
     16 O2          0.4777   -5.0484   -1.9793 O.3       1 <0>        -0.4246
     17 Cl1         3.8931    2.1680   -0.0235 Cl        1 <0>        -0.0420
     18 H1         -0.9519    1.9225    0.0259 H         1 <0>         0.1414
     19 H2          1.2158    3.1388    0.0070 H         1 <0>         0.1418
     20 H3          1.2399   -1.7413   -0.0203 H         1 <0>         0.1764
     21 H4         -1.1323   -1.7366    0.5174 H         1 <0>         0.1001
     22 H5         -2.0538   -0.2139    0.5344 H         1 <0>         0.0828
     23 H6         -3.5605   -0.0401   -1.6868 H         1 <0>         0.0654
     24 H7         -2.1161    0.8309   -2.2928 H         1 <0>         0.0600
     25 H8         -3.7562   -1.1248   -3.7123 H         1 <0>         0.0673
     26 H9         -2.3118   -0.2538   -4.3183 H         1 <0>         0.0649
@<TRIPOS>BOND
     1    1    6 ar
     2    1    2 ar
     3    1   18 1
     4    2    3 ar
     5    2   19 1
     6    3    4 ar
     7    3   17 1
     8    4    5 ar
     9    5    6 ar
    10    5   20 1
    11    6    7 1
    12    7    8 1
    13    7   21 1
    14    7   22 1
    15    8   12 1
    16    8    9 1
    17    9   10 1
    18    9   23 1
    19    9   24 1
    20   10   11 1
    21   10   25 1
    22   10   26 1
    23   11   12 1
    24   12   13 2
    25   13   14 1
    26   14   15 2
    27   14   16 1
@<TRIPOS>MOLECULE
ZINC04474604
   26    27     0     0     0
SMALL
USER_CHARGES

@<TRIPOS>ATOM
      1 C1         -3.3367   -1.7998    0.9453 C.ar      1 <0>        -0.0336
      2 C2         -4.5646   -1.6558    1.5720 C.ar      1 <0>        -0.1545
      3 C3         -5.0109   -0.3872    1.8967 C.ar      1 <0>         0.1698
      4 N1         -4.2820    0.6766    1.6158 N.ar      1 <0>        -0.4846
      5 C4         -3.1096    0.5761    1.0204 C.ar      1 <0>         0.1245
      6 C5         -2.5996   -0.6587    0.6670 C.ar      1 <0>        -0.1426
      7 C6         -1.2589   -0.7638   -0.0131 C.3       1 <0>         0.1390
      8 N2         -1.4547   -1.0350   -1.4394 N.pl3     1 <0>        -0.6490
      9 C7         -2.0000   -0.0849   -2.4203 C.3       1 <0>         0.0881
     10 C8         -1.9876   -0.8726   -3.7447 C.3       1 <0>         0.0485
     11 N3         -1.4366   -2.1836   -3.3705 N.2       1 <0>        -0.6488
     12 C9         -1.1599   -2.1867   -2.0588 C.2       1 <0>         0.6094
     13 N4         -0.6367   -3.2512   -1.4207 N.2       1 <0>        -0.5267
     14 N5         -0.2558   -3.1441   -0.1929 N.pl3     1 <0>         0.2724
     15 O1         -1.0477   -3.5462    0.7796 O.2       1 <0>        -0.3324
     16 O2          0.9248   -2.6326    0.0881 O.3       1 <0>        -0.3484
     17 Cl1        -6.5469   -0.1924    2.6818 Cl        1 <0>        -0.0430
     18 H1         -2.9608   -2.7780    0.6841 H         1 <0>         0.1647
     19 H2         -5.1654   -2.5229    1.8036 H         1 <0>         0.1445
     20 H3         -2.5416    1.4692    0.8061 H         1 <0>         0.1613
     21 H4         -0.7159    0.1737    0.1073 H         1 <0>         0.0780
     22 H5         -0.6864   -1.5755    0.4358 H         1 <0>         0.1225
     23 H6         -3.0181    0.1985   -2.1533 H         1 <0>         0.0583
     24 H7         -1.3633    0.7968   -2.4937 H         1 <0>         0.0626
     25 H8         -2.9995   -0.9803   -4.1352 H         1 <0>         0.0586
     26 H9         -1.3448   -0.3820   -4.4756 H         1 <0>         0.0617
@<TRIPOS>BOND
     1    1    6 ar
     2    1    2 ar
     3    1   18 1
     4    2    3 ar
     5    2   19 1
     6    3    4 ar
     7    3   17 1
     8    4    5 ar
     9    5    6 ar
    10    5   20 1
    11    6    7 1
    12    7    8 1
    13    7   21 1
    14    7   22 1
    15    8   12 1
    16    8    9 1
    17    9   10 1
    18    9   23 1
    19    9   24 1
    20   10   11 1
    21   10   25 1
    22   10   26 1
    23   11   12 1
    24   12   13 2
    25   13   14 1
    26   14   15 2
    27   14   16 1
@<TRIPOS>MOLECULE
ZINC00007013
   32    34     0     0     0
SMALL
USER_CHARGES
(1R,6R)-5-(6-chloro-3-pyridyl)-9-azabicyclo[4.2.1]non-4-ene
@<TRIPOS>ATOM
      1 C1          5.6149   -0.2684    0.3214 C.ar      1 <0>        -0.0420
      2 C2          6.8986    0.2442    0.3789 C.ar      1 <0>        -0.1491
      3 C3          7.1223    1.5556   -0.0049 C.ar      1 <0>         0.1880
      4 N1          6.1322    2.3192   -0.4289 N.ar      1 <0>        -0.4708
      5 C4          4.8951    1.8739   -0.5065 C.ar      1 <0>         0.1412
      6 C5          4.5878    0.5641   -0.1377 C.ar      1 <0>        -0.1277
      7 C6          3.1990    0.0654   -0.2248 C.2       1 <0>        -0.1134
      8 C7          2.9321   -0.9058   -1.0832 C.2       1 <0>        -0.0999
      9 C8          1.5542   -1.4816   -1.2219 C.3       1 <0>        -0.1227
     10 C9          0.5568   -0.3730   -1.3894 C.3       1 <0>        -0.1487
     11 C10         0.0021   -0.0041    0.0020 C.3       1 <0>         0.0272
     12 H1         -0.9514   -0.4728    0.2454 H         1 <0>         0.1721
     13 C11        -0.0191    1.5571    0.0106 C.3       1 <0>        -0.1420
     14 C12         1.4947    1.8920   -0.0021 C.3       1 <0>        -0.1416
     15 C13         2.1649    0.6832    0.6622 C.3       1 <0>         0.0792
     16 H2          2.6384    1.0049    1.5898 H         1 <0>         0.1457
     17 Cl1         8.7298    2.2063    0.0733 Cl        1 <0>        -0.0067
     18 H3          5.4113   -1.2864    0.6192 H         1 <0>         0.1488
     19 H4          7.7168   -0.3705    0.7240 H         1 <0>         0.1560
     20 H5          4.1117    2.5288   -0.8583 H         1 <0>         0.1657
     21 H6          3.7282   -1.2942   -1.7011 H         1 <0>         0.1413
     22 H7          1.5156   -2.1258   -2.1003 H         1 <0>         0.1136
     23 H8          1.3117   -2.0635   -0.3327 H         1 <0>         0.0818
     24 H9         -0.2583   -0.7021   -2.0340 H         1 <0>         0.1136
     25 H10         1.0472    0.4945   -1.8309 H         1 <0>         0.1046
     26 H11        -0.5123    1.9457   -0.8804 H         1 <0>         0.1203
     27 H12        -0.4951    1.9360    0.9150 H         1 <0>         0.1008
     28 H13         1.8496    2.0081   -1.0261 H         1 <0>         0.1060
     29 H14         1.6884    2.7975    0.5731 H         1 <0>         0.1129
     30 N2          1.1037   -0.2696    0.9568 N.4       1 <0>        -0.5193
     31 H15         1.4489   -1.2293    0.8380 H         1 <0>         0.4301
     32 H16         0.7729   -0.1417    1.9203 H         1 <0>         0.4350
@<TRIPOS>BOND
     1    1    6 ar
     2    1    2 ar
     3    1   18 1
     4    2    3 ar
     5    2   19 1
     6    3    4 ar
     7    3   17 1
     8    4    5 ar
     9    5    6 ar
    10    5   20 1
    11    6    7 1
    12    7   15 1
    13    7    8 2
    14    8    9 1
    15    8   21 1
    16    9   10 1
    17    9   22 1
    18    9   23 1
    19   10   11 1
    20   10   24 1
    21   10   25 1
    22   11   12 1
    23   11   13 1
    24   11   30 1
    25   13   14 1
    26   13   26 1
    27   13   27 1
    28   14   15 1
    29   14   28 1
    30   14   29 1
    31   15   16 1
    32   15   30 1
    33   30   31 1
    34   30   32 1
@<TRIPOS>MOLECULE
ZINC02507596
   32    34     0     0     0
SMALL
USER_CHARGES

@<TRIPOS>ATOM
      1 C1         -0.0169    1.3953    0.0097 C.ar      1 <0>        -0.0420
      2 C2          1.1920    2.0680    0.0018 C.ar      1 <0>        -0.1491
      3 C3          2.3711    1.3421   -0.0134 C.ar      1 <0>         0.1881
      4 N1          2.3578    0.0220   -0.0208 N.ar      1 <0>        -0.4707
      5 C4          1.2322   -0.6619   -0.0137 C.ar      1 <0>         0.1413
      6 C5          0.0021   -0.0041    0.0020 C.ar      1 <0>        -0.1278
      7 C6         -1.2606   -0.7725    0.0104 C.2       1 <0>        -0.1143
      8 C7         -2.0618   -0.6776   -1.0387 C.2       1 <0>        -0.0983
      9 C8         -3.3690   -1.4098   -1.1037 C.3       1 <0>        -0.1221
     10 C9         -3.1440   -2.8751   -0.7409 C.3       1 <0>        -0.1496
     11 C10        -3.4024   -3.0475    0.7703 C.3       1 <0>         0.0307
     12 H1         -4.4010   -3.4074    1.0182 H         1 <0>         0.1687
     13 C11        -2.2389   -3.9659    1.2611 C.3       1 <0>        -0.1391
     14 C12        -1.0087   -3.0404    1.0765 C.3       1 <0>        -0.1400
     15 C13        -1.5671   -1.6237    1.2018 C.3       1 <0>         0.0897
     16 H2         -1.1426   -1.1572    2.0908 H         1 <0>         0.1409
     17 N2         -3.0419   -1.7313    1.3912 N.4       1 <0>        -0.5296
     18 Cl1         3.8907    2.1812   -0.0234 Cl        1 <0>        -0.0066
     19 H3         -0.9515    1.9364    0.0260 H         1 <0>         0.1486
     20 H4          1.2158    3.1477    0.0070 H         1 <0>         0.1561
     21 H5          1.2618   -1.7415   -0.0205 H         1 <0>         0.1660
     22 H6         -1.7662   -0.0557   -1.8707 H         1 <0>         0.1414
     23 H7         -4.0712   -0.9641   -0.3991 H         1 <0>         0.0806
     24 H8         -3.7738   -1.3429   -2.1135 H         1 <0>         0.1142
     25 H9         -3.8334   -3.5031   -1.3052 H         1 <0>         0.1135
     26 H10        -2.1167   -3.1570   -0.9721 H         1 <0>         0.1055
     27 H11        -2.3704   -4.2360    2.3089 H         1 <0>         0.1012
     28 H12        -2.1548   -4.8560    0.6377 H         1 <0>         0.1219
     29 H13        -0.2709   -3.2292    1.8563 H         1 <0>         0.1146
     30 H14        -0.5672   -3.1874    0.0908 H         1 <0>         0.1072
     31 H15        -3.5249   -0.9797    0.9222 H         1 <0>         0.4285
     32 H16        -3.2689   -1.7348    2.3743 H         1 <0>         0.4304
@<TRIPOS>BOND
     1    1    6 ar
     2    1    2 ar
     3    1   19 1
     4    2    3 ar
     5    2   20 1
     6    3    4 ar
     7    3   18 1
     8    4    5 ar
     9    5    6 ar
    10    5   21 1
    11    6    7 1
    12    7   15 1
    13    7    8 2
    14    8    9 1
    15    8   22 1
    16    9   10 1
    17    9   23 1
    18    9   24 1
    19   10   11 1
    20   10   25 1
    21   10   26 1
    22   11   12 1
    23   11   17 1
    24   11   13 1
    25   13   14 1
    26   13   27 1
    27   13   28 1
    28   14   15 1
    29   14   29 1
    30   14   30 1
    31   15   16 1
    32   15   17 1
    33   17   31 1
    34   17   32 1
@<TRIPOS>MOLECULE
ZINC00967913
   28    30     0     0     0
SMALL
USER_CHARGES

@<TRIPOS>ATOM
      1 C1          1.2171   -0.6545    0.1555 C.ar      1 <0>        -0.0752
      2 C2          2.3777    0.1031    0.1418 C.ar      1 <0>        -0.1425
      3 C3          2.2860    1.4736   -0.0235 C.ar      1 <0>         0.1878
      4 N1          1.1116    2.0586   -0.1663 N.ar      1 <0>        -0.4633
      5 C4         -0.0121    1.3684   -0.1581 C.ar      1 <0>         0.1458
      6 C5          0.0021   -0.0041    0.0020 C.ar      1 <0>        -0.1631
      7 C6         -1.2872   -0.7844    0.0101 C.3       1 <0>        -0.0612
      8 H1         -2.1393   -0.1141    0.1233 H         1 <0>         0.1365
      9 C7         -1.2749   -1.8456    1.1375 C.3       1 <0>        -0.1443
     10 C8         -1.4042   -3.1952    0.3689 C.3       1 <0>         0.0384
     11 H2         -1.0647   -4.0789    0.9092 H         1 <0>         0.1726
     12 C9         -2.8802   -3.2368   -0.1294 C.3       1 <0>        -0.1467
     13 C10        -2.9122   -2.1745   -1.2554 C.3       1 <0>        -0.1410
     14 C11        -1.4241   -1.6312   -1.2910 C.3       1 <0>         0.0452
     15 H3         -1.1139   -1.1348   -2.2105 H         1 <0>         0.1734
     16 N2         -0.6607   -2.8754   -0.9018 N.4       1 <0>        -0.5418
     17 Cl1         3.7316    2.4346   -0.0426 Cl        1 <0>        -0.0014
     18 H4          1.2583   -1.7267    0.2784 H         1 <0>         0.1305
     19 H5          3.3413   -0.3704    0.2590 H         1 <0>         0.1568
     20 H6         -0.9547    1.8820   -0.2775 H         1 <0>         0.1733
     21 H7         -0.3364   -1.8073    1.6905 H         1 <0>         0.1022
     22 H8         -2.1225   -1.7031    1.8079 H         1 <0>         0.1235
     23 H9         -3.1240   -4.2228   -0.5251 H         1 <0>         0.1015
     24 H10        -3.5644   -2.9648    0.6743 H         1 <0>         0.1177
     25 H11        -3.1719   -2.6339   -2.2092 H         1 <0>         0.1026
     26 H12        -3.6123   -1.3759   -1.0098 H         1 <0>         0.1175
     27 H13         0.3118   -2.6745   -0.7232 H         1 <0>         0.4224
     28 H14        -0.7670   -3.6066   -1.5889 H         1 <0>         0.4327
@<TRIPOS>BOND
     1    1    6 ar
     2    1    2 ar
     3    1   18 1
     4    2    3 ar
     5    2   19 1
     6    3    4 ar
     7    3   17 1
     8    4    5 ar
     9    5    6 ar
    10    5   20 1
    11    6    7 1
    12    7    8 1
    13    7   14 1
    14    7    9 1
    15    9   10 1
    16    9   21 1
    17    9   22 1
    18   10   11 1
    19   10   16 1
    20   10   12 1
    21   12   13 1
    22   12   23 1
    23   12   24 1
    24   13   14 1
    25   13   25 1
    26   13   26 1
    27   14   15 1
    28   14   16 1
    29   16   27 1
    30   16   28 1
@<TRIPOS>MOLECULE
ZINC02565794
   28    30     0     0     0
SMALL
USER_CHARGES

@<TRIPOS>ATOM
      1 C1          1.0928   -0.4585   -0.7237 C.ar      1 <0>        -0.0620
      2 C2          2.2584    0.2913   -0.7024 C.ar      1 <0>        -0.1496
      3 C3          2.2945    1.4601    0.0370 C.ar      1 <0>         0.1879
      4 N1          1.2364    1.8615    0.7161 N.ar      1 <0>        -0.4678
      5 C4          0.1118    1.1728    0.7180 C.ar      1 <0>         0.1387
      6 C5          0.0021   -0.0041    0.0020 C.ar      1 <0>        -0.1517
      7 C6         -1.2872   -0.7844    0.0101 C.3       1 <0>        -0.0603
      8 H1         -2.1406   -0.1121    0.0984 H         1 <0>         0.1214
      9 C7         -1.4069   -1.6526   -1.2663 C.3       1 <0>        -0.1520
     10 C8         -1.4635   -3.1084   -0.7127 C.3       1 <0>         0.0416
     11 H2         -1.8985   -3.8501   -1.3825 H         1 <0>         0.1732
     12 C9         -0.0153   -3.4112   -0.2228 C.3       1 <0>        -0.1506
     13 C10         0.1242   -2.5441    1.0524 C.3       1 <0>        -0.1538
     14 C11        -1.2892   -1.8286    1.1671 C.3       1 <0>         0.0430
     15 H3         -1.5584   -1.4416    2.1499 H         1 <0>         0.1768
     16 N2         -2.1888   -2.8932    0.5901 N.4       1 <0>        -0.5340
     17 Cl1         3.7479    2.4089    0.0725 Cl        1 <0>        -0.0051
     18 H4          1.0341   -1.3727   -1.2956 H         1 <0>         0.1499
     19 H5          3.1274   -0.0328   -1.2557 H         1 <0>         0.1556
     20 H6         -0.7333    1.5325    1.2862 H         1 <0>         0.1691
     21 H7         -2.3211   -1.4127   -1.8092 H         1 <0>         0.1082
     22 H8         -0.5337   -1.5186   -1.9048 H         1 <0>         0.1199
     23 H9          0.0951   -4.4685    0.0180 H         1 <0>         0.1039
     24 H10         0.7148   -3.1093   -0.9738 H         1 <0>         0.1130
     25 H11         0.3037   -3.1717    1.9253 H         1 <0>         0.1016
     26 H12         0.9234   -1.8126    0.9335 H         1 <0>         0.1174
     27 H13        -3.1247   -2.5463    0.4419 H         1 <0>         0.4324
     28 H14        -2.1894   -3.7275    1.1576 H         1 <0>         0.4332
@<TRIPOS>BOND
     1    1    6 ar
     2    1    2 ar
     3    1   18 1
     4    2    3 ar
     5    2   19 1
     6    3    4 ar
     7    3   17 1
     8    4    5 ar
     9    5    6 ar
    10    5   20 1
    11    6    7 1
    12    7    8 1
    13    7   14 1
    14    7    9 1
    15    9   10 1
    16    9   21 1
    17    9   22 1
    18   10   11 1
    19   10   16 1
    20   10   12 1
    21   12   13 1
    22   12   23 1
    23   12   24 1
    24   13   14 1
    25   13   25 1
    26   13   26 1
    27   14   15 1
    28   14   16 1
    29   16   27 1
    30   16   28 1
@<TRIPOS>MOLECULE
ZINC00020228
   35    35     0     0     0
SMALL
USER_CHARGES

@<TRIPOS>ATOM
      1 C1          0.5518    1.3750   -1.0674 C.3       1 <0>        -0.1790
      2 C2          0.1005    0.0353   -0.4822 C.3       1 <0>        -0.0279
      3 H1          0.4535   -0.0497    0.5455 H         1 <0>         0.1674
      4 C3         -1.4044   -0.0412   -0.5044 C.2       1 <0>         0.4017
      5 O1         -1.9715   -0.5550   -1.4450 O.2       1 <0>        -0.4258
      6 C4         -2.1856    0.5077    0.6155 C.ar      1 <0>        -0.1739
      7 C5         -1.5352    1.1062    1.6995 C.ar      1 <0>        -0.0747
      8 C6         -2.2735    1.6187    2.7450 C.ar      1 <0>        -0.1099
      9 C7         -3.6553    1.5420    2.7247 C.ar      1 <0>        -0.0584
     10 C8         -4.3073    0.9506    1.6555 C.ar      1 <0>        -0.0459
     11 C9         -3.5820    0.4386    0.5985 C.ar      1 <0>        -0.0404
     12 Cl1        -6.0408    0.8595    1.6411 Cl        1 <0>        -0.0379
     13 N1          0.6585   -1.0620   -1.2839 N.4       1 <0>        -0.4958
     14 C10         0.5520   -2.3202   -0.5331 C.3       1 <0>         0.0514
     15 C11        -0.9226   -2.6390   -0.2784 C.3       1 <0>        -0.1860
     16 C12         1.1861   -3.4527   -1.3431 C.3       1 <0>        -0.1746
     17 C13         1.2817   -2.1793    0.8043 C.3       1 <0>        -0.1789
     18 H2          1.6336    1.4676   -0.9710 H         1 <0>         0.1012
     19 H3          0.2754    1.4229   -2.1207 H         1 <0>         0.0904
     20 H4          0.0679    2.1888   -0.5274 H         1 <0>         0.1140
     21 H5         -0.4570    1.1665    1.7177 H         1 <0>         0.1372
     22 H6         -1.7722    2.0811    3.5825 H         1 <0>         0.1497
     23 H7         -4.2279    1.9450    3.5469 H         1 <0>         0.1496
     24 H8         -4.0915   -0.0181   -0.2371 H         1 <0>         0.1503
     25 H9          0.1446   -1.1419   -2.1485 H         1 <0>         0.4325
     26 H10        -1.4734   -2.5850   -1.2175 H         1 <0>         0.0957
     27 H11        -1.0108   -3.6427    0.1374 H         1 <0>         0.1075
     28 H12        -1.3341   -1.9163    0.4262 H         1 <0>         0.0751
     29 H13         2.2367   -3.2256   -1.5245 H         1 <0>         0.0843
     30 H14         1.1072   -4.3863   -0.7860 H         1 <0>         0.1085
     31 H15         0.6663   -3.5531   -2.2959 H         1 <0>         0.0841
     32 H16         0.7467   -1.4712    1.4372 H         1 <0>         0.0803
     33 H17         1.3235   -3.1495    1.2994 H         1 <0>         0.1102
     34 H18         2.2946   -1.8168    0.6292 H         1 <0>         0.0856
     35 H19         1.6286   -0.8717   -1.4855 H         1 <0>         0.4323
@<TRIPOS>BOND
     1    1    2 1
     2    1   18 1
     3    1   19 1
     4    1   20 1
     5    2    3 1
     6    2    4 1
     7    2   13 1
     8    4    5 2
     9    4    6 1
    10    6   11 ar
    11    6    7 ar
    12    7    8 ar
    13    7   21 1
    14    8    9 ar
    15    8   22 1
    16    9   10 ar
    17    9   23 1
    18   10   11 ar
    19   10   12 1
    20   11   24 1
    21   13   14 1
    22   13   25 1
    23   13   35 1
    24   14   15 1
    25   14   16 1
    26   14   17 1
    27   15   26 1
    28   15   27 1
    29   15   28 1
    30   16   29 1
    31   16   30 1
    32   16   31 1
    33   17   32 1
    34   17   33 1
    35   17   34 1
@<TRIPOS>MOLECULE
ZINC00057206
   35    35     0     0     0
SMALL
USER_CHARGES

@<TRIPOS>ATOM
      1 C1         -1.0566    1.7774    0.2550 C.3       1 <0>        -0.1783
      2 C2         -0.6245    0.3105    0.2053 C.3       1 <0>        -0.0286
      3 H1          0.0304    0.0958    1.0498 H         1 <0>         0.1678
      4 C3          0.1133    0.0475   -1.0821 C.2       1 <0>         0.4019
      5 O1         -0.4852   -0.3742   -2.0486 O.2       1 <0>        -0.4253
      6 C4          1.5603    0.3025   -1.1663 C.ar      1 <0>        -0.1736
      7 C5          2.2552    0.7834   -0.0517 C.ar      1 <0>        -0.0746
      8 C6          3.6108    1.0196   -0.1376 C.ar      1 <0>        -0.1099
      9 C7          4.2848    0.7826   -1.3230 C.ar      1 <0>        -0.0584
     10 C8          3.6044    0.3069   -2.4315 C.ar      1 <0>        -0.0459
     11 C9          2.2483    0.0597   -2.3590 C.ar      1 <0>        -0.0404
     12 Cl1         4.4602    0.0138   -3.9131 Cl        1 <0>        -0.0379
     13 N1         -1.8114   -0.5523    0.2745 N.4       1 <0>        -0.4958
     14 C10        -1.4010   -1.9245    0.6007 C.3       1 <0>         0.0512
     15 C11        -0.5797   -1.9180    1.8916 C.3       1 <0>        -0.1794
     16 C12        -2.6435   -2.7968    0.7912 C.3       1 <0>        -0.1744
     17 C13        -0.5524   -2.4880   -0.5408 C.3       1 <0>        -0.1841
     18 H2         -0.1735    2.4153    0.2893 H         1 <0>         0.1148
     19 H3         -1.6416    2.0141   -0.6337 H         1 <0>         0.0904
     20 H4         -1.6627    1.9476    1.1449 H         1 <0>         0.0998
     21 H5          1.7310    0.9697    0.8740 H         1 <0>         0.1371
     22 H6          4.1483    1.3909    0.7224 H         1 <0>         0.1497
     23 H7          5.3467    0.9699   -1.3840 H         1 <0>         0.1496
     24 H8          1.7194   -0.3158   -3.2225 H         1 <0>         0.1502
     25 H9         -2.4356   -0.2090    0.9892 H         1 <0>         0.4320
     26 H10        -1.1168   -1.3636    2.6612 H         1 <0>         0.0853
     27 H11        -0.4207   -2.9430    2.2263 H         1 <0>         0.1102
     28 H12         0.3836   -1.4425    1.7069 H         1 <0>         0.0808
     29 H13        -3.2286   -2.8015   -0.1284 H         1 <0>         0.0840
     30 H14        -2.3389   -3.8150    1.0333 H         1 <0>         0.1085
     31 H15        -3.2480   -2.3953    1.6045 H         1 <0>         0.0842
     32 H16         0.4048   -1.9676   -0.5732 H         1 <0>         0.0744
     33 H17        -0.3821   -3.5520   -0.3760 H         1 <0>         0.1069
     34 H18        -1.0753   -2.3460   -1.4866 H         1 <0>         0.0951
     35 H19        -2.2845   -0.5456   -0.6167 H         1 <0>         0.4325
@<TRIPOS>BOND
     1    1    2 1
     2    1   18 1
     3    1   19 1
     4    1   20 1
     5    2    3 1
     6    2    4 1
     7    2   13 1
     8    4    5 2
     9    4    6 1
    10    6   11 ar
    11    6    7 ar
    12    7    8 ar
    13    7   21 1
    14    8    9 ar
    15    8   22 1
    16    9   10 ar
    17    9   23 1
    18   10   11 ar
    19   10   12 1
    20   11   24 1
    21   13   14 1
    22   13   25 1
    23   13   35 1
    24   14   15 1
    25   14   16 1
    26   14   17 1
    27   15   26 1
    28   15   27 1
    29   15   28 1
    30   16   29 1
    31   16   30 1
    32   16   31 1
    33   17   32 1
    34   17   33 1
    35   17   34 1
