@<TRIPOS>MOLECULE
ZINC13781097
   48    48     0     0     0
SMALL
USER_CHARGES
(2S)-2-[(2S)-8-(2,4-dichlorophenyl)-2-hydroxy-octyl]-2-hydroxy-butanedioic acid
@<TRIPOS>ATOM
      1 C1          1.2082   -0.6795   -0.0131 C.ar      1 <0>        -0.1031
      2 C2          0.0021   -0.0041    0.0020 C.ar      1 <0>        -0.0936
      3 C3         -0.0167    1.3778    0.0096 C.ar      1 <0>        -0.0594
      4 C4          1.1720    2.0862    0.0021 C.ar      1 <0>        -0.0256
      5 C5          2.3790    1.4110   -0.0130 C.ar      1 <0>        -0.1014
      6 C6          2.3972    0.0276   -0.0206 C.ar      1 <0>        -0.0331
      7 Cl1         3.9117   -0.8207   -0.0390 Cl        1 <0>        -0.0644
      8 Cl2         1.1483    3.8220    0.0110 Cl        1 <0>        -0.0496
      9 C7         -1.3319    2.1133    0.0198 C.3       1 <0>        -0.0888
     10 C8         -1.6481    2.5731    1.4444 C.3       1 <0>        -0.1135
     11 C9         -2.9834    3.3199    1.4548 C.3       1 <0>        -0.1186
     12 C10        -3.2996    3.7797    2.8794 C.3       1 <0>        -0.1171
     13 C11        -4.6349    4.5264    2.8898 C.3       1 <0>        -0.1155
     14 C12        -4.9511    4.9863    4.3144 C.3       1 <0>        -0.1472
     15 C13        -6.2864    5.7330    4.3248 C.3       1 <0>         0.1149
     16 H1         -7.0602    5.0998    3.8907 H         1 <0>         0.1025
     17 C14        -6.6634    6.0839    5.7655 C.3       1 <0>        -0.1588
     18 C15        -8.0552    6.7188    5.7883 C.3       1 <0>         0.1081
     19 C16        -8.4322    7.0697    7.2290 C.3       1 <0>        -0.1674
     20 C17        -9.8492    7.5811    7.2672 C.2       1 <0>         0.4604
     21 O1        -10.4917    7.6573    6.2467 O.co2     1 <0>        -0.5912
     22 C18        -9.0606    5.7456    5.2288 C.2       1 <0>         0.5093
     23 O2         -9.7062    6.0394    4.2506 O.co2     1 <0>        -0.6090
     24 O3         -8.0497    7.9071    4.9945 O.3       1 <0>        -0.5082
     25 O4         -6.1671    6.9329    3.5579 O.3       1 <0>        -0.5375
     26 H2          1.2222   -1.7594   -0.0194 H         1 <0>         0.1391
     27 H3         -0.9259   -0.5565    0.0075 H         1 <0>         0.1435
     28 H4          3.3070    1.9635   -0.0193 H         1 <0>         0.1423
     29 H5         -1.2679    2.9813   -0.6363 H         1 <0>         0.0824
     30 H6         -2.1221    1.4497   -0.3315 H         1 <0>         0.0803
     31 H7         -1.7121    1.7051    2.1006 H         1 <0>         0.0631
     32 H8         -0.8580    3.2367    1.7958 H         1 <0>         0.0654
     33 H9         -2.9194    4.1879    0.7986 H         1 <0>         0.0626
     34 H10        -3.7735    2.6563    1.1034 H         1 <0>         0.0635
     35 H11        -3.3636    2.9117    3.5356 H         1 <0>         0.0585
     36 H12        -2.5094    4.4433    3.2308 H         1 <0>         0.0566
     37 H13        -4.5709    5.3945    2.2336 H         1 <0>         0.0663
     38 H14        -5.4250    3.8629    2.5384 H         1 <0>         0.0621
     39 H15        -5.0151    4.1183    4.9706 H         1 <0>         0.0666
     40 H16        -4.1609    5.6499    4.6658 H         1 <0>         0.0551
     41 H17        -6.6675    5.1775    6.3710 H         1 <0>         0.0765
     42 H18        -5.9362    6.7878    6.1702 H         1 <0>         0.0442
     43 H19        -8.3502    6.1797    7.8530 H         1 <0>         0.0674
     44 H20        -7.7578    7.8396    7.6039 H         1 <0>         0.0434
     45 H21        -7.4243    8.5795    5.2974 H         1 <0>         0.3268
     46 H22        -5.4952    7.5452    3.8877 H         1 <0>         0.3500
     47 O5        -10.3976    7.9522    8.4348 O.co2     1 <0>        -0.8128
     48 O6         -9.2389    4.5523    5.8171 O.co2     1 <0>        -0.7949
@<TRIPOS>BOND
     1    1    6 ar
     2    1    2 ar
     3    1   26 1
     4    2    3 ar
     5    2   27 1
     6    3    4 ar
     7    3    9 1
     8    4    5 ar
     9    4    8 1
    10    5    6 ar
    11    5   28 1
    12    6    7 1
    13    9   10 1
    14    9   29 1
    15    9   30 1
    16   10   11 1
    17   10   31 1
    18   10   32 1
    19   11   12 1
    20   11   33 1
    21   11   34 1
    22   12   13 1
    23   12   35 1
    24   12   36 1
    25   13   14 1
    26   13   37 1
    27   13   38 1
    28   14   15 1
    29   14   39 1
    30   14   40 1
    31   15   16 1
    32   15   17 1
    33   15   25 1
    34   17   18 1
    35   17   41 1
    36   17   42 1
    37   18   19 1
    38   18   22 1
    39   18   24 1
    40   19   20 1
    41   19   43 1
    42   19   44 1
    43   20   21 2
    44   20   47 1
    45   22   23 2
    46   22   48 1
    47   24   45 1
    48   25   46 1
@<TRIPOS>MOLECULE
ZINC28951410
   41    43     0     0     0
SMALL
USER_CHARGES

@<TRIPOS>ATOM
      1 C1          0.5243    1.3906   -0.2432 C.3       1 <0>         0.0292
      2 O1          0.3867   -0.0311   -0.2003 O.3       1 <0>        -0.3022
      3 C2          0.8549   -0.7292   -1.2691 C.ar      1 <0>         0.1141
      4 C3          1.4389   -0.0583   -2.3321 C.ar      1 <0>        -0.1885
      5 C4          1.9154   -0.7631   -3.4191 C.ar      1 <0>        -0.0918
      6 C5          1.8110   -2.1525   -3.4504 C.ar      1 <0>        -0.0595
      7 C6          1.2249   -2.8296   -2.3829 C.ar      1 <0>        -0.1287
      8 C7          0.7522   -2.1193   -1.2919 C.ar      1 <0>         0.1544
      9 N1          0.1671   -2.7962   -0.2154 N.pl3     1 <0>        -1.0400
     10 S1         -0.7436   -4.1525   -0.4866 S.o2      1 <0>         2.7140
     11 O2          0.0632   -5.0372   -1.2518 O.2       1 <0>        -0.9864
     12 O3         -1.3036   -4.5228    0.7658 O.2       1 <0>        -0.9507
     13 C8         -2.0899   -3.6780   -1.5196 C.ar      1 <0>        -0.8011
     14 C9         -2.2002   -4.1995   -2.7946 C.ar      1 <0>         0.0463
     15 C10        -3.2565   -3.8273   -3.6066 C.ar      1 <0>        -0.1659
     16 C11        -4.2051   -2.9320   -3.1444 C.ar      1 <0>        -0.0191
     17 C12        -4.0985   -2.4080   -1.8699 C.ar      1 <0>        -0.1488
     18 C13        -3.0422   -2.7855   -1.0516 C.ar      1 <0>         0.3541
     19 O4         -2.9383   -2.2757    0.2044 O.3       1 <0>        -0.6458
     20 Cl1        -5.2882   -1.2845   -1.2901 Cl        1 <0>        -0.0882
     21 Cl2        -3.3919   -4.4838   -5.2080 Cl        1 <0>        -0.1039
     22 C14         2.3230   -2.9097   -4.6191 C.ar      1 <0>        -0.0299
     23 C15         2.2142   -4.2985   -4.6547 C.ar      1 <0>        -0.1099
     24 C16         2.6917   -4.9977   -5.7446 C.ar      1 <0>        -0.1154
     25 C17         3.2777   -4.3225   -6.8001 C.ar      1 <0>        -0.1269
     26 C18         3.3887   -2.9441   -6.7698 C.ar      1 <0>        -0.1214
     27 C19         2.9091   -2.2342   -5.6878 C.ar      1 <0>        -0.1159
     28 H1          1.5796    1.6512   -0.3238 H         1 <0>         0.0516
     29 H2         -0.0135    1.7817   -1.1069 H         1 <0>         0.0546
     30 H3          0.1117    1.8233    0.6682 H         1 <0>         0.0987
     31 H4          1.5208    1.0184   -2.3101 H         1 <0>         0.1316
     32 H5          2.3693   -0.2374   -4.2462 H         1 <0>         0.1269
     33 H6          1.1427   -3.9063   -2.4045 H         1 <0>         0.1705
     34 H7          0.2951   -2.4709    0.6894 H         1 <0>         0.4265
     35 H8         -1.4608   -4.8981   -3.1575 H         1 <0>         0.1289
     36 H9         -5.0288   -2.6423   -3.7799 H         1 <0>         0.1209
     37 H10         1.7575   -4.8267   -3.8308 H         1 <0>         0.1348
     38 H11         2.6080   -6.0741   -5.7732 H         1 <0>         0.1228
     39 H12         3.6504   -4.8737   -7.6508 H         1 <0>         0.1180
     40 H13         3.8475   -2.4220   -7.5965 H         1 <0>         0.1193
     41 H14         2.9918   -1.1575   -5.6673 H         1 <0>         0.1229
@<TRIPOS>BOND
     1    1    2 1
     2    1   28 1
     3    1   29 1
     4    1   30 1
     5    2    3 1
     6    3    8 ar
     7    3    4 ar
     8    4    5 ar
     9    4   31 1
    10    5    6 ar
    11    5   32 1
    12    6    7 ar
    13    6   22 1
    14    7    8 ar
    15    7   33 1
    16    8    9 1
    17    9   10 1
    18    9   34 1
    19   10   11 2
    20   10   12 2
    21   10   13 1
    22   13   18 ar
    23   13   14 ar
    24   14   15 ar
    25   14   35 1
    26   15   16 ar
    27   15   21 1
    28   16   17 ar
    29   16   36 1
    30   17   18 ar
    31   17   20 1
    32   18   19 1
    33   22   27 ar
    34   22   23 ar
    35   23   24 ar
    36   23   37 1
    37   24   25 ar
    38   24   38 1
    39   25   26 ar
    40   25   39 1
    41   26   27 ar
    42   26   40 1
    43   27   41 1
@<TRIPOS>MOLECULE
ZINC28951410
   42    44     0     0     0
SMALL
USER_CHARGES

@<TRIPOS>ATOM
      1 C1          0.6721    1.1157   -1.0400 C.3       1 <0>         0.0250
      2 O1          0.5215   -0.2796   -0.7707 O.3       1 <0>        -0.3125
      3 C2         -0.7365   -0.7903   -0.8446 C.ar      1 <0>         0.1164
      4 C3         -1.8002    0.0347   -1.1750 C.ar      1 <0>        -0.1746
      5 C4         -3.0789   -0.4797   -1.2511 C.ar      1 <0>        -0.0817
      6 C5         -3.3039   -1.8312   -0.9961 C.ar      1 <0>        -0.0419
      7 C6         -2.2363   -2.6630   -0.6642 C.ar      1 <0>        -0.1330
      8 C7         -0.9541   -2.1443   -0.5936 C.ar      1 <0>         0.1402
      9 N1          0.1216   -2.9775   -0.2652 N.pl3     1 <0>        -1.0439
     10 S1          0.1415   -4.5487   -0.7881 S.o2      1 <0>         2.6955
     11 O2         -0.2355   -4.5256   -2.1580 O.2       1 <0>        -0.9302
     12 O3          1.3704   -5.1084   -0.3455 O.2       1 <0>        -0.9203
     13 C8         -1.1386   -5.4004    0.0723 C.ar      1 <0>        -0.6915
     14 C9         -2.1954   -5.9500   -0.6284 C.ar      1 <0>        -0.0024
     15 C10        -3.2013   -6.6184    0.0462 C.ar      1 <0>        -0.0556
     16 C11        -3.1518   -6.7385    1.4239 C.ar      1 <0>        -0.0301
     17 C12        -2.0967   -6.1904    2.1286 C.ar      1 <0>        -0.0718
     18 C13        -1.0833   -5.5245    1.4522 C.ar      1 <0>         0.2283
     19 O4         -0.0416   -4.9893    2.1425 O.3       1 <0>        -0.4722
     20 Cl1        -2.0349   -6.3405    3.8570 Cl        1 <0>        -0.0240
     21 Cl2        -4.5278   -7.3072   -0.8369 Cl        1 <0>        -0.0312
     22 C14        -4.6784   -2.3836   -1.0775 C.ar      1 <0>        -0.0432
     23 C15        -4.9062   -3.7336   -0.8173 C.ar      1 <0>        -0.1142
     24 C16        -6.1870   -4.2420   -0.8940 C.ar      1 <0>        -0.1120
     25 C17        -7.2435   -3.4143   -1.2289 C.ar      1 <0>        -0.1164
     26 C18        -7.0231   -2.0737   -1.4887 C.ar      1 <0>        -0.1140
     27 C19        -5.7474   -1.5532   -1.4089 C.ar      1 <0>        -0.1090
     28 H1          1.7223    1.3924   -0.9471 H         1 <0>         0.1045
     29 H2          0.3281    1.3297   -2.0519 H         1 <0>         0.0597
     30 H3          0.0808    1.6893   -0.3263 H         1 <0>         0.0588
     31 H4         -1.6282    1.0824   -1.3730 H         1 <0>         0.1408
     32 H5         -3.9057    0.1658   -1.5080 H         1 <0>         0.1364
     33 H6         -2.4079   -3.7107   -0.4661 H         1 <0>         0.1328
     34 H7          0.8553   -2.6347    0.2686 H         1 <0>         0.4338
     35 H8         -2.2362   -5.8572   -1.7036 H         1 <0>         0.1695
     36 H9         -3.9383   -7.2604    1.9488 H         1 <0>         0.1615
     37 H10        -4.0819   -4.3808   -0.5564 H         1 <0>         0.1154
     38 H11        -6.3646   -5.2880   -0.6925 H         1 <0>         0.1235
     39 H12        -8.2441   -3.8164   -1.2882 H         1 <0>         0.1239
     40 H13        -7.8516   -1.4320   -1.7501 H         1 <0>         0.1259
     41 H14        -5.5771   -0.5053   -1.6071 H         1 <0>         0.1270
     42 H15        -0.1992   -4.0883    2.4563 H         1 <0>         0.4066
@<TRIPOS>BOND
     1    1    2 1
     2    1   28 1
     3    1   29 1
     4    1   30 1
     5    2    3 1
     6    3    8 ar
     7    3    4 ar
     8    4    5 ar
     9    4   31 1
    10    5    6 ar
    11    5   32 1
    12    6    7 ar
    13    6   22 1
    14    7    8 ar
    15    7   33 1
    16    8    9 1
    17    9   10 1
    18    9   34 1
    19   10   11 2
    20   10   12 2
    21   10   13 1
    22   13   18 ar
    23   13   14 ar
    24   14   15 ar
    25   14   35 1
    26   15   16 ar
    27   15   21 1
    28   16   17 ar
    29   16   36 1
    30   17   18 ar
    31   17   20 1
    32   18   19 1
    33   19   42 1
    34   22   27 ar
    35   22   23 ar
    36   23   24 ar
    37   23   37 1
    38   24   25 ar
    39   24   38 1
    40   25   26 ar
    41   25   39 1
    42   26   27 ar
    43   26   40 1
    44   27   41 1
@<TRIPOS>MOLECULE
ZINC01656421
   19    18     0     0     0
SMALL
USER_CHARGES

@<TRIPOS>ATOM
      1 C1         -0.0184    1.5028    0.0103 C.3       1 <0>        -0.1814
      2 C2          0.0021   -0.0041    0.0020 C.2       1 <0>         0.4902
      3 O1          1.0661   -0.5992   -0.0113 O.co2     1 <0>        -0.6450
      4 O2         -1.0454   -0.6280    0.0087 O.co2     1 <0>        -0.7567
      5 C3          1.4170    2.0324   -0.0006 C.3       1 <0>         0.0727
      6 C4          1.3994    3.5564    0.1335 C.3       1 <0>         0.0183
      7 H1          0.9171    3.8331    1.0711 H         1 <0>         0.0879
      8 C5          2.8132    4.0780    0.1228 C.2       1 <0>         0.4877
      9 O3          3.1937    4.7892   -0.7915 O.co2     1 <0>        -0.7313
     10 O4          3.5765    3.7888    1.0285 O.co2     1 <0>        -0.6689
     11 O5          0.6745    4.1224   -0.9602 O.3       1 <0>        -0.5738
     12 C6          2.1814    1.4354    1.1529 C.2       1 <0>         0.5721
     13 O6          3.1755    0.7618    0.9419 O.co2     1 <0>        -0.6781
     14 O7          1.8058    1.6261    2.2970 O.co2     1 <0>        -0.7346
     15 O8          2.0493    1.6696   -1.2297 O.3       1 <0>        -0.5137
     16 H2         -0.5455    1.8639   -0.8728 H         1 <0>         0.0349
     17 H3         -0.5286    1.8543    0.9071 H         1 <0>         0.0518
     18 H4          1.0480    3.9166   -1.8281 H         1 <0>         0.3542
     19 H5          1.6098    2.0202   -2.0165 H         1 <0>         0.3135
@<TRIPOS>BOND
     1    1    2 1
     2    1    5 1
     3    1   16 1
     4    1   17 1
     5    2    3 2
     6    2    4 1
     7    5    6 1
     8    5   12 1
     9    5   15 1
    10    6    7 1
    11    6    8 1
    12    6   11 1
    13    8    9 2
    14    8   10 1
    15   11   18 1
    16   12   13 2
    17   12   14 1
    18   15   19 1
