@<TRIPOS>MOLECULE
ZINC21986186
   54    57     0     0     0
SMALL
USER_CHARGES

@<TRIPOS>ATOM
      1 C1          0.0365    1.4099   -0.0220 C.ar      1 <0>        -0.0835
      2 C2          1.2297    2.1079   -0.0263 C.ar      1 <0>        -0.1123
      3 C3          2.4307    1.4236   -0.0349 C.ar      1 <0>        -0.0937
      4 C4          2.4386    0.0413   -0.0389 C.ar      1 <0>        -0.1622
      5 C5          1.2455   -0.6567   -0.0337 C.ar      1 <0>        -0.0977
      6 C6          0.0444    0.0276   -0.0265 C.ar      1 <0>        -0.1132
      7 C7          3.7480   -0.7047   -0.0493 C.3       1 <0>         0.0437
      8 N1          4.1823   -0.9510    1.3322 N.4       1 <0>        -0.3840
      9 C8          3.2226   -1.8433    1.9935 C.3       1 <0>        -0.0126
     10 C9          3.6261   -2.0384    3.4566 C.3       1 <0>        -0.1712
     11 C10         5.0257   -2.6572    3.5162 C.3       1 <0>        -0.0875
     12 C11         6.0047   -1.7549    2.7594 C.3       1 <0>        -0.1806
     13 C12         5.5130   -1.5703    1.3222 C.3       1 <0>        -0.0054
     14 C13         5.4683   -2.7818    4.9755 C.3       1 <0>        -0.0244
     15 C14         4.4264   -3.5867    5.7596 C.3       1 <0>        -0.1224
     16 C15         4.3871   -5.0120    5.1981 C.3       1 <0>        -0.1451
     17 C16         5.7714   -5.6023    5.2508 C.2       1 <0>         0.5169
     18 O1          5.9020   -6.8014    5.3723 O.2       1 <0>        -0.4843
     19 N2          6.8629   -4.8272    5.1655 N.am      1 <0>        -0.6745
     20 C17         6.7938   -3.4934    5.0403 C.2       1 <0>         0.5281
     21 O2          7.8183   -2.8484    4.9782 O.2       1 <0>        -0.4755
     22 C18         5.6041   -1.4079    5.5796 C.ar      1 <0>        -0.0672
     23 C19         5.2278   -0.2933    4.8536 C.ar      1 <0>        -0.1484
     24 C20         5.3525    0.9670    5.4078 C.ar      1 <0>        -0.1164
     25 C21         5.8530    1.1126    6.6881 C.ar      1 <0>        -0.1064
     26 C22         6.2285   -0.0020    7.4144 C.ar      1 <0>        -0.1006
     27 C23         6.0998   -1.2626    6.8618 C.ar      1 <0>        -0.0968
     28 H1         -0.9018    1.9445   -0.0107 H         1 <0>         0.1359
     29 H2          1.2235    3.1879   -0.0232 H         1 <0>         0.1363
     30 H3          3.3629    1.9690   -0.0390 H         1 <0>         0.1313
     31 H4          1.2516   -1.7367   -0.0371 H         1 <0>         0.1310
     32 H5         -0.8878   -0.5178   -0.0228 H         1 <0>         0.1362
     33 H6          3.6198   -1.6564   -0.5650 H         1 <0>         0.1364
     34 H7          4.5010   -0.1098   -0.5663 H         1 <0>         0.1380
     35 H8          2.2265   -1.4031    1.9474 H         1 <0>         0.1371
     36 H9          3.2160   -2.8085    1.4871 H         1 <0>         0.1309
     37 H10         3.6327   -1.0737    3.9640 H         1 <0>         0.1187
     38 H11         2.9134   -2.7026    3.9453 H         1 <0>         0.1227
     39 H12         5.0079   -3.6441    3.0540 H         1 <0>         0.1004
     40 H13         6.0607   -0.7843    3.2524 H         1 <0>         0.1244
     41 H14         6.9921   -2.2165    2.7499 H         1 <0>         0.1180
     42 H15         5.4576   -2.5413    0.8301 H         1 <0>         0.1305
     43 H16         6.2078   -0.9286    0.7805 H         1 <0>         0.1357
     44 H17         4.7037   -3.6160    6.8134 H         1 <0>         0.0916
     45 H18         3.4463   -3.1226    5.6491 H         1 <0>         0.1049
     46 H19         3.7086   -5.6205    5.7959 H         1 <0>         0.1250
     47 H20         4.0409   -4.9870    4.1648 H         1 <0>         0.1114
     48 H21         7.7365   -5.2477    5.1956 H         1 <0>         0.4189
     49 H22         4.8368   -0.4071    3.8534 H         1 <0>         0.1335
     50 H23         5.0592    1.8378    4.8403 H         1 <0>         0.1269
     51 H24         5.9511    2.0973    7.1208 H         1 <0>         0.1299
     52 H25         6.6198    0.1118    8.4145 H         1 <0>         0.1310
     53 H26         6.3896   -2.1337    7.4307 H         1 <0>         0.1207
     54 H27         4.2237   -0.0754    1.8319 H         1 <0>         0.4201
@<TRIPOS>BOND
     1    1    6 ar
     2    1    2 ar
     3    1   28 1
     4    2    3 ar
     5    2   29 1
     6    3    4 ar
     7    3   30 1
     8    4    5 ar
     9    4    7 1
    10    5    6 ar
    11    5   31 1
    12    6   32 1
    13    7    8 1
    14    7   33 1
    15    7   34 1
    16    8   13 1
    17    8    9 1
    18    8   54 1
    19    9   10 1
    20    9   35 1
    21    9   36 1
    22   10   11 1
    23   10   37 1
    24   10   38 1
    25   11   12 1
    26   11   14 1
    27   11   39 1
    28   12   13 1
    29   12   40 1
    30   12   41 1
    31   13   42 1
    32   13   43 1
    33   14   20 1
    34   14   15 1
    35   14   22 1
    36   15   16 1
    37   15   44 1
    38   15   45 1
    39   16   17 1
    40   16   46 1
    41   16   47 1
    42   17   18 2
    43   17   19 am
    44   19   20 am
    45   19   48 1
    46   20   21 2
    47   22   27 ar
    48   22   23 ar
    49   23   24 ar
    50   23   49 1
    51   24   25 ar
    52   24   50 1
    53   25   26 ar
    54   25   51 1
    55   26   27 ar
    56   26   52 1
    57   27   53 1
@<TRIPOS>MOLECULE
ZINC00968311
   44    46     0     0     0
SMALL
USER_CHARGES
1-(1-phenylcyclohexyl)piperidine
@<TRIPOS>ATOM
      1 C1         -6.8504    0.6158   -1.3000 C.ar      1 <0>        -0.0983
      2 C2         -5.9618   -0.3997   -1.0001 C.ar      1 <0>        -0.0987
      3 C3         -4.6847   -0.0953   -0.5672 C.ar      1 <0>        -0.0916
      4 C4         -4.2963    1.2246   -0.4342 C.ar      1 <0>        -0.1122
      5 C5         -5.1866    2.2402   -0.7291 C.ar      1 <0>        -0.1651
      6 C6         -6.4619    1.9358   -1.1669 C.ar      1 <0>        -0.1010
      7 C7         -2.9042    1.5565    0.0381 C.3       1 <0>         0.1193
      8 C8         -1.8862    0.7425   -0.7631 C.3       1 <0>        -0.1361
      9 C9         -0.4729    1.0794   -0.2835 C.3       1 <0>        -0.1341
     10 C10        -0.3434    0.7376    1.2022 C.3       1 <0>        -0.1320
     11 C11        -1.3614    1.5516    2.0034 C.3       1 <0>        -0.1367
     12 C12        -2.7747    1.2147    1.5238 C.3       1 <0>        -0.1352
     13 C13        -3.4122    3.7968    0.8019 C.3       1 <0>        -0.0359
     14 C14        -3.0128    5.2678    0.6650 C.3       1 <0>        -0.1453
     15 C15        -3.2968    5.7378   -0.7643 C.3       1 <0>        -0.1398
     16 C16        -2.5281    4.8504   -1.7473 C.3       1 <0>        -0.1447
     17 C17        -2.9415    3.3915   -1.5404 C.3       1 <0>        -0.0394
     18 H1         -7.8482    0.3780   -1.6378 H         1 <0>         0.1358
     19 H2         -6.2654   -1.4310   -1.1036 H         1 <0>         0.1373
     20 H3         -3.9906   -0.8888   -0.3326 H         1 <0>         0.1331
     21 H4         -4.8845    3.2714   -0.6209 H         1 <0>         0.1421
     22 H5         -7.1563    2.7292   -1.4009 H         1 <0>         0.1351
     23 H6         -1.9784    0.9860   -1.8215 H         1 <0>         0.0898
     24 H7         -2.0755   -0.3209   -0.6171 H         1 <0>         0.1120
     25 H8         -0.2835    2.1429   -0.4295 H         1 <0>         0.0554
     26 H9          0.2524    0.4995   -0.8543 H         1 <0>         0.0955
     27 H10        -0.5328   -0.3259    1.3482 H         1 <0>         0.0810
     28 H11         0.6635    0.9776    1.5438 H         1 <0>         0.0819
     29 H12        -1.2692    1.3081    3.0618 H         1 <0>         0.0942
     30 H13        -1.1721    2.6150    1.8574 H         1 <0>         0.0570
     31 H14        -3.5000    1.7946    2.0946 H         1 <0>         0.0914
     32 H15        -2.9641    0.1512    1.6698 H         1 <0>         0.1109
     33 H16        -4.4780    3.6896    0.6004 H         1 <0>         0.1454
     34 H17        -3.1980    3.4551    1.8145 H         1 <0>         0.1336
     35 H18        -1.9499    5.3779    0.8798 H         1 <0>         0.0864
     36 H19        -3.5902    5.8691    1.3673 H         1 <0>         0.1130
     37 H20        -2.9737    6.7726   -0.8785 H         1 <0>         0.0959
     38 H21        -4.3653    5.6654   -0.9671 H         1 <0>         0.0810
     39 H22        -1.4576    4.9538   -1.5704 H         1 <0>         0.0851
     40 H23        -2.7597    5.1530   -2.7685 H         1 <0>         0.1123
     41 H24        -2.3855    2.7553   -2.2290 H         1 <0>         0.1276
     42 H25        -4.0096    3.2863   -1.7309 H         1 <0>         0.1542
     43 N1         -2.6198    2.9937   -0.1533 N.4       1 <0>        -0.3833
     44 H26        -1.6215    3.1617    0.0183 H         1 <0>         0.4232
@<TRIPOS>BOND
     1    1    6 ar
     2    1    2 ar
     3    1   18 1
     4    2    3 ar
     5    2   19 1
     6    3    4 ar
     7    3   20 1
     8    4    5 ar
     9    4    7 1
    10    5    6 ar
    11    5   21 1
    12    6   22 1
    13    7   12 1
    14    7    8 1
    15    7   43 1
    16    8    9 1
    17    8   23 1
    18    8   24 1
    19    9   10 1
    20    9   25 1
    21    9   26 1
    22   10   11 1
    23   10   27 1
    24   10   28 1
    25   11   12 1
    26   11   29 1
    27   11   30 1
    28   12   31 1
    29   12   32 1
    30   13   14 1
    31   13   33 1
    32   13   34 1
    33   13   43 1
    34   14   15 1
    35   14   35 1
    36   14   36 1
    37   15   16 1
    38   15   37 1
    39   15   38 1
    40   16   17 1
    41   16   39 1
    42   16   40 1
    43   17   41 1
    44   17   42 1
    45   17   43 1
    46   43   44 1
@<TRIPOS>MOLECULE
ZINC21986188
   54    57     0     0     0
SMALL
USER_CHARGES

@<TRIPOS>ATOM
      1 C1         -0.1779    1.5294    0.3297 C.ar      1 <0>        -0.0832
      2 C2          1.0347    2.1846    0.2246 C.ar      1 <0>        -0.1126
      3 C3          2.2076    1.4582    0.1374 C.ar      1 <0>        -0.0937
      4 C4          2.1678    0.0766    0.1558 C.ar      1 <0>        -0.1631
      5 C5          0.9553   -0.5787    0.2618 C.ar      1 <0>        -0.0975
      6 C6         -0.2177    0.1477    0.3475 C.ar      1 <0>        -0.1131
      7 C7          3.4464   -0.7154    0.0598 C.3       1 <0>         0.0444
      8 N1          3.9748   -0.9576    1.4089 N.4       1 <0>        -0.3844
      9 C8          3.0377   -1.8061    2.1547 C.3       1 <0>        -0.0110
     10 C9          3.5435   -1.9949    3.5865 C.3       1 <0>        -0.1764
     11 C10         4.9215   -2.6619    3.5515 C.3       1 <0>        -0.0883
     12 C11         5.8710   -1.8055    2.7088 C.3       1 <0>        -0.1753
     13 C12         5.2790   -1.6237    1.3096 C.3       1 <0>        -0.0066
     14 C13         5.4683   -2.7818    4.9755 C.3       1 <0>        -0.0246
     15 C14         6.8362   -3.4716    4.9424 C.3       1 <0>        -0.1217
     16 C15         6.6482   -4.9039    4.4311 C.3       1 <0>        -0.1452
     17 C16         5.6369   -5.6088    5.2960 C.2       1 <0>         0.5168
     18 O1          5.7105   -6.8105    5.4375 O.2       1 <0>        -0.4843
     19 N2          4.6565   -4.9326    5.9133 N.am      1 <0>        -0.6746
     20 C17         4.5211   -3.6020    5.8108 C.2       1 <0>         0.5282
     21 O2          3.6187   -3.0491    6.4021 O.2       1 <0>        -0.4758
     22 C18         5.6101   -1.4077    5.5778 C.ar      1 <0>        -0.0668
     23 C19         5.2382   -0.2925    4.8505 C.ar      1 <0>        -0.1478
     24 C20         5.3684    0.9680    5.4030 C.ar      1 <0>        -0.1161
     25 C21         5.8700    1.1132    6.6829 C.ar      1 <0>        -0.1062
     26 C22         6.2410   -0.0021    7.4105 C.ar      1 <0>        -0.1007
     27 C23         6.1068   -1.2628    6.8597 C.ar      1 <0>        -0.0991
     28 H1         -1.0939    2.0969    0.4023 H         1 <0>         0.1361
     29 H2          1.0657    3.2641    0.2103 H         1 <0>         0.1364
     30 H3          3.1549    1.9701    0.0546 H         1 <0>         0.1314
     31 H4          0.9242   -1.6581    0.2758 H         1 <0>         0.1306
     32 H5         -1.1651   -0.3642    0.4299 H         1 <0>         0.1362
     33 H6          3.2472   -1.6690   -0.4291 H         1 <0>         0.1363
     34 H7          4.1782   -0.1548   -0.5218 H         1 <0>         0.1385
     35 H8          2.0566   -1.3316    2.1760 H         1 <0>         0.1358
     36 H9          2.9600   -2.7774    1.6663 H         1 <0>         0.1297
     37 H10         3.6213   -1.0241    4.0761 H         1 <0>         0.1215
     38 H11         2.8472   -2.6267    4.1382 H         1 <0>         0.1158
     39 H12         4.8352   -3.6540    3.1083 H         1 <0>         0.1014
     40 H13         5.9972   -0.8307    3.1801 H         1 <0>         0.1220
     41 H14         6.8385   -2.3018    2.6331 H         1 <0>         0.1230
     42 H15         5.1536   -2.5989    0.8391 H         1 <0>         0.1318
     43 H16         5.9527   -1.0145    0.7069 H         1 <0>         0.1370
     44 H17         7.5038   -2.9287    4.2733 H         1 <0>         0.1047
     45 H18         7.2592   -3.4941    5.9468 H         1 <0>         0.0916
     46 H19         6.2925   -4.8792    3.4011 H         1 <0>         0.1118
     47 H20         7.5992   -5.4346    4.4764 H         1 <0>         0.1250
     48 H21         4.0205   -5.4253    6.4552 H         1 <0>         0.4187
     49 H22         4.8464   -0.4059    3.8505 H         1 <0>         0.1338
     50 H23         5.0785    1.8393    4.8345 H         1 <0>         0.1268
     51 H24         5.9723    2.0980    7.1143 H         1 <0>         0.1299
     52 H25         6.6332    0.1114    8.4104 H         1 <0>         0.1311
     53 H26         6.3932   -2.1344    7.4295 H         1 <0>         0.1217
     54 H27         4.0837   -0.0771    1.8894 H         1 <0>         0.4202
@<TRIPOS>BOND
     1    1    6 ar
     2    1    2 ar
     3    1   28 1
     4    2    3 ar
     5    2   29 1
     6    3    4 ar
     7    3   30 1
     8    4    5 ar
     9    4    7 1
    10    5    6 ar
    11    5   31 1
    12    6   32 1
    13    7    8 1
    14    7   33 1
    15    7   34 1
    16    8   13 1
    17    8    9 1
    18    8   54 1
    19    9   10 1
    20    9   35 1
    21    9   36 1
    22   10   11 1
    23   10   37 1
    24   10   38 1
    25   11   12 1
    26   11   14 1
    27   11   39 1
    28   12   13 1
    29   12   40 1
    30   12   41 1
    31   13   42 1
    32   13   43 1
    33   14   20 1
    34   14   15 1
    35   14   22 1
    36   15   16 1
    37   15   44 1
    38   15   45 1
    39   16   17 1
    40   16   46 1
    41   16   47 1
    42   17   18 2
    43   17   19 am
    44   19   20 am
    45   19   48 1
    46   20   21 2
    47   22   27 ar
    48   22   23 ar
    49   23   24 ar
    50   23   49 1
    51   24   25 ar
    52   24   50 1
    53   25   26 ar
    54   25   51 1
    55   26   27 ar
    56   26   52 1
    57   27   53 1
@<TRIPOS>MOLECULE
ZINC19632927
   48    51     0     0     0
SMALL
USER_CHARGES

@<TRIPOS>ATOM
      1 C1         -0.0178    1.4648    0.0101 C.3       1 <0>        -0.0455
      2 N1          0.0021   -0.0041    0.0020 N.4       1 <0>        -0.3894
      3 C2          0.6881   -0.4775   -1.2074 C.3       1 <0>        -0.0008
      4 C3          0.6925   -2.0076   -1.2257 C.3       1 <0>         0.0269
      5 N2          1.3783   -2.5070   -0.0254 N.3       1 <0>        -0.5225
      6 C4          0.7172   -2.0206    1.1938 C.3       1 <0>         0.0161
      7 C5          0.7125   -0.4904    1.1921 C.3       1 <0>         0.0015
      8 C6          1.4533   -3.9741   -0.0341 C.3       1 <0>         0.0426
      9 C7          2.3669   -4.4368    1.0715 C.2       1 <0>         0.5351
     10 O1          2.9027   -3.6245    1.7954 O.2       1 <0>        -0.4900
     11 N3          2.5885   -5.7534    1.2559 N.am      1 <0>        -0.5088
     12 C8          3.4268   -6.1930    2.2788 C.ar      1 <0>         0.1626
     13 C9          4.7558   -5.7953    2.3068 C.ar      1 <0>        -0.1029
     14 C10         5.5974   -6.2612    3.2975 C.ar      1 <0>        -0.0752
     15 C11         5.1221   -7.1293    4.2666 C.ar      1 <0>        -0.1148
     16 C12         3.8013   -7.5220    4.2622 C.ar      1 <0>        -0.0472
     17 C13         2.9321   -7.0440    3.2767 C.ar      1 <0>        -0.1388
     18 C14         1.5076   -7.3936    3.3274 C.2       1 <0>         0.5693
     19 O2          0.9941   -7.4628    4.4272 O.2       1 <0>        -0.5115
     20 N4          0.7308   -7.6402    2.2834 N.am      1 <0>        -0.6546
     21 C15         1.1049   -7.6466    0.9429 C.ar      1 <0>         0.1116
     22 C16         1.9766   -6.6982    0.4280 C.ar      1 <0>         0.3036
     23 N5          2.2523   -6.6867   -0.8690 N.ar      1 <0>        -0.4707
     24 C17         1.7527   -7.5835   -1.6967 C.ar      1 <0>         0.1138
     25 C18         0.9140   -8.5804   -1.2402 C.ar      1 <0>        -0.1334
     26 C19         0.5835   -8.6183    0.0940 C.ar      1 <0>        -0.0812
     27 H1          1.0047    1.8421    0.0024 H         1 <0>         0.1237
     28 H2         -0.5450    1.8259   -0.8730 H         1 <0>         0.1244
     29 H3         -0.5280    1.8163    0.9069 H         1 <0>         0.1243
     30 H4          0.1675   -0.1052   -2.0897 H         1 <0>         0.1384
     31 H5          1.7147   -0.1111   -1.2098 H         1 <0>         0.1397
     32 H6         -0.3339   -2.3742   -1.2371 H         1 <0>         0.0623
     33 H7          1.2146   -2.3592   -2.1156 H         1 <0>         0.1270
     34 H8         -0.3088   -2.3874    1.2222 H         1 <0>         0.0573
     35 H9          1.2573   -2.3817    2.0691 H         1 <0>         0.1369
     36 H10         1.7390   -0.1239    1.1774 H         1 <0>         0.1407
     37 H11         0.2100   -0.1276    2.0887 H         1 <0>         0.1368
     38 H12         0.4575   -4.3897    0.1196 H         1 <0>         0.0732
     39 H13         1.8441   -4.3122   -0.9938 H         1 <0>         0.1348
     40 H14         5.1327   -5.1207    1.5523 H         1 <0>         0.1352
     41 H15         6.6308   -5.9477    3.3166 H         1 <0>         0.1412
     42 H16         5.7903   -7.5006    5.0294 H         1 <0>         0.1426
     43 H17         3.4373   -8.1998    5.0202 H         1 <0>         0.1436
     44 H18        -0.1996   -7.8381    2.4737 H         1 <0>         0.4153
     45 H19         2.0029   -7.5372   -2.7463 H         1 <0>         0.1750
     46 H20         0.5246   -9.3217   -1.9223 H         1 <0>         0.1560
     47 H21        -0.0739   -9.3867    0.4732 H         1 <0>         0.1543
     48 H22        -0.9446   -0.3531    0.0097 H         1 <0>         0.4216
@<TRIPOS>BOND
     1    1    2 1
     2    1   27 1
     3    1   28 1
     4    1   29 1
     5    2    7 1
     6    2    3 1
     7    2   48 1
     8    3    4 1
     9    3   30 1
    10    3   31 1
    11    4    5 1
    12    4   32 1
    13    4   33 1
    14    5    6 1
    15    5    8 1
    16    6    7 1
    17    6   34 1
    18    6   35 1
    19    7   36 1
    20    7   37 1
    21    8    9 1
    22    8   38 1
    23    8   39 1
    24    9   10 2
    25    9   11 am
    26   11   22 1
    27   11   12 1
    28   12   17 ar
    29   12   13 ar
    30   13   14 ar
    31   13   40 1
    32   14   15 ar
    33   14   41 1
    34   15   16 ar
    35   15   42 1
    36   16   17 ar
    37   16   43 1
    38   17   18 1
    39   18   19 2
    40   18   20 am
    41   20   21 1
    42   20   44 1
    43   21   26 ar
    44   21   22 ar
    45   22   23 ar
    46   23   24 ar
    47   24   25 ar
    48   24   45 1
    49   25   26 ar
    50   25   46 1
    51   26   47 1
@<TRIPOS>MOLECULE
ZINC19632927
   48    51     0     0     0
SMALL
USER_CHARGES

@<TRIPOS>ATOM
      1 C1         -0.0178    1.4648    0.0101 C.3       1 <0>         0.0196
      2 N1          0.0021   -0.0041    0.0020 N.3       1 <0>        -0.5444
      3 C2          0.6054   -0.5158   -1.2366 C.3       1 <0>         0.0258
      4 C3          0.5529   -2.0452   -1.2320 C.3       1 <0>        -0.0018
      5 N2          1.2823   -2.5567   -0.0641 N.4       1 <0>        -0.3733
      6 C4          0.6533   -2.0570    1.1655 C.3       1 <0>        -0.0155
      7 C5          0.7065   -0.5278    1.1808 C.3       1 <0>         0.0300
      8 C6          1.2470   -4.0253   -0.0699 C.3       1 <0>        -0.0244
      9 C7          2.0969   -4.5526    1.0573 C.2       1 <0>         0.5235
     10 O1          2.6751   -3.7810    1.7931 O.2       1 <0>        -0.4949
     11 N3          2.2146   -5.8816    1.2479 N.am      1 <0>        -0.4846
     12 C8          2.9932   -6.3804    2.2906 C.ar      1 <0>         0.1484
     13 C9          4.3473   -6.0836    2.3497 C.ar      1 <0>        -0.1002
     14 C10         5.1280   -6.6089    3.3605 C.ar      1 <0>        -0.0741
     15 C11         4.5660   -7.4364    4.3187 C.ar      1 <0>        -0.1065
     16 C12         3.2199   -7.7288    4.2833 C.ar      1 <0>        -0.0453
     17 C13         2.4126   -7.1893    3.2772 C.ar      1 <0>        -0.1310
     18 C14         0.9650   -7.4308    3.2944 C.2       1 <0>         0.5660
     19 O2          0.4220   -7.4585    4.3818 O.2       1 <0>        -0.5020
     20 N4          0.1966   -7.6210    2.2325 N.am      1 <0>        -0.6563
     21 C15         0.6007   -7.6588    0.9012 C.ar      1 <0>         0.1240
     22 C16         1.5531   -6.7799    0.4064 C.ar      1 <0>         0.2781
     23 N5          1.8594   -6.7924   -0.8838 N.ar      1 <0>        -0.4751
     24 C17         1.3134   -7.6512   -1.7224 C.ar      1 <0>         0.1160
     25 C18         0.3916   -8.5811   -1.2851 C.ar      1 <0>        -0.1227
     26 C19         0.0278   -8.5907    0.0409 C.ar      1 <0>        -0.0791
     27 H1          1.0047    1.8421    0.0024 H         1 <0>         0.0402
     28 H2         -0.5450    1.8259   -0.8730 H         1 <0>         0.0841
     29 H3         -0.5280    1.8163    0.9069 H         1 <0>         0.0845
     30 H4          0.0516   -0.1355   -2.0950 H         1 <0>         0.1271
     31 H5          1.6430   -0.1877   -1.2984 H         1 <0>         0.0626
     32 H6         -0.4855   -2.3730   -1.1840 H         1 <0>         0.1398
     33 H7          1.0127   -2.4272   -2.1434 H         1 <0>         0.1394
     34 H8         -0.3857   -2.3847    1.2013 H         1 <0>         0.1346
     35 H9          1.1874   -2.4478    2.0316 H         1 <0>         0.1491
     36 H10         1.7458   -0.1998    1.1589 H         1 <0>         0.0634
     37 H11         0.2266   -0.1562    2.0862 H         1 <0>         0.1249
     38 H12         0.2194   -4.3646    0.0604 H         1 <0>         0.1577
     39 H13         1.6338   -4.3943   -1.0199 H         1 <0>         0.1742
     40 H14         4.7915   -5.4410    1.6039 H         1 <0>         0.1353
     41 H15         6.1812   -6.3738    3.4038 H         1 <0>         0.1444
     42 H16         5.1863   -7.8550    5.0974 H         1 <0>         0.1462
     43 H17         2.7883   -8.3754    5.0330 H         1 <0>         0.1472
     44 H18        -0.7502   -7.7480    2.4009 H         1 <0>         0.4187
     45 H19         1.5909   -7.6265   -2.7658 H         1 <0>         0.1794
     46 H20        -0.0363   -9.2928   -1.9757 H         1 <0>         0.1603
     47 H21        -0.6942   -9.3066    0.4050 H         1 <0>         0.1586
     48 H22         2.2406   -2.2435   -0.1027 H         1 <0>         0.4278
@<TRIPOS>BOND
     1    1    2 1
     2    1   27 1
     3    1   28 1
     4    1   29 1
     5    2    7 1
     6    2    3 1
     7    3    4 1
     8    3   30 1
     9    3   31 1
    10    4    5 1
    11    4   32 1
    12    4   33 1
    13    5    6 1
    14    5    8 1
    15    5   48 1
    16    6    7 1
    17    6   34 1
    18    6   35 1
    19    7   36 1
    20    7   37 1
    21    8    9 1
    22    8   38 1
    23    8   39 1
    24    9   10 2
    25    9   11 am
    26   11   22 1
    27   11   12 1
    28   12   17 ar
    29   12   13 ar
    30   13   14 ar
    31   13   40 1
    32   14   15 ar
    33   14   41 1
    34   15   16 ar
    35   15   42 1
    36   16   17 ar
    37   16   43 1
    38   17   18 1
    39   18   19 2
    40   18   20 am
    41   20   21 1
    42   20   44 1
    43   21   26 ar
    44   21   22 ar
    45   22   23 ar
    46   23   24 ar
    47   24   25 ar
    48   24   45 1
    49   25   26 ar
    50   25   46 1
    51   26   47 1
@<TRIPOS>MOLECULE
ZINC19632927
   47    50     0     0     0
SMALL
USER_CHARGES

@<TRIPOS>ATOM
      1 C1         -0.0178    1.4648    0.0101 C.3       1 <0>         0.0248
      2 N1          0.0021   -0.0041    0.0020 N.3       1 <0>        -0.5479
      3 C2          0.6031   -0.5158   -1.2375 C.3       1 <0>         0.0571
      4 C3          0.5329   -2.0447   -1.2421 C.3       1 <0>         0.0591
      5 N2          1.2373   -2.5683   -0.0634 N.3       1 <0>        -0.5228
      6 C4          0.6362   -2.0566    1.1762 C.3       1 <0>         0.0505
      7 C5          0.7064   -0.5277    1.1807 C.3       1 <0>         0.0599
      8 C6          1.2572   -4.0372   -0.0715 C.3       1 <0>         0.0451
      9 C7          2.1875   -4.5329    1.0055 C.2       1 <0>         0.5341
     10 O1          2.7761   -3.7405    1.7103 O.2       1 <0>        -0.4817
     11 N3          2.3656   -5.8566    1.1853 N.am      1 <0>        -0.5193
     12 C8          3.2191   -6.3265    2.1819 C.ar      1 <0>         0.1729
     13 C9          4.5622   -5.9787    2.1669 C.ar      1 <0>        -0.1042
     14 C10         5.4170   -6.4750    3.1313 C.ar      1 <0>        -0.0765
     15 C11         4.9406   -7.3239    4.1167 C.ar      1 <0>        -0.1213
     16 C12         3.6066   -7.6669    4.1551 C.ar      1 <0>        -0.0489
     17 C13         2.7249   -7.1575    3.1968 C.ar      1 <0>        -0.1413
     18 C14         1.2907   -7.4536    3.2934 C.2       1 <0>         0.5714
     19 O2          0.8103   -7.5027    4.4091 O.2       1 <0>        -0.5168
     20 N4          0.4724   -7.6719    2.2751 N.am      1 <0>        -0.6527
     21 C15         0.8031   -7.6933    0.9234 C.ar      1 <0>         0.1066
     22 C16         1.6928   -6.7786    0.3792 C.ar      1 <0>         0.3179
     23 N5          1.9273   -6.7785   -0.9260 N.ar      1 <0>        -0.4679
     24 C17         1.3685   -7.6566   -1.7356 C.ar      1 <0>         0.1140
     25 C18         0.5081   -8.6211   -1.2507 C.ar      1 <0>        -0.1400
     26 C19         0.2190   -8.6455    0.0935 C.ar      1 <0>        -0.0822
     27 H1          1.0047    1.8421    0.0024 H         1 <0>         0.0275
     28 H2         -0.5450    1.8259   -0.8730 H         1 <0>         0.0690
     29 H3         -0.5280    1.8163    0.9069 H         1 <0>         0.0692
     30 H4          0.0565   -0.1241   -2.0954 H         1 <0>         0.0824
     31 H5          1.6447   -0.1994   -1.2942 H         1 <0>         0.0451
     32 H6         -0.5098   -2.3609   -1.2128 H         1 <0>         0.0448
     33 H7          1.0041   -2.4277   -2.1472 H         1 <0>         0.0835
     34 H8         -0.4053   -2.3729    1.2329 H         1 <0>         0.0384
     35 H9          1.1828   -2.4483    2.0340 H         1 <0>         0.0945
     36 H10         1.7492   -0.2115    1.1515 H         1 <0>         0.0462
     37 H11         0.2352   -0.1447    2.0859 H         1 <0>         0.0803
     38 H12         0.2519   -4.4152    0.1146 H         1 <0>         0.0611
     39 H13         1.6043   -4.3905   -1.0424 H         1 <0>         0.1222
     40 H14         4.9398   -5.3192    1.3995 H         1 <0>         0.1359
     41 H15         6.4613   -6.2003    3.1169 H         1 <0>         0.1387
     42 H16         5.6185   -7.7193    4.8587 H         1 <0>         0.1391
     43 H17         3.2419   -8.3300    4.9256 H         1 <0>         0.1408
     44 H18        -0.4582   -7.8347    2.4953 H         1 <0>         0.4144
     45 H19         1.5866   -7.6205   -2.7927 H         1 <0>         0.1727
     46 H20         0.0697   -9.3478   -1.9185 H         1 <0>         0.1527
     47 H21        -0.4542   -9.3885    0.4949 H         1 <0>         0.1514
@<TRIPOS>BOND
     1    1    2 1
     2    1   27 1
     3    1   28 1
     4    1   29 1
     5    2    7 1
     6    2    3 1
     7    3    4 1
     8    3   30 1
     9    3   31 1
    10    4    5 1
    11    4   32 1
    12    4   33 1
    13    5    6 1
    14    5    8 1
    15    6    7 1
    16    6   34 1
    17    6   35 1
    18    7   36 1
    19    7   37 1
    20    8    9 1
    21    8   38 1
    22    8   39 1
    23    9   10 2
    24    9   11 am
    25   11   22 1
    26   11   12 1
    27   12   17 ar
    28   12   13 ar
    29   13   14 ar
    30   13   40 1
    31   14   15 ar
    32   14   41 1
    33   15   16 ar
    34   15   42 1
    35   16   17 ar
    36   16   43 1
    37   17   18 1
    38   18   19 2
    39   18   20 am
    40   20   21 1
    41   20   44 1
    42   21   26 ar
    43   21   22 ar
    44   22   23 ar
    45   23   24 ar
    46   24   25 ar
    47   24   45 1
    48   25   26 ar
    49   25   46 1
    50   26   47 1
