@<TRIPOS>MOLECULE
ZINC22459427
   46    49     0     0     0
SMALL
USER_CHARGES

@<TRIPOS>ATOM
      1 C1          1.7166    1.5474    1.0576 C.3       1 <0>        -0.0459
      2 N1          1.8169    0.0824    1.0980 N.4       1 <0>        -0.3883
      3 C2          0.4702   -0.5019    1.0458 C.3       1 <0>        -0.0017
      4 C3          0.5732   -2.0275    1.1068 C.3       1 <0>         0.0180
      5 N2          1.3783   -2.5070   -0.0254 N.3       1 <0>        -0.5312
      6 C4          2.7215   -1.9110   -0.0003 C.3       1 <0>         0.0162
      7 C5          2.6009   -0.3864   -0.0522 C.3       1 <0>        -0.0026
      8 C6          1.4533   -3.9741   -0.0341 C.3       1 <0>         0.1426
      9 H1          0.4366   -4.3615    0.0312 H         1 <0>         0.1066
     10 C7          2.1924   -4.4064    1.1906 C.3       1 <0>        -0.1261
     11 C8          2.0383   -5.8649    1.4730 C.ar      1 <0>        -0.0546
     12 C9          1.1634   -6.2765    2.4715 C.ar      1 <0>        -0.1194
     13 C10         0.9895   -7.6260    2.7150 C.ar      1 <0>        -0.0904
     14 C11         1.6756   -8.5682    1.9699 C.ar      1 <0>        -0.1144
     15 C12         2.5556   -8.1583    0.9852 C.ar      1 <0>        -0.0615
     16 C13         2.7362   -6.7973    0.7639 C.ar      1 <0>        -0.1304
     17 S1          3.9145   -6.2352   -0.4133 S.3       1 <0>         0.0047
     18 C14         3.0143   -5.3283   -1.6186 C.ar      1 <0>        -0.0732
     19 C15         2.0304   -4.4025   -1.3544 C.ar      1 <0>        -0.0710
     20 C16         1.4379   -3.7377   -2.4326 C.ar      1 <0>        -0.0501
     21 C17         1.7957   -3.9996   -3.7481 C.ar      1 <0>        -0.0148
     22 C18         2.7792   -4.9599   -4.0080 C.ar      1 <0>        -0.0577
     23 C19         3.3682   -5.6010   -2.9556 C.ar      1 <0>        -0.0885
     24 C20         1.1659   -3.2963   -4.8249 C.1       1 <0>         0.2426
     25 N3          0.6663   -2.7384   -5.6791 N.1       1 <0>        -0.3961
     26 H2          1.2248    1.8525    0.1340 H         1 <0>         0.1232
     27 H3          1.1349    1.8954    1.9111 H         1 <0>         0.1245
     28 H4          2.7158    1.9812    1.0977 H         1 <0>         0.1247
     29 H5         -0.1146   -0.1430    1.8927 H         1 <0>         0.1374
     30 H6         -0.0177   -0.2076    0.1165 H         1 <0>         0.1384
     31 H7          1.0487   -2.3227    2.0421 H         1 <0>         0.0683
     32 H8         -0.4251   -2.4618    1.0530 H         1 <0>         0.1266
     33 H9          3.2325   -2.2044    0.9167 H         1 <0>         0.0690
     34 H10         3.2906   -2.2604   -0.8618 H         1 <0>         0.1268
     35 H11         2.1020   -0.0927   -0.9758 H         1 <0>         0.1379
     36 H12         3.5956    0.0581   -0.0194 H         1 <0>         0.1373
     37 H13         3.2513   -4.1834    1.0596 H         1 <0>         0.0954
     38 H14         1.8191   -3.8414    2.0447 H         1 <0>         0.0859
     39 H15         0.6225   -5.5457    3.0544 H         1 <0>         0.1267
     40 H16         0.3131   -7.9472    3.4932 H         1 <0>         0.1315
     41 H17         1.5245   -9.6210    2.1570 H         1 <0>         0.1362
     42 H18         3.0956   -8.8851    0.3965 H         1 <0>         0.1407
     43 H19         0.6772   -2.9968   -2.2355 H         1 <0>         0.1427
     44 H20         3.0669   -5.1909   -5.0230 H         1 <0>         0.1457
     45 H21         4.1302   -6.3400   -3.1544 H         1 <0>         0.1455
     46 H22         2.2726   -0.1999    1.9529 H         1 <0>         0.4227
@<TRIPOS>BOND
     1    1    2 1
     2    1   26 1
     3    1   27 1
     4    1   28 1
     5    2    7 1
     6    2    3 1
     7    2   46 1
     8    3    4 1
     9    3   29 1
    10    3   30 1
    11    4    5 1
    12    4   31 1
    13    4   32 1
    14    5    6 1
    15    5    8 1
    16    6    7 1
    17    6   33 1
    18    6   34 1
    19    7   35 1
    20    7   36 1
    21    8    9 1
    22    8   19 1
    23    8   10 1
    24   10   11 1
    25   10   37 1
    26   10   38 1
    27   11   16 ar
    28   11   12 ar
    29   12   13 ar
    30   12   39 1
    31   13   14 ar
    32   13   40 1
    33   14   15 ar
    34   14   41 1
    35   15   16 ar
    36   15   42 1
    37   16   17 1
    38   17   18 1
    39   18   23 ar
    40   18   19 ar
    41   19   20 ar
    42   20   21 ar
    43   20   43 1
    44   21   22 ar
    45   21   24 1
    46   22   23 ar
    47   22   44 1
    48   23   45 1
    49   24   25 3
@<TRIPOS>MOLECULE
ZINC22459431
   46    49     0     0     0
SMALL
USER_CHARGES

@<TRIPOS>ATOM
      1 C1          0.2207    1.5152    1.9057 C.3       1 <0>        -0.0459
      2 N1          0.2517    0.0487    1.9854 N.4       1 <0>        -0.3883
      3 C2          0.6485   -0.5039    0.6836 C.3       1 <0>        -0.0017
      4 C3          0.6992   -2.0308    0.7713 C.3       1 <0>         0.0180
      5 N2         -0.6244   -2.5407    1.1564 N.3       1 <0>        -0.5311
      6 C4         -1.0460   -1.9766    2.4464 C.3       1 <0>         0.0161
      7 C5         -1.0823   -0.4501    2.3448 C.3       1 <0>        -0.0026
      8 C6         -0.6316   -4.0091    1.1963 C.3       1 <0>         0.1426
      9 H1         -0.2338   -4.3715    0.2484 H         1 <0>         0.1066
     10 C7          0.2948   -4.4466    2.2841 C.3       1 <0>        -0.1261
     11 C8          0.6369   -5.8982    2.2018 C.ar      1 <0>        -0.0546
     12 C9          1.8719   -6.2788    1.6903 C.ar      1 <0>        -0.1194
     13 C10         2.1818   -7.6212    1.5787 C.ar      1 <0>        -0.0904
     14 C11         1.2710   -8.5869    1.9679 C.ar      1 <0>        -0.1144
     15 C12         0.0474   -8.2080    2.4888 C.ar      1 <0>        -0.0615
     16 C13        -0.2439   -6.8539    2.6140 C.ar      1 <0>        -0.1305
     17 S1         -1.7488   -6.3319    3.3574 S.3       1 <0>         0.0048
     18 C14        -2.6128   -5.4158    2.1328 C.ar      1 <0>        -0.0732
     19 C15        -2.0601   -4.4644    1.3058 C.ar      1 <0>        -0.0710
     20 C16        -2.8995   -3.7965    0.4086 C.ar      1 <0>        -0.0501
     21 C17        -4.2555   -4.0793    0.3159 C.ar      1 <0>        -0.0149
     22 C18        -4.8034   -5.0654    1.1433 C.ar      1 <0>        -0.0577
     23 C19        -3.9875   -5.7103    2.0286 C.ar      1 <0>        -0.0885
     24 C20        -5.0824   -3.3709   -0.6140 C.1       1 <0>         0.2426
     25 N3         -5.7385   -2.8088   -1.3517 N.1       1 <0>        -0.3961
     26 H2         -0.0725    1.9255    2.8720 H         1 <0>         0.1248
     27 H3          1.2106    1.8855    1.6389 H         1 <0>         0.1246
     28 H4         -0.4989    1.8227    1.1469 H         1 <0>         0.1232
     29 H5         -0.0774   -0.2074   -0.0735 H         1 <0>         0.1384
     30 H6          1.6329   -0.1227    0.4120 H         1 <0>         0.1374
     31 H7          0.9792   -2.4417   -0.1986 H         1 <0>         0.1266
     32 H8          1.4349   -2.3279    1.5187 H         1 <0>         0.0683
     33 H9         -2.0393   -2.3480    2.6985 H         1 <0>         0.1268
     34 H10        -0.3391   -2.2728    3.2214 H         1 <0>         0.0690
     35 H11        -1.3811   -0.0291    3.3048 H         1 <0>         0.1373
     36 H12        -1.7994   -0.1539    1.5792 H         1 <0>         0.1379
     37 H13         1.2139   -3.8643    2.2188 H         1 <0>         0.0859
     38 H14        -0.1760   -4.2502    3.2474 H         1 <0>         0.0954
     39 H15         2.5857   -5.5295    1.3811 H         1 <0>         0.1267
     40 H16         3.1423   -7.9185    1.1845 H         1 <0>         0.1315
     41 H17         1.5147   -9.6339    1.8647 H         1 <0>         0.1362
     42 H18        -0.6722   -8.9533    2.7940 H         1 <0>         0.1407
     43 H19        -2.4794   -3.0358   -0.2327 H         1 <0>         0.1427
     44 H20        -5.8529   -5.3127    1.0825 H         1 <0>         0.1457
     45 H21        -4.4098   -6.4692    2.6706 H         1 <0>         0.1455
     46 H22         0.9175   -0.2358    2.6881 H         1 <0>         0.4227
@<TRIPOS>BOND
     1    1    2 1
     2    1   26 1
     3    1   27 1
     4    1   28 1
     5    2    7 1
     6    2    3 1
     7    2   46 1
     8    3    4 1
     9    3   29 1
    10    3   30 1
    11    4    5 1
    12    4   31 1
    13    4   32 1
    14    5    6 1
    15    5    8 1
    16    6    7 1
    17    6   33 1
    18    6   34 1
    19    7   35 1
    20    7   36 1
    21    8    9 1
    22    8   19 1
    23    8   10 1
    24   10   11 1
    25   10   37 1
    26   10   38 1
    27   11   16 ar
    28   11   12 ar
    29   12   13 ar
    30   12   39 1
    31   13   14 ar
    32   13   40 1
    33   14   15 ar
    34   14   41 1
    35   15   16 ar
    36   15   42 1
    37   16   17 1
    38   17   18 1
    39   18   23 ar
    40   18   19 ar
    41   19   20 ar
    42   20   21 ar
    43   20   43 1
    44   21   22 ar
    45   21   24 1
    46   22   23 ar
    47   22   44 1
    48   23   45 1
    49   24   25 3
@<TRIPOS>MOLECULE
ZINC00538337
   58    62     0     0     0
SMALL
USER_CHARGES

@<TRIPOS>ATOM
      1 C1         -0.0168    1.3842    0.0097 C.ar      1 <0>        -0.0898
      2 C2          1.1703    2.0901    0.0021 C.ar      1 <0>        -0.1344
      3 C3          2.3788    1.4141   -0.0135 C.ar      1 <0>         0.1119
      4 C4          2.3997    0.0295   -0.0216 C.ar      1 <0>        -0.1322
      5 C5          1.2148   -0.6800   -0.0137 C.ar      1 <0>        -0.0888
      6 C6          0.0021   -0.0041    0.0020 C.ar      1 <0>         0.1035
      7 N1         -1.2015   -0.7222    0.0101 N.pl3     1 <0>        -0.4255
      8 C7         -2.2407   -0.5077    0.8765 C.2       1 <0>         0.0751
      9 C8         -3.2397   -1.3652    0.6140 C.2       1 <0>        -0.1721
     10 C9         -2.8068   -2.1974   -0.5117 C.ar      1 <0>        -0.0841
     11 C10        -1.5194   -1.7470   -0.8569 C.ar      1 <0>         0.1032
     12 C11        -0.8430   -2.3517   -1.9103 C.ar      1 <0>        -0.1070
     13 C12        -1.4366   -3.3808   -2.6081 C.ar      1 <0>        -0.0841
     14 C13        -2.7089   -3.8239   -2.2706 C.ar      1 <0>        -0.0491
     15 C14        -3.3935   -3.2441   -1.2250 C.ar      1 <0>        -0.0671
     16 Cl1        -3.4366   -5.1218   -3.1648 Cl        1 <0>        -0.0596
     17 C15        -4.5571   -1.4553    1.3402 C.3       1 <0>        -0.0164
     18 C16        -4.3063   -1.7573    2.8204 C.3       1 <0>        -0.1397
     19 C17        -5.6422   -1.7687    3.5665 C.3       1 <0>        -0.0052
     20 N2         -6.2909   -0.4585    3.4359 N.4       1 <0>        -0.3798
     21 C18        -6.5994   -0.1937    2.0255 C.3       1 <0>        -0.0131
     22 C19        -5.3003   -0.1217    1.2201 C.3       1 <0>        -0.1392
     23 C20        -7.5345   -0.4493    4.2177 C.3       1 <0>        -0.0330
     24 C21        -8.1476    0.9521    4.1845 C.3       1 <0>         0.1326
     25 N3         -9.3878    0.9612    4.9641 N.am      1 <0>        -0.6351
     26 C22       -10.7283    0.6664    4.4362 C.3       1 <0>         0.0898
     27 C23       -11.6494    0.8170    5.6625 C.3       1 <0>         0.0871
     28 N4        -10.7301    1.1807    6.7511 N.am      1 <0>        -0.7327
     29 C24        -9.4802    1.2337    6.2723 C.2       1 <0>         0.7000
     30 O1         -8.5172    1.5083    6.9620 O.2       1 <0>        -0.5776
     31 F1          3.5389    2.1063   -0.0213 F         1 <0>        -0.1276
     32 H1         -0.9590    1.9118    0.0260 H         1 <0>         0.1391
     33 H2          1.1561    3.1700    0.0080 H         1 <0>         0.1488
     34 H3          3.3432   -0.4959   -0.0345 H         1 <0>         0.1499
     35 H4          1.2315   -1.7598   -0.0203 H         1 <0>         0.1411
     36 H5         -2.2541    0.2401    1.6556 H         1 <0>         0.1691
     37 H6          0.1466   -2.0149   -2.1816 H         1 <0>         0.1333
     38 H7         -0.9074   -3.8472   -3.4259 H         1 <0>         0.1426
     39 H8         -4.3833   -3.5900   -0.9659 H         1 <0>         0.1336
     40 H9         -5.1611   -2.2499    0.9021 H         1 <0>         0.0971
     41 H10        -3.8271   -2.7315    2.9171 H         1 <0>         0.1158
     42 H11        -3.6594   -0.9891    3.2440 H         1 <0>         0.0884
     43 H12        -6.2882   -2.5373    3.1423 H         1 <0>         0.1304
     44 H13        -5.4673   -1.9836    4.6207 H         1 <0>         0.1320
     45 H14        -7.2250   -0.9960    1.6341 H         1 <0>         0.1319
     46 H15        -7.1311    0.7541    1.9420 H         1 <0>         0.1316
     47 H16        -4.6740    0.6804    1.6106 H         1 <0>         0.0885
     48 H17        -5.5315    0.0731    0.1729 H         1 <0>         0.1159
     49 H18        -8.2379   -1.1638    3.7899 H         1 <0>         0.1318
     50 H19        -7.3173   -0.7265    5.2492 H         1 <0>         0.1351
     51 H20        -7.4442    1.6665    4.6123 H         1 <0>         0.1060
     52 H21        -8.3648    1.2293    3.1530 H         1 <0>         0.1030
     53 H22       -11.0011    1.3839    3.6624 H         1 <0>         0.0916
     54 H23       -10.7713   -0.3513    4.0481 H         1 <0>         0.0867
     55 H24       -12.3795    1.6093    5.4975 H         1 <0>         0.0926
     56 H25       -12.1498   -0.1259    5.8832 H         1 <0>         0.0914
     57 H26       -10.9875    1.3510    7.6707 H         1 <0>         0.4382
     58 H27        -5.6719    0.2583    3.7840 H         1 <0>         0.4243
@<TRIPOS>BOND
     1    1    6 ar
     2    1    2 ar
     3    1   32 1
     4    2    3 ar
     5    2   33 1
     6    3    4 ar
     7    3   31 1
     8    4    5 ar
     9    4   34 1
    10    5    6 ar
    11    5   35 1
    12    6    7 1
    13    7   11 1
    14    7    8 1
    15    8    9 2
    16    8   36 1
    17    9   10 1
    18    9   17 1
    19   10   15 ar
    20   10   11 ar
    21   11   12 ar
    22   12   13 ar
    23   12   37 1
    24   13   14 ar
    25   13   38 1
    26   14   15 ar
    27   14   16 1
    28   15   39 1
    29   17   22 1
    30   17   18 1
    31   17   40 1
    32   18   19 1
    33   18   41 1
    34   18   42 1
    35   19   20 1
    36   19   43 1
    37   19   44 1
    38   20   21 1
    39   20   23 1
    40   20   58 1
    41   21   22 1
    42   21   45 1
    43   21   46 1
    44   22   47 1
    45   22   48 1
    46   23   24 1
    47   23   49 1
    48   23   50 1
    49   24   25 1
    50   24   51 1
    51   24   52 1
    52   25   29 am
    53   25   26 1
    54   26   27 1
    55   26   53 1
    56   26   54 1
    57   27   28 1
    58   27   55 1
    59   27   56 1
    60   28   29 am
    61   28   57 1
    62   29   30 2
@<TRIPOS>MOLECULE
ZINC00601304
   50    53     0     0     0
SMALL
USER_CHARGES

@<TRIPOS>ATOM
      1 C1         -0.0848    1.4532   -0.3643 C.3       1 <0>         0.0157
      2 O1         -0.0673    0.0248   -0.4029 O.3       1 <0>        -0.2899
      3 C2         -1.2697   -0.6091   -0.3507 C.ar      1 <0>         0.1141
      4 C3         -2.4181    0.1263   -0.2712 C.ar      1 <0>        -0.1159
      5 C4         -3.6565   -0.5247   -0.2178 C.ar      1 <0>        -0.1900
      6 C5         -3.7118   -1.9398   -0.2465 C.ar      1 <0>         0.2208
      7 C6         -2.5225   -2.6738   -0.3282 C.ar      1 <0>        -0.2298
      8 C7         -1.3169   -2.0092   -0.3848 C.ar      1 <0>         0.2171
      9 O2         -0.1616   -2.7187   -0.4697 O.3       1 <0>        -0.2781
     10 C8         -0.2756   -4.1428   -0.5007 C.3       1 <0>         0.0126
     11 N1         -4.9113   -2.5410   -0.1946 N.ar      1 <0>        -0.5852
     12 C9         -6.0151   -1.8231   -0.1184 C.ar      1 <0>         0.6808
     13 N2         -6.0075   -0.4933   -0.0894 N.ar      1 <0>        -0.5933
     14 C10        -4.8747    0.1928   -0.1354 C.ar      1 <0>         0.5614
     15 N3         -4.8820    1.5717   -0.1036 N.pl3     1 <0>        -0.7723
     16 N4         -7.2317   -2.4807   -0.0668 N.pl3     1 <0>        -0.5638
     17 C11        -7.2984   -3.9422   -0.2055 C.3       1 <0>         0.0875
     18 C12        -8.0309   -4.5172    1.0132 C.3       1 <0>         0.0811
     19 N5         -9.2792   -3.7665    1.2081 N.am      1 <0>        -0.6161
     20 C13        -9.2125   -2.3049    1.3468 C.3       1 <0>         0.0965
     21 C14        -8.4794   -1.7305    0.1337 C.3       1 <0>         0.1036
     22 C15       -10.4640   -4.4068    1.2583 C.2       1 <0>         0.6126
     23 O3        -11.4993   -3.7686    1.3005 O.2       1 <0>        -0.5007
     24 C16       -10.5057   -5.8728    1.2622 C.2       1 <0>        -0.0999
     25 C17       -11.6286   -6.6439    1.1675 C.2       1 <0>        -0.0980
     26 C18       -11.2046   -7.9813    1.2107 C.2       1 <0>        -0.2186
     27 C19        -9.8585   -7.9681    1.3284 C.2       1 <0>        -0.0023
     28 O4         -9.4406   -6.6959    1.3540 O.3       1 <0>        -0.1695
     29 H1          0.9367    1.8304   -0.4129 H         1 <0>         0.1175
     30 H2         -0.6531    1.8327   -1.2135 H         1 <0>         0.0636
     31 H3         -0.5513    1.7859    0.5629 H         1 <0>         0.0637
     32 H4         -2.3709    1.2050   -0.2492 H         1 <0>         0.1589
     33 H5         -2.5500   -3.7532   -0.3508 H         1 <0>         0.1674
     34 H6         -0.7651   -4.4880    0.4100 H         1 <0>         0.0684
     35 H7         -0.8669   -4.4412   -1.3664 H         1 <0>         0.0684
     36 H8          0.7180   -4.5855   -0.5693 H         1 <0>         0.1203
     37 H9         -4.0457    2.0621   -0.1379 H         1 <0>         0.4288
     38 H10        -5.7233    2.0512   -0.0471 H         1 <0>         0.4313
     39 H11        -7.8428   -4.1990   -1.1142 H         1 <0>         0.1106
     40 H12        -6.2893   -4.3517   -0.2526 H         1 <0>         0.0927
     41 H13        -8.2596   -5.5687    0.8400 H         1 <0>         0.1354
     42 H14        -7.4023   -4.4179    1.8982 H         1 <0>         0.0848
     43 H15       -10.2215   -1.8954    1.3938 H         1 <0>         0.1238
     44 H16        -8.6680   -2.0481    2.2555 H         1 <0>         0.0830
     45 H17        -8.2501   -0.6797    0.3105 H         1 <0>         0.1273
     46 H18        -9.1099   -1.8262   -0.7503 H         1 <0>         0.0981
     47 H19       -12.6459   -6.2927    1.0769 H         1 <0>         0.1643
     48 H20       -11.8356   -8.8563    1.1598 H         1 <0>         0.1626
     49 H21        -9.2239   -8.8399    1.3885 H         1 <0>         0.2151
     50 H22        -4.9664   -3.5093   -0.2136 H         1 <0>         0.4337
@<TRIPOS>BOND
     1    1    2 1
     2    1   29 1
     3    1   30 1
     4    1   31 1
     5    2    3 1
     6    3    8 ar
     7    3    4 ar
     8    4    5 ar
     9    4   32 1
    10    5   14 ar
    11    5    6 ar
    12    6    7 ar
    13    6   11 ar
    14    7    8 ar
    15    7   33 1
    16    8    9 1
    17    9   10 1
    18   10   34 1
    19   10   35 1
    20   10   36 1
    21   11   12 ar
    22   11   50 1
    23   12   13 ar
    24   12   16 1
    25   13   14 ar
    26   14   15 1
    27   15   37 1
    28   15   38 1
    29   16   21 1
    30   16   17 1
    31   17   18 1
    32   17   39 1
    33   17   40 1
    34   18   19 1
    35   18   41 1
    36   18   42 1
    37   19   20 1
    38   19   22 am
    39   20   21 1
    40   20   43 1
    41   20   44 1
    42   21   45 1
    43   21   46 1
    44   22   23 2
    45   22   24 1
    46   24   28 1
    47   24   25 2
    48   25   26 1
    49   25   47 1
    50   26   27 2
    51   26   48 1
    52   27   28 1
    53   27   49 1
@<TRIPOS>MOLECULE
ZINC19368911
   45    48     0     0     0
SMALL
USER_CHARGES

@<TRIPOS>ATOM
      1 C1          2.0551    1.5662    0.7968 C.3       1 <0>        -0.0458
      2 N1          2.1710    0.1021    0.8252 N.4       1 <0>        -0.3883
      3 C2          0.8956   -0.4814    1.2616 C.3       1 <0>        -0.0020
      4 C3          1.0217   -2.0057    1.3094 C.3       1 <0>         0.0173
      5 N2          1.3783   -2.5070   -0.0254 N.3       1 <0>        -0.5297
      6 C4          2.6408   -1.9123   -0.4862 C.3       1 <0>         0.0183
      7 C5          2.5014   -0.3887   -0.5192 C.3       1 <0>        -0.0012
      8 C6          1.4533   -3.9741   -0.0341 C.3       1 <0>         0.1436
      9 H1          1.8462   -4.2834   -1.0026 H         1 <0>         0.1046
     10 C7          2.4301   -4.3934    1.0165 C.3       1 <0>        -0.1244
     11 C8          2.8489   -5.8204    0.8787 C.ar      1 <0>        -0.0555
     12 C9          4.0898   -6.1157    0.3266 C.ar      1 <0>        -0.1195
     13 C10         4.4697   -7.4348    0.1641 C.ar      1 <0>        -0.0914
     14 C11         3.6229   -8.4613    0.5419 C.ar      1 <0>        -0.1144
     15 C12         2.3938   -8.1675    1.1031 C.ar      1 <0>        -0.0625
     16 C13         2.0322   -6.8363    1.2796 C.ar      1 <0>        -0.1284
     17 S1          0.5199   -6.4218    2.0741 S.3       1 <0>        -0.0012
     18 C14        -0.4216   -5.5163    0.9001 C.ar      1 <0>        -0.0960
     19 C15         0.0557   -4.5121    0.0944 C.ar      1 <0>        -0.0557
     20 C16        -0.8473   -3.8641   -0.7618 C.ar      1 <0>        -0.0920
     21 C17        -2.1732   -4.2168   -0.8314 C.ar      1 <0>        -0.0283
     22 C18        -2.6457   -5.2466   -0.0358 C.ar      1 <0>        -0.0945
     23 C19        -1.7774   -5.8802    0.8150 C.ar      1 <0>        -0.0768
     24 Cl1        -3.2470   -3.3781   -1.9071 Cl        1 <0>        -0.0552
     25 H2          1.2675    1.8549    0.1008 H         1 <0>         0.1234
     26 H3          1.8099    1.9307    1.7944 H         1 <0>         0.1246
     27 H4          3.0019    1.9995    0.4743 H         1 <0>         0.1245
     28 H5          0.6451   -0.1063    2.2539 H         1 <0>         0.1370
     29 H6          0.1098   -0.2037    0.5591 H         1 <0>         0.1384
     30 H7          1.7981   -2.2843    2.0219 H         1 <0>         0.0683
     31 H8          0.0709   -2.4397    1.6188 H         1 <0>         0.1252
     32 H9          3.4439   -2.1893    0.1967 H         1 <0>         0.0669
     33 H10         2.8714   -2.2781   -1.4868 H         1 <0>         0.1261
     34 H11         1.7074   -0.1115   -1.2125 H         1 <0>         0.1388
     35 H12         3.4414    0.0551   -0.8472 H         1 <0>         0.1373
     36 H13         3.3139   -3.7592    0.9484 H         1 <0>         0.0843
     37 H14         1.9741   -4.2537    1.9967 H         1 <0>         0.0953
     38 H15         4.7536   -5.3187    0.0257 H         1 <0>         0.1263
     39 H16         5.4351   -7.6657   -0.2615 H         1 <0>         0.1315
     40 H17         3.9209   -9.4894    0.3986 H         1 <0>         0.1361
     41 H18         1.7238   -8.9608    1.4000 H         1 <0>         0.1402
     42 H19        -0.4879   -3.0604   -1.3873 H         1 <0>         0.1430
     43 H20        -3.6820   -5.5466   -0.0853 H         1 <0>         0.1455
     44 H21        -2.1458   -6.6811    1.4390 H         1 <0>         0.1435
     45 H22         2.9004   -0.1649    1.4692 H         1 <0>         0.4225
@<TRIPOS>BOND
     1    1    2 1
     2    1   25 1
     3    1   26 1
     4    1   27 1
     5    2    7 1
     6    2    3 1
     7    2   45 1
     8    3    4 1
     9    3   28 1
    10    3   29 1
    11    4    5 1
    12    4   30 1
    13    4   31 1
    14    5    6 1
    15    5    8 1
    16    6    7 1
    17    6   32 1
    18    6   33 1
    19    7   34 1
    20    7   35 1
    21    8    9 1
    22    8   19 1
    23    8   10 1
    24   10   11 1
    25   10   36 1
    26   10   37 1
    27   11   16 ar
    28   11   12 ar
    29   12   13 ar
    30   12   38 1
    31   13   14 ar
    32   13   39 1
    33   14   15 ar
    34   14   40 1
    35   15   16 ar
    36   15   41 1
    37   16   17 1
    38   17   18 1
    39   18   23 ar
    40   18   19 ar
    41   19   20 ar
    42   20   21 ar
    43   20   42 1
    44   21   22 ar
    45   21   24 1
    46   22   23 ar
    47   22   43 1
    48   23   44 1
@<TRIPOS>MOLECULE
ZINC19368911
   45    48     0     0     0
SMALL
USER_CHARGES

@<TRIPOS>ATOM
      1 C1          1.8451    1.4255   -1.3654 C.3       1 <0>         0.0195
      2 N1          1.7915   -0.0418   -1.3192 N.3       1 <0>        -0.5416
      3 C2          2.6963   -0.5697   -0.2883 C.3       1 <0>         0.0276
      4 C3          2.6557   -2.0992   -0.3129 C.3       1 <0>        -0.0110
      5 N2          1.2823   -2.5567   -0.0641 N.4       1 <0>        -0.3883
      6 C4          0.3949   -2.0419   -1.1153 C.3       1 <0>        -0.0135
      7 C5          0.4167   -0.5119   -1.0974 C.3       1 <0>         0.0268
      8 C6          1.2470   -4.0253   -0.0699 C.3       1 <0>         0.0990
      9 H1          0.2105   -4.3357    0.0618 H         1 <0>         0.1437
     10 C7          1.7029   -4.4936   -1.4139 C.3       1 <0>        -0.1200
     11 C8          1.3893   -5.9329   -1.6608 C.ar      1 <0>        -0.0629
     12 C9          0.3114   -6.2656   -2.4727 C.ar      1 <0>        -0.1120
     13 C10        -0.0058   -7.5952   -2.6777 C.ar      1 <0>        -0.0869
     14 C11         0.7376   -8.5953   -2.0773 C.ar      1 <0>        -0.1050
     15 C12         1.8178   -8.2648   -1.2798 C.ar      1 <0>        -0.0597
     16 C13         2.1385   -6.9238   -1.0981 C.ar      1 <0>        -0.1311
     17 S1          3.5586   -6.4654   -0.1688 S.3       1 <0>         0.0267
     18 C14         2.9746   -5.5110    1.1849 C.ar      1 <0>        -0.0737
     19 C15         2.0331   -4.5141    1.1144 C.ar      1 <0>        -0.0987
     20 C16         1.7111   -3.8226    2.2919 C.ar      1 <0>        -0.1357
     21 C17         2.2878   -4.1261    3.5012 C.ar      1 <0>        -0.0093
     22 C18         3.2184   -5.1486    3.5733 C.ar      1 <0>        -0.0773
     23 C19         3.5523   -5.8244    2.4283 C.ar      1 <0>        -0.0627
     24 Cl1         1.8541   -3.2348    4.9265 Cl        1 <0>        -0.0338
     25 H2          1.4849    1.8322   -0.4205 H         1 <0>         0.0397
     26 H3          2.8736    1.7465   -1.5305 H         1 <0>         0.0846
     27 H4          1.2167    1.7866   -2.1795 H         1 <0>         0.0849
     28 H5          3.7126   -0.2296   -0.4877 H         1 <0>         0.1259
     29 H6          2.3788   -0.2132    0.6915 H         1 <0>         0.0604
     30 H7          2.9863   -2.4558   -1.2884 H         1 <0>         0.1426
     31 H8          3.3154   -2.4927    0.4604 H         1 <0>         0.1353
     32 H9          0.7371   -2.3987   -2.0867 H         1 <0>         0.1446
     33 H10        -0.6216   -2.3928   -0.9368 H         1 <0>         0.1385
     34 H11         0.0616   -0.1544   -0.1308 H         1 <0>         0.0610
     35 H12        -0.2302   -0.1296   -1.8870 H         1 <0>         0.1268
     36 H13         1.2157   -3.8909   -2.1804 H         1 <0>         0.1119
     37 H14         2.7809   -4.3505   -1.4894 H         1 <0>         0.1140
     38 H15        -0.2754   -5.4891   -2.9409 H         1 <0>         0.1335
     39 H16        -0.8409   -7.8552   -3.3113 H         1 <0>         0.1367
     40 H17         0.4749   -9.6316   -2.2306 H         1 <0>         0.1404
     41 H18         2.4041   -9.0372   -0.8044 H         1 <0>         0.1440
     42 H19         0.9853   -3.0241    2.2460 H         1 <0>         0.1247
     43 H20         3.6736   -5.4102    4.5171 H         1 <0>         0.1573
     44 H21         4.2810   -6.6197    2.4827 H         1 <0>         0.1555
     45 H22         0.9722   -2.2168    0.8338 H         1 <0>         0.4179
@<TRIPOS>BOND
     1    1    2 1
     2    1   25 1
     3    1   26 1
     4    1   27 1
     5    2    7 1
     6    2    3 1
     7    3    4 1
     8    3   28 1
     9    3   29 1
    10    4    5 1
    11    4   30 1
    12    4   31 1
    13    5    6 1
    14    5    8 1
    15    5   45 1
    16    6    7 1
    17    6   32 1
    18    6   33 1
    19    7   34 1
    20    7   35 1
    21    8    9 1
    22    8   19 1
    23    8   10 1
    24   10   11 1
    25   10   36 1
    26   10   37 1
    27   11   16 ar
    28   11   12 ar
    29   12   13 ar
    30   12   38 1
    31   13   14 ar
    32   13   39 1
    33   14   15 ar
    34   14   40 1
    35   15   16 ar
    36   15   41 1
    37   16   17 1
    38   17   18 1
    39   18   23 ar
    40   18   19 ar
    41   19   20 ar
    42   20   21 ar
    43   20   42 1
    44   21   22 ar
    45   21   24 1
    46   22   23 ar
    47   22   43 1
    48   23   44 1
@<TRIPOS>MOLECULE
ZINC19368911
   44    47     0     0     0
SMALL
USER_CHARGES

@<TRIPOS>ATOM
      1 C1          2.0989    1.4895    0.7356 C.3       1 <0>         0.0247
      2 N1          2.1188    0.0206    0.7275 N.3       1 <0>        -0.5452
      3 C2          0.8507   -0.5260    1.2301 C.3       1 <0>         0.0570
      4 C3          0.9408   -2.0530    1.2806 C.3       1 <0>         0.0525
      5 N2          1.2373   -2.5683   -0.0634 N.3       1 <0>        -0.5288
      6 C4          2.5054   -2.0217   -0.5660 C.3       1 <0>         0.0516
      7 C5          2.4152   -0.4946   -0.6165 C.3       1 <0>         0.0571
      8 C6          1.2572   -4.0372   -0.0715 C.3       1 <0>         0.1371
      9 H1          1.6072   -4.3617   -1.0514 H         1 <0>         0.0931
     10 C7          2.2505   -4.4919    0.9484 C.3       1 <0>        -0.1274
     11 C8          2.6112   -5.9337    0.8002 C.ar      1 <0>        -0.0439
     12 C9          3.8219   -6.2756    0.2095 C.ar      1 <0>        -0.1188
     13 C10         4.1470   -7.6080    0.0376 C.ar      1 <0>        -0.0953
     14 C11         3.2749   -8.6019    0.4442 C.ar      1 <0>        -0.1230
     15 C12         2.0761   -8.2619    1.0437 C.ar      1 <0>        -0.0661
     16 C13         1.7703   -6.9180    1.2289 C.ar      1 <0>        -0.1283
     17 S1          0.3005   -6.4465    2.0702 S.3       1 <0>        -0.0085
     18 C14        -0.6434   -5.5075    0.9249 C.ar      1 <0>        -0.0998
     19 C15        -0.1547   -4.5225    0.1025 C.ar      1 <0>        -0.0379
     20 C16        -1.0598   -3.8419   -0.7259 C.ar      1 <0>        -0.0855
     21 C17        -2.3995   -4.1448   -0.7526 C.ar      1 <0>        -0.0290
     22 C18        -2.8845   -5.1556    0.0596 C.ar      1 <0>        -0.1026
     23 C19        -2.0139   -5.8205    0.8837 C.ar      1 <0>        -0.0807
     24 Cl1        -3.4749   -3.2674   -1.7954 Cl        1 <0>        -0.0640
     25 H2          1.3324    1.8463    0.0476 H         1 <0>         0.0271
     26 H3          1.8772    1.8443    1.7421 H         1 <0>         0.0692
     27 H4          3.0722    1.8678    0.4231 H         1 <0>         0.0693
     28 H5          0.6595   -0.1397    2.2313 H         1 <0>         0.0806
     29 H6          0.0387   -0.2314    0.5652 H         1 <0>         0.0434
     30 H7          1.7350   -2.3480    1.9665 H         1 <0>         0.0509
     31 H8         -0.0087   -2.4622    1.6257 H         1 <0>         0.0810
     32 H9          3.3173   -2.3162    0.0989 H         1 <0>         0.0504
     33 H10         2.6965   -2.4079   -1.5672 H         1 <0>         0.0822
     34 H11         1.6211   -0.1997   -1.3023 H         1 <0>         0.0440
     35 H12         3.3647   -0.0855   -0.9615 H         1 <0>         0.0813
     36 H13         3.1548   -3.8912    0.8509 H         1 <0>         0.0902
     37 H14         1.8315   -4.3344    1.9422 H         1 <0>         0.0943
     38 H15         4.5051   -5.5042   -0.1139 H         1 <0>         0.1278
     39 H16         5.0890   -7.8753   -0.4180 H         1 <0>         0.1278
     40 H17         3.5296   -9.6406    0.2936 H         1 <0>         0.1311
     41 H18         1.3867   -9.0294    1.3632 H         1 <0>         0.1363
     42 H19        -0.6907   -3.0526   -1.3641 H         1 <0>         0.1451
     43 H20        -3.9323   -5.4166    0.0437 H         1 <0>         0.1408
     44 H21        -2.3918   -6.6065    1.5207 H         1 <0>         0.1391
@<TRIPOS>BOND
     1    1    2 1
     2    1   25 1
     3    1   26 1
     4    1   27 1
     5    2    7 1
     6    2    3 1
     7    3    4 1
     8    3   28 1
     9    3   29 1
    10    4    5 1
    11    4   30 1
    12    4   31 1
    13    5    6 1
    14    5    8 1
    15    6    7 1
    16    6   32 1
    17    6   33 1
    18    7   34 1
    19    7   35 1
    20    8    9 1
    21    8   19 1
    22    8   10 1
    23   10   11 1
    24   10   36 1
    25   10   37 1
    26   11   16 ar
    27   11   12 ar
    28   12   13 ar
    29   12   38 1
    30   13   14 ar
    31   13   39 1
    32   14   15 ar
    33   14   40 1
    34   15   16 ar
    35   15   41 1
    36   16   17 1
    37   17   18 1
    38   18   23 ar
    39   18   19 ar
    40   19   20 ar
    41   20   21 ar
    42   20   42 1
    43   21   22 ar
    44   21   24 1
    45   22   23 ar
    46   22   43 1
    47   23   44 1
@<TRIPOS>MOLECULE
ZINC00020251
   41    43     0     0     0
SMALL
USER_CHARGES

@<TRIPOS>ATOM
      1 C1          0.3679    1.4948   -0.0201 C.3       1 <0>        -0.1272
      2 C2          0.2853   -0.0099   -0.0200 C.ar      1 <0>        -0.0600
      3 C3          1.4442   -0.7644   -0.0110 C.ar      1 <0>        -0.1078
      4 C4          1.3722   -2.1435   -0.0113 C.ar      1 <0>        -0.0987
      5 C5          0.1337   -2.7728   -0.0201 C.ar      1 <0>         0.1050
      6 C6         -1.0285   -2.0117   -0.0286 C.ar      1 <0>        -0.1145
      7 C7         -0.9492   -0.6330   -0.0230 C.ar      1 <0>        -0.1116
      8 N1          0.0572   -4.1678   -0.0209 N.pl3     1 <0>        -0.5735
      9 C8          0.0846   -4.9036    1.2456 C.3       1 <0>         0.1390
     10 C9         -1.3227   -5.0783    1.7557 C.cat     1 <0>         0.4891
     11 N2         -1.9005   -4.2016    2.5430 N.pl3     1 <0>        -0.6245
     12 C10        -3.2631   -4.6580    2.8611 C.3       1 <0>         0.0566
     13 C11        -3.3748   -5.9931    2.0960 C.3       1 <0>         0.0550
     14 N3         -2.0626   -6.1154    1.4407 N.pl3     1 <0>        -0.6236
     15 C12        -0.0455   -4.8611   -1.2295 C.ar      1 <0>         0.2053
     16 C13        -0.0552   -4.1650   -2.4324 C.ar      1 <0>        -0.1712
     17 C14        -0.1568   -4.8506   -3.6270 C.ar      1 <0>        -0.0509
     18 C15        -0.2489   -6.2298   -3.6298 C.ar      1 <0>        -0.1769
     19 C16        -0.2402   -6.9302   -2.4318 C.ar      1 <0>         0.1550
     20 C17        -0.1322   -6.2465   -1.2308 C.ar      1 <0>        -0.2288
     21 O1         -0.3318   -8.2861   -2.4363 O.3       1 <0>        -0.4993
     22 H1          0.3851    1.8579    1.0075 H         1 <0>         0.0791
     23 H2          1.2778    1.8087   -0.5317 H         1 <0>         0.0747
     24 H3         -0.4995    1.9063   -0.5363 H         1 <0>         0.0732
     25 H4          2.4067   -0.2745   -0.0042 H         1 <0>         0.1347
     26 H5          2.2777   -2.7321   -0.0051 H         1 <0>         0.1314
     27 H6         -1.9930   -2.4978   -0.0354 H         1 <0>         0.1179
     28 H7         -1.8524   -0.0408   -0.0255 H         1 <0>         0.1314
     29 H8          0.5378   -5.8823    1.0875 H         1 <0>         0.1364
     30 H9          0.6696   -4.3462    1.9771 H         1 <0>         0.1371
     31 H10        -3.3747   -4.8185    3.9334 H         1 <0>         0.1285
     32 H11        -4.0026   -3.9438    2.4987 H         1 <0>         0.1258
     33 H12        -3.5420   -6.8196    2.7867 H         1 <0>         0.1291
     34 H13        -4.1699   -5.9450    1.3520 H         1 <0>         0.1262
     35 H14        -1.7873   -6.8481    0.8678 H         1 <0>         0.4584
     36 H15         0.0163   -3.0874   -2.4330 H         1 <0>         0.1301
     37 H16        -0.1645   -4.3081   -4.5608 H         1 <0>         0.1363
     38 H17        -0.3282   -6.7630   -4.5656 H         1 <0>         0.1352
     39 H18        -0.1201   -6.7903   -0.2978 H         1 <0>         0.1181
     40 H19         0.5221   -8.7379   -2.4787 H         1 <0>         0.4007
     41 H20        -1.4934   -3.3821    2.8650 H         1 <0>         0.4591
@<TRIPOS>BOND
     1    1    2 1
     2    1   22 1
     3    1   23 1
     4    1   24 1
     5    2    7 ar
     6    2    3 ar
     7    3    4 ar
     8    3   25 1
     9    4    5 ar
    10    4   26 1
    11    5    6 ar
    12    5    8 1
    13    6    7 ar
    14    6   27 1
    15    7   28 1
    16    8    9 1
    17    8   15 1
    18    9   10 1
    19    9   29 1
    20    9   30 1
    21   10   14 1
    22   10   11 2
    23   11   12 1
    24   11   41 1
    25   12   13 1
    26   12   31 1
    27   12   32 1
    28   13   14 1
    29   13   33 1
    30   13   34 1
    31   14   35 1
    32   15   20 ar
    33   15   16 ar
    34   16   17 ar
    35   16   36 1
    36   17   18 ar
    37   17   37 1
    38   18   19 ar
    39   18   38 1
    40   19   20 ar
    41   19   21 1
    42   20   39 1
    43   21   40 1
@<TRIPOS>MOLECULE
ZINC22032760
   45    48     0     0     0
SMALL
USER_CHARGES

@<TRIPOS>ATOM
      1 C1          1.7167    1.5474    1.0576 C.3       1 <0>        -0.0457
      2 N1          1.8169    0.0824    1.0980 N.4       1 <0>        -0.3884
      3 C2          0.4703   -0.5019    1.0458 C.3       1 <0>        -0.0012
      4 C3          0.5732   -2.0275    1.1069 C.3       1 <0>         0.0178
      5 N2          1.3783   -2.5070   -0.0254 N.3       1 <0>        -0.5294
      6 C4          2.7215   -1.9110   -0.0004 C.3       1 <0>         0.0171
      7 C5          2.6009   -0.3864   -0.0523 C.3       1 <0>        -0.0019
      8 C6          1.4533   -3.9741   -0.0341 C.3       1 <0>         0.1437
      9 H1          0.4366   -4.3616    0.0312 H         1 <0>         0.1051
     10 C7          2.1927   -4.4066    1.1906 C.3       1 <0>        -0.1255
     11 C8          2.0396   -5.8653    1.4724 C.ar      1 <0>        -0.0553
     12 C9          1.1657   -6.2780    2.4713 C.ar      1 <0>        -0.1194
     13 C10         0.9929   -7.6277    2.7143 C.ar      1 <0>        -0.0913
     14 C11         1.6786   -8.5692    1.9680 C.ar      1 <0>        -0.1144
     15 C12         2.5577   -8.1584    0.9829 C.ar      1 <0>        -0.0625
     16 C13         2.7375   -6.7972    0.7623 C.ar      1 <0>        -0.1285
     17 S1          3.9144   -6.2334   -0.4157 S.3       1 <0>        -0.0012
     18 C14         3.0120   -5.3258   -1.6184 C.ar      1 <0>        -0.0959
     19 C15         2.0306   -4.4026   -1.3541 C.ar      1 <0>        -0.0564
     20 C16         1.4378   -3.7373   -2.4379 C.ar      1 <0>        -0.0930
     21 C17         1.7915   -3.9971   -3.7397 C.ar      1 <0>        -0.0282
     22 C18         2.7637   -4.9468   -4.0037 C.ar      1 <0>        -0.0944
     23 C19         3.3610   -5.5951   -2.9539 C.ar      1 <0>        -0.0766
     24 Cl1         1.0265   -3.1416   -5.0422 Cl        1 <0>        -0.0549
     25 H2          1.2248    1.8525    0.1340 H         1 <0>         0.1234
     26 H3          1.1350    1.8954    1.9111 H         1 <0>         0.1245
     27 H4          2.7159    1.9812    1.0976 H         1 <0>         0.1246
     28 H5         -0.1145   -0.1430    1.8927 H         1 <0>         0.1373
     29 H6         -0.0176   -0.2076    0.1166 H         1 <0>         0.1388
     30 H7          1.0488   -2.3227    2.0421 H         1 <0>         0.0676
     31 H8         -0.4250   -2.4618    1.0531 H         1 <0>         0.1262
     32 H9          3.2325   -2.2044    0.9166 H         1 <0>         0.0680
     33 H10         3.2905   -2.2604   -0.8619 H         1 <0>         0.1253
     34 H11         2.1020   -0.0927   -0.9759 H         1 <0>         0.1384
     35 H12         3.5956    0.0581   -0.0195 H         1 <0>         0.1370
     36 H13         3.2514   -4.1828    1.0598 H         1 <0>         0.0948
     37 H14         1.8190   -3.8421    2.0449 H         1 <0>         0.0854
     38 H15         0.6248   -5.5478    3.0549 H         1 <0>         0.1265
     39 H16         0.3169   -7.9497    3.4926 H         1 <0>         0.1315
     40 H17         1.5281   -9.6222    2.1546 H         1 <0>         0.1361
     41 H18         3.0975   -8.8846    0.3932 H         1 <0>         0.1402
     42 H19         0.6773   -2.9960   -2.2421 H         1 <0>         0.1434
     43 H20         3.0463   -5.1739   -5.0210 H         1 <0>         0.1456
     44 H21         4.1223   -6.3333   -3.1585 H         1 <0>         0.1436
     45 H22         2.2727   -0.1999    1.9528 H         1 <0>         0.4225
@<TRIPOS>BOND
     1    1    2 1
     2    1   25 1
     3    1   26 1
     4    1   27 1
     5    2    7 1
     6    2    3 1
     7    2   45 1
     8    3    4 1
     9    3   28 1
    10    3   29 1
    11    4    5 1
    12    4   30 1
    13    4   31 1
    14    5    6 1
    15    5    8 1
    16    6    7 1
    17    6   32 1
    18    6   33 1
    19    7   34 1
    20    7   35 1
    21    8    9 1
    22    8   19 1
    23    8   10 1
    24   10   11 1
    25   10   36 1
    26   10   37 1
    27   11   16 ar
    28   11   12 ar
    29   12   13 ar
    30   12   38 1
    31   13   14 ar
    32   13   39 1
    33   14   15 ar
    34   14   40 1
    35   15   16 ar
    36   15   41 1
    37   16   17 1
    38   17   18 1
    39   18   23 ar
    40   18   19 ar
    41   19   20 ar
    42   20   21 ar
    43   20   42 1
    44   21   22 ar
    45   21   24 1
    46   22   23 ar
    47   22   43 1
    48   23   44 1
@<TRIPOS>MOLECULE
ZINC22032760
   44    47     0     0     0
SMALL
USER_CHARGES

@<TRIPOS>ATOM
      1 C1          1.7678    1.4835    1.0080 C.3       1 <0>         0.0248
      2 N1          1.7877    0.0147    0.9999 N.3       1 <0>        -0.5452
      3 C2          0.4232   -0.5307    1.0224 C.3       1 <0>         0.0571
      4 C3          0.4883   -2.0581    1.0935 C.3       1 <0>         0.0511
      5 N2          1.2373   -2.5683   -0.0634 N.3       1 <0>        -0.5286
      6 C4          2.6017   -2.0230   -0.0859 C.3       1 <0>         0.0524
      7 C5          2.5366   -0.4955   -0.1570 C.3       1 <0>         0.0572
      8 C6          1.2572   -4.0372   -0.0715 C.3       1 <0>         0.1372
      9 H1          0.2293   -4.3863    0.0269 H         1 <0>         0.0934
     10 C7          2.0185   -4.4960    1.1299 C.3       1 <0>        -0.1286
     11 C8          1.8201   -5.9478    1.4194 C.ar      1 <0>        -0.0436
     12 C9          0.9636   -6.3267    2.4464 C.ar      1 <0>        -0.1188
     13 C10         0.7483   -7.6688    2.6974 C.ar      1 <0>        -0.0953
     14 C11         1.3743   -8.6359    1.9316 C.ar      1 <0>        -0.1231
     15 C12         2.2364   -8.2591    0.9182 C.ar      1 <0>        -0.0661
     16 C13         2.4598   -6.9057    0.6893 C.ar      1 <0>        -0.1285
     17 S1          3.6187   -6.3873   -0.5266 S.3       1 <0>        -0.0084
     18 C14         2.7130   -5.4475   -1.7018 C.ar      1 <0>        -0.0997
     19 C15         1.7757   -4.4880   -1.4083 C.ar      1 <0>        -0.0384
     20 C16         1.1740   -3.8020   -2.4741 C.ar      1 <0>        -0.0864
     21 C17         1.4761   -4.0758   -3.7859 C.ar      1 <0>        -0.0289
     22 C18         2.4033   -5.0614   -4.0788 C.ar      1 <0>        -0.1026
     23 C19         3.0091   -5.7308   -3.0472 C.ar      1 <0>        -0.0806
     24 Cl1         0.7025   -3.1934   -5.0652 Cl        1 <0>        -0.0638
     25 H2          1.2921    1.8454    0.0965 H         1 <0>         0.0271
     26 H3          1.2072    1.8345    1.8744 H         1 <0>         0.0690
     27 H4          2.7892    1.8604    1.0591 H         1 <0>         0.0694
     28 H5         -0.1069   -0.1483    1.8947 H         1 <0>         0.0813
     29 H6         -0.1032   -0.2309    0.1163 H         1 <0>         0.0439
     30 H7          0.9907   -2.3583    2.0131 H         1 <0>         0.0512
     31 H8         -0.5224   -2.4662    1.0811 H         1 <0>         0.0823
     32 H9          3.1281   -2.3228    0.8203 H         1 <0>         0.0505
     33 H10         3.1318   -2.4054   -0.9582 H         1 <0>         0.0811
     34 H11         2.0342   -0.1954   -1.0765 H         1 <0>         0.0434
     35 H12         3.5473   -0.0875   -0.1446 H         1 <0>         0.0805
     36 H13         3.0801   -4.3121    0.9651 H         1 <0>         0.0939
     37 H14         1.6935   -3.9173    1.9946 H         1 <0>         0.0912
     38 H15         0.4692   -5.5763    3.0455 H         1 <0>         0.1279
     39 H16         0.0859   -7.9647    3.4975 H         1 <0>         0.1278
     40 H17         1.1906   -9.6824    2.1250 H         1 <0>         0.1311
     41 H18         2.7296   -9.0054    0.3132 H         1 <0>         0.1362
     42 H19         0.4483   -3.0325   -2.2557 H         1 <0>         0.1454
     43 H20         2.6447   -5.2998   -5.1041 H         1 <0>         0.1409
     44 H21         3.7354   -6.4970   -3.2745 H         1 <0>         0.1392
@<TRIPOS>BOND
     1    1    2 1
     2    1   25 1
     3    1   26 1
     4    1   27 1
     5    2    7 1
     6    2    3 1
     7    3    4 1
     8    3   28 1
     9    3   29 1
    10    4    5 1
    11    4   30 1
    12    4   31 1
    13    5    6 1
    14    5    8 1
    15    6    7 1
    16    6   32 1
    17    6   33 1
    18    7   34 1
    19    7   35 1
    20    8    9 1
    21    8   19 1
    22    8   10 1
    23   10   11 1
    24   10   36 1
    25   10   37 1
    26   11   16 ar
    27   11   12 ar
    28   12   13 ar
    29   12   38 1
    30   13   14 ar
    31   13   39 1
    32   14   15 ar
    33   14   40 1
    34   15   16 ar
    35   15   41 1
    36   16   17 1
    37   17   18 1
    38   18   23 ar
    39   18   19 ar
    40   19   20 ar
    41   20   21 ar
    42   20   42 1
    43   21   22 ar
    44   21   24 1
    45   22   23 ar
    46   22   43 1
    47   23   44 1
@<TRIPOS>MOLECULE
ZINC22032760
   45    48     0     0     0
SMALL
USER_CHARGES

@<TRIPOS>ATOM
      1 C1          2.1657    1.4081    1.1054 C.3       1 <0>         0.0195
      2 N1          2.0994   -0.0585    1.0541 N.3       1 <0>        -0.5416
      3 C2          0.7127   -0.5279    1.1839 C.3       1 <0>         0.0267
      4 C3          0.6934   -2.0581    1.1857 C.3       1 <0>        -0.0135
      5 N2          1.2823   -2.5567   -0.0641 N.4       1 <0>        -0.3883
      6 C4          2.6745   -2.1002   -0.1677 C.3       1 <0>        -0.0111
      7 C5          2.7103   -0.5705   -0.1807 C.3       1 <0>         0.0278
      8 C6          1.2470   -4.0253   -0.0699 C.3       1 <0>         0.0990
      9 H1          0.2105   -4.3357    0.0618 H         1 <0>         0.1437
     10 C7          2.0286   -4.5113    1.1076 C.3       1 <0>        -0.1200
     11 C8          1.7854   -5.9545    1.4061 C.ar      1 <0>        -0.0629
     12 C9          0.9485   -6.3002    2.4606 C.ar      1 <0>        -0.1120
     13 C10         0.6913   -7.6331    2.7210 C.ar      1 <0>        -0.0869
     14 C11         1.2561   -8.6235    1.9376 C.ar      1 <0>        -0.1051
     15 C12         2.0989   -8.2801    0.8966 C.ar      1 <0>        -0.0597
     16 C13         2.3653   -6.9361    0.6580 C.ar      1 <0>        -0.1311
     17 S1          3.5035   -6.4624   -0.5952 S.3       1 <0>         0.0267
     18 C14         2.5965   -5.4904   -1.7429 C.ar      1 <0>        -0.0737
     19 C15         1.7056   -4.4963   -1.4217 C.ar      1 <0>        -0.0987
     20 C16         1.0962   -3.7891   -2.4692 C.ar      1 <0>        -0.1357
     21 C17         1.3460   -4.0751   -3.7894 C.ar      1 <0>        -0.0094
     22 C18         2.2259   -5.0949   -4.1096 C.ar      1 <0>        -0.0773
     23 C19         2.8388   -5.7856   -3.0964 C.ar      1 <0>        -0.0627
     24 Cl1         0.5656   -3.1654   -5.0452 Cl        1 <0>        -0.0338
     25 H2          1.6317    1.8260    0.2520 H         1 <0>         0.0397
     26 H3          1.7067    1.7605    2.0292 H         1 <0>         0.0845
     27 H4          3.2078    1.7261    1.0732 H         1 <0>         0.0851
     28 H5          0.2893   -0.1578    2.1177 H         1 <0>         0.1268
     29 H6          0.1233   -0.1577    0.3450 H         1 <0>         0.0609
     30 H7          1.2715   -2.4277    2.0325 H         1 <0>         0.1446
     31 H8         -0.3356   -2.4083    1.2676 H         1 <0>         0.1385
     32 H9          3.2425   -2.4697    0.6861 H         1 <0>         0.1426
     33 H10         3.1144   -2.4818   -1.0892 H         1 <0>         0.1353
     34 H11         2.1539   -0.2010   -1.0421 H         1 <0>         0.0604
     35 H12         3.7444   -0.2314   -0.2426 H         1 <0>         0.1259
     36 H13         3.0905   -4.3673    0.9087 H         1 <0>         0.1140
     37 H14         1.7531   -3.9202    1.9809 H         1 <0>         0.1119
     38 H15         0.5018   -5.5314    3.0735 H         1 <0>         0.1335
     39 H16         0.0442   -7.9034    3.5423 H         1 <0>         0.1367
     40 H17         1.0396   -9.6623    2.1388 H         1 <0>         0.1404
     41 H18         2.5444   -9.0448    0.2777 H         1 <0>         0.1440
     42 H19         0.4071   -2.9929   -2.2293 H         1 <0>         0.1247
     43 H20         2.4255   -5.3430   -5.1416 H         1 <0>         0.1573
     44 H21         3.5284   -6.5787   -3.3452 H         1 <0>         0.1555
     45 H22         0.7539   -2.2050   -0.8485 H         1 <0>         0.4179
@<TRIPOS>BOND
     1    1    2 1
     2    1   25 1
     3    1   26 1
     4    1   27 1
     5    2    7 1
     6    2    3 1
     7    3    4 1
     8    3   28 1
     9    3   29 1
    10    4    5 1
    11    4   30 1
    12    4   31 1
    13    5    6 1
    14    5    8 1
    15    5   45 1
    16    6    7 1
    17    6   32 1
    18    6   33 1
    19    7   34 1
    20    7   35 1
    21    8    9 1
    22    8   19 1
    23    8   10 1
    24   10   11 1
    25   10   36 1
    26   10   37 1
    27   11   16 ar
    28   11   12 ar
    29   12   13 ar
    30   12   38 1
    31   13   14 ar
    32   13   39 1
    33   14   15 ar
    34   14   40 1
    35   15   16 ar
    36   15   41 1
    37   16   17 1
    38   17   18 1
    39   18   23 ar
    40   18   19 ar
    41   19   20 ar
    42   20   21 ar
    43   20   42 1
    44   21   22 ar
    45   21   24 1
    46   22   23 ar
    47   22   43 1
    48   23   44 1
@<TRIPOS>MOLECULE
ZINC03872167
   60    64     0     0     0
SMALL
USER_CHARGES

@<TRIPOS>ATOM
      1 C1          0.0307    1.3911   -0.3255 C.3       1 <0>         0.0160
      2 O1          0.0486   -0.0377   -0.3407 O.3       1 <0>        -0.2904
      3 C2         -1.1543   -0.6709   -0.2951 C.ar      1 <0>         0.1134
      4 C3         -2.3037    0.0655   -0.2436 C.ar      1 <0>        -0.1164
      5 C4         -3.5427   -0.5847   -0.1970 C.ar      1 <0>        -0.1893
      6 C5         -3.5978   -2.0001   -0.2035 C.ar      1 <0>         0.2203
      7 C6         -2.4074   -2.7351   -0.2566 C.ar      1 <0>        -0.2301
      8 C7         -1.2011   -2.0713   -0.3072 C.ar      1 <0>         0.2159
      9 O2         -0.0448   -2.7819   -0.3644 O.3       1 <0>        -0.2786
     10 C8         -0.1585   -4.2064   -0.3739 C.3       1 <0>         0.0129
     11 N1         -4.7979   -2.6007   -0.1587 N.ar      1 <0>        -0.5859
     12 C9         -5.9026   -1.8818   -0.1095 C.ar      1 <0>         0.6778
     13 N2         -5.8953   -0.5517   -0.1021 N.ar      1 <0>        -0.5767
     14 C10        -4.7620    0.1337   -0.1432 C.ar      1 <0>         0.5492
     15 N3         -4.7696    1.5131   -0.1339 N.pl3     1 <0>        -0.7733
     16 N4         -7.1198   -2.5386   -0.0644 N.pl3     1 <0>        -0.5620
     17 C11        -7.1990   -4.0031   -0.1996 C.3       1 <0>         0.0882
     18 C12        -8.1705   -4.3562   -1.3305 C.3       1 <0>         0.0796
     19 N5         -9.4110   -3.5793   -1.1686 N.am      1 <0>        -0.6121
     20 C13        -9.2972   -2.1228   -1.0606 C.3       1 <0>         0.1412
     21 C14        -8.3708   -1.8006    0.1255 C.3       1 <0>         0.1364
     22 H1         -8.8427   -2.1209    1.0543 H         1 <0>         0.1003
     23 C15        -8.1378   -0.2936    0.1754 C.3       1 <0>        -0.0998
     24 C16        -9.4838    0.4032    0.4043 C.3       1 <0>        -0.1273
     25 C17       -10.4556    0.0563   -0.7232 C.3       1 <0>        -0.1289
     26 C18       -10.6522   -1.4654   -0.8156 C.3       1 <0>        -0.1112
     27 C19       -10.6123   -4.1885   -1.1216 C.2       1 <0>         0.6129
     28 O3        -11.6314   -3.5237   -1.1034 O.2       1 <0>        -0.4934
     29 C20       -10.6913   -5.6527   -1.0925 C.2       1 <0>        -0.0996
     30 C21       -11.8327   -6.3966   -1.1828 C.2       1 <0>        -0.0991
     31 C22       -11.4433   -7.7433   -1.1127 C.2       1 <0>        -0.2179
     32 C23       -10.0983   -7.7622   -0.9843 C.2       1 <0>        -0.0046
     33 O4         -9.6483   -6.5007   -0.9776 O.3       1 <0>        -0.1711
     34 H2          1.0528    1.7678   -0.3659 H         1 <0>         0.1171
     35 H3         -0.5256    1.7567   -1.1886 H         1 <0>         0.0634
     36 H4         -0.4487    1.7388    0.5896 H         1 <0>         0.0635
     37 H5         -2.2568    1.1445   -0.2384 H         1 <0>         0.1583
     38 H6         -2.4347   -3.8148   -0.2622 H         1 <0>         0.1666
     39 H7          0.8361   -4.6499   -0.4214 H         1 <0>         0.1200
     40 H8         -0.6606   -4.5368    0.5354 H         1 <0>         0.0681
     41 H9         -0.7376   -4.5189   -1.2428 H         1 <0>         0.0681
     42 H10        -3.9329    2.0029   -0.1644 H         1 <0>         0.4279
     43 H11        -5.6116    1.9932   -0.0969 H         1 <0>         0.4304
     44 H12        -6.2110   -4.4009   -0.4312 H         1 <0>         0.0937
     45 H13        -7.5559   -4.4358    0.7350 H         1 <0>         0.1088
     46 H14        -7.7137   -4.1161   -2.2906 H         1 <0>         0.0841
     47 H15        -8.4007   -5.4210   -1.2930 H         1 <0>         0.1384
     48 H16        -8.8619   -1.7246   -1.9772 H         1 <0>         0.0856
     49 H17        -7.4587   -0.0554    0.9941 H         1 <0>         0.0891
     50 H18        -7.7082    0.0416   -0.7686 H         1 <0>         0.0892
     51 H19        -9.9028    0.0758    1.3558 H         1 <0>         0.0655
     52 H20        -9.3320    1.4822    0.4311 H         1 <0>         0.0749
     53 H21       -11.4155    0.5363   -0.5332 H         1 <0>         0.0762
     54 H22       -10.0544    0.4182   -1.6699 H         1 <0>         0.0634
     55 H23       -11.3294   -1.7069   -1.6348 H         1 <0>         0.1024
     56 H24       -11.0688   -1.8258    0.1249 H         1 <0>         0.0762
     57 H25       -12.8400   -6.0214   -1.2877 H         1 <0>         0.1640
     58 H26       -12.0960   -8.6028   -1.1534 H         1 <0>         0.1620
     59 H27        -9.4865   -8.6486   -0.9039 H         1 <0>         0.2143
     60 H28        -4.8527   -3.5691   -0.1627 H         1 <0>         0.4325
@<TRIPOS>BOND
     1    1    2 1
     2    1   34 1
     3    1   35 1
     4    1   36 1
     5    2    3 1
     6    3    8 ar
     7    3    4 ar
     8    4    5 ar
     9    4   37 1
    10    5   14 ar
    11    5    6 ar
    12    6    7 ar
    13    6   11 ar
    14    7    8 ar
    15    7   38 1
    16    8    9 1
    17    9   10 1
    18   10   39 1
    19   10   40 1
    20   10   41 1
    21   11   12 ar
    22   11   60 1
    23   12   13 ar
    24   12   16 1
    25   13   14 ar
    26   14   15 1
    27   15   42 1
    28   15   43 1
    29   16   21 1
    30   16   17 1
    31   17   18 1
    32   17   44 1
    33   17   45 1
    34   18   19 1
    35   18   46 1
    36   18   47 1
    37   19   20 1
    38   19   27 am
    39   20   26 1
    40   20   21 1
    41   20   48 1
    42   21   22 1
    43   21   23 1
    44   23   24 1
    45   23   49 1
    46   23   50 1
    47   24   25 1
    48   24   51 1
    49   24   52 1
    50   25   26 1
    51   25   53 1
    52   25   54 1
    53   26   55 1
    54   26   56 1
    55   27   28 2
    56   27   29 1
    57   29   33 1
    58   29   30 2
    59   30   31 1
    60   30   57 1
    61   31   32 2
    62   31   58 1
    63   32   33 1
    64   32   59 1
@<TRIPOS>MOLECULE
ZINC03872168
   59    63     0     0     0
SMALL
USER_CHARGES
[4-(4-amino-6,7-dimethoxy-quinazolin-2-yl)-2,3,4a,5,6,7,8,8a-octahydroquinoxalin-1-yl]-(2-furyl)methanone
@<TRIPOS>ATOM
      1 C1        -10.9735   -2.0040    5.5111 C.3       1 <0>         0.0223
      2 O1         -9.7581   -1.5843    6.1346 O.3       1 <0>        -0.3018
      3 C2         -8.7581   -1.1610    5.3155 C.ar      1 <0>         0.1023
      4 C3         -8.9500   -1.1539    3.9631 C.ar      1 <0>        -0.1401
      5 C4         -7.9214   -0.7189    3.1187 C.ar      1 <0>        -0.1967
      6 C5         -6.6894   -0.2893    3.6702 C.ar      1 <0>         0.2114
      7 C6         -6.5143   -0.3049    5.0591 C.ar      1 <0>        -0.1875
      8 C7         -7.5421   -0.7374    5.8683 C.ar      1 <0>         0.1647
      9 O2         -7.3747   -0.7539    7.2164 O.3       1 <0>        -0.2977
     10 C8         -6.1128   -0.3102    7.7189 C.3       1 <0>         0.0212
     11 N1         -5.7162    0.1178    2.8395 N.ar      1 <0>        -0.5653
     12 C9         -5.9120    0.1259    1.5352 C.ar      1 <0>         0.5388
     13 N2         -7.0528   -0.2690    0.9768 N.ar      1 <0>        -0.5701
     14 C10        -8.0713   -0.6932    1.7107 C.ar      1 <0>         0.4861
     15 N3         -9.2484   -1.1001    1.1178 N.pl3     1 <0>        -0.8202
     16 N4         -4.8859    0.5580    0.7133 N.pl3     1 <0>        -0.4704
     17 C11        -3.6586   -0.2129    0.9537 C.3       1 <0>         0.0487
     18 C12        -2.6008    0.1669   -0.0875 C.3       1 <0>         0.0995
     19 N5         -2.4360    1.6295   -0.0783 N.am      1 <0>        -0.5935
     20 C13        -3.6446    2.4587   -0.1736 C.3       1 <0>         0.1635
     21 H1         -4.0898    2.3353   -1.1608 H         1 <0>         0.0835
     22 C14        -4.6424    2.0003    0.8868 C.3       1 <0>         0.0895
     23 H2         -5.5809    2.5462    0.7906 H         1 <0>         0.0952
     24 C15        -4.0503    2.2322    2.2793 C.3       1 <0>        -0.1505
     25 C16        -3.7265    3.7150    2.4640 C.3       1 <0>        -0.1219
     26 C17        -2.6998    4.1420    1.4119 C.3       1 <0>        -0.1224
     27 C18        -3.2913    3.9291    0.0175 C.3       1 <0>        -0.1137
     28 C19        -1.2145    2.1905    0.0199 C.2       1 <0>         0.5923
     29 O3         -1.0980    3.4017    0.0031 O.2       1 <0>        -0.4932
     30 C20        -0.0256    1.3412    0.1471 C.2       1 <0>        -0.0800
     31 C21         1.2470    1.7733    0.3887 C.2       1 <0>        -0.1183
     32 C22         2.0610    0.6304    0.4253 C.2       1 <0>        -0.2218
     33 C23         1.2599   -0.4357    0.2071 C.2       1 <0>        -0.0145
     34 O4          0.0033   -0.0034    0.0399 O.3       1 <0>        -0.1609
     35 H3        -11.6852   -2.3158    6.2756 H         1 <0>         0.1059
     36 H4        -11.3935   -1.1761    4.9398 H         1 <0>         0.0568
     37 H5        -10.7690   -2.8401    4.8424 H         1 <0>         0.0568
     38 H6         -9.8909   -1.4826    3.5471 H         1 <0>         0.1396
     39 H7         -5.5804    0.0203    5.4932 H         1 <0>         0.1526
     40 H8         -5.3197   -0.9411    7.3176 H         1 <0>         0.0610
     41 H9         -5.9438    0.7230    7.4154 H         1 <0>         0.0611
     42 H10        -6.1122   -0.3739    8.8070 H         1 <0>         0.1067
     43 H11        -9.3381   -1.0779    0.1522 H         1 <0>         0.4145
     44 H12        -9.9865   -1.4085    1.6665 H         1 <0>         0.4115
     45 H13        -3.8779   -1.2779    0.8764 H         1 <0>         0.0865
     46 H14        -3.2809    0.0079    1.9520 H         1 <0>         0.0680
     47 H15        -2.9266   -0.1584   -1.0755 H         1 <0>         0.0829
     48 H16        -1.6523   -0.3097    0.1602 H         1 <0>         0.1175
     49 H17        -4.7710    1.9217    3.0358 H         1 <0>         0.0890
     50 H18        -3.1372    1.6467    2.3869 H         1 <0>         0.0663
     51 H19        -4.6360    4.3038    2.3449 H         1 <0>         0.0552
     52 H20        -3.3161    3.8766    3.4607 H         1 <0>         0.0586
     53 H21        -2.4563    5.1958    1.5473 H         1 <0>         0.0575
     54 H22        -1.7960    3.5425    1.5207 H         1 <0>         0.0902
     55 H23        -4.1912    4.5347   -0.0902 H         1 <0>         0.0594
     56 H24        -2.5622    4.2303   -0.7347 H         1 <0>         0.0984
     57 H25         1.5655    2.7962    0.5248 H         1 <0>         0.1598
     58 H26         3.1272    0.6074    0.5963 H         1 <0>         0.1564
     59 H27         1.5800   -1.4666    0.1735 H         1 <0>         0.2091
@<TRIPOS>BOND
     1    1    2 1
     2    1   35 1
     3    1   36 1
     4    1   37 1
     5    2    3 1
     6    3    8 ar
     7    3    4 ar
     8    4    5 ar
     9    4   38 1
    10    5   14 ar
    11    5    6 ar
    12    6    7 ar
    13    6   11 ar
    14    7    8 ar
    15    7   39 1
    16    8    9 1
    17    9   10 1
    18   10   40 1
    19   10   41 1
    20   10   42 1
    21   11   12 ar
    22   12   13 ar
    23   12   16 1
    24   13   14 ar
    25   14   15 1
    26   15   43 1
    27   15   44 1
    28   16   22 1
    29   16   17 1
    30   17   18 1
    31   17   45 1
    32   17   46 1
    33   18   19 1
    34   18   47 1
    35   18   48 1
    36   19   20 1
    37   19   28 am
    38   20   21 1
    39   20   27 1
    40   20   22 1
    41   22   23 1
    42   22   24 1
    43   24   25 1
    44   24   49 1
    45   24   50 1
    46   25   26 1
    47   25   51 1
    48   25   52 1
    49   26   27 1
    50   26   53 1
    51   26   54 1
    52   27   55 1
    53   27   56 1
    54   28   29 2
    55   28   30 1
    56   30   34 1
    57   30   31 2
    58   31   32 1
    59   31   57 1
    60   32   33 2
    61   32   58 1
    62   33   34 1
    63   33   59 1
