@<TRIPOS>MOLECULE
ZINC52956332
   66    69     0     0     0
SMALL
USER_CHARGES

@<TRIPOS>ATOM
      1 C1         -0.2570   -0.0396   -0.2249 C.3       1 <0>        -0.1481
      2 C2         -0.4777   -1.5512   -0.1410 C.3       1 <0>         0.0719
      3 C3          0.2510   -2.1058    1.0847 C.3       1 <0>        -0.1743
      4 O1         -1.8760   -1.8229   -0.0272 O.3       1 <0>        -0.2968
      5 C4         -2.3308   -2.9699   -0.5993 C.ar      1 <0>         0.1238
      6 C5         -1.4369   -3.8709   -1.1538 C.ar      1 <0>        -0.2108
      7 C6         -1.9007   -5.0365   -1.7356 C.ar      1 <0>        -0.0833
      8 C7         -3.2562   -5.3067   -1.7656 C.ar      1 <0>        -0.1528
      9 C8         -4.1549   -4.4130   -1.2140 C.ar      1 <0>        -0.0865
     10 C9         -3.6965   -3.2442   -0.6239 C.ar      1 <0>         0.1375
     11 N1         -4.6040   -2.3403   -0.0596 N.pl3     1 <0>        -0.6674
     12 C10        -5.1972   -1.2631   -0.8665 C.3       1 <0>         0.1547
     13 C11        -5.0050    0.0635   -0.1240 C.3       1 <0>         0.0426
     14 N2         -5.5408   -0.0593    1.2382 N.3       1 <0>        -0.5278
     15 C12        -4.8056   -1.0693    2.0110 C.3       1 <0>         0.0391
     16 C13        -4.9943   -2.4462    1.3545 C.3       1 <0>         0.1554
     17 C14        -5.5326    1.2387    1.9262 C.3       1 <0>         0.0947
     18 C15        -6.3064    1.1292    3.2147 C.ar      1 <0>        -0.0813
     19 C16        -7.6662    1.3854    3.2273 C.ar      1 <0>        -0.0744
     20 C17        -8.3840    1.2867    4.4058 C.ar      1 <0>        -0.1211
     21 C18        -7.7471    0.9321    5.5774 C.ar      1 <0>        -0.0675
     22 C19        -6.3760    0.6723    5.5716 C.ar      1 <0>        -0.1273
     23 C20        -5.6587    0.7682    4.3778 C.ar      1 <0>        -0.0879
     24 C21        -5.6870    0.2923    6.8233 C.2       1 <0>         0.5617
     25 O2         -6.1780   -0.5424    7.5580 O.2       1 <0>        -0.5326
     26 N3         -4.5146    0.8713    7.1497 N.am      1 <0>        -0.6059
     27 C22        -3.8640    1.8148    6.2303 C.3       1 <0>         0.0916
     28 C23        -3.5771    3.1180    6.9827 C.3       1 <0>        -0.1360
     29 C24        -2.7654    2.8071    8.2423 C.3       1 <0>        -0.1214
     30 C25        -3.5758    1.8882    9.1594 C.3       1 <0>        -0.1356
     31 C26        -3.8657    0.5757    8.4343 C.3       1 <0>         0.1105
     32 H1          0.8096    0.1676   -0.3117 H         1 <0>         0.0754
     33 H2         -0.7761    0.3555   -1.0981 H         1 <0>         0.0627
     34 H3         -0.6472    0.4351    0.6754 H         1 <0>         0.0636
     35 H4         -0.0875   -2.0259   -1.0413 H         1 <0>         0.0742
     36 H5         -0.1393   -1.6311    1.9850 H         1 <0>         0.0650
     37 H6          0.0937   -3.1828    1.1445 H         1 <0>         0.0608
     38 H7          1.3176   -1.8986    0.9979 H         1 <0>         0.0710
     39 H8         -0.3773   -3.6629   -1.1321 H         1 <0>         0.1279
     40 H9         -1.2021   -5.7375   -2.1681 H         1 <0>         0.1235
     41 H10        -3.6139   -6.2182   -2.2214 H         1 <0>         0.1239
     42 H11        -5.2133   -4.6264   -1.2391 H         1 <0>         0.1282
     43 H12        -4.7006   -1.2157   -1.8356 H         1 <0>         0.0685
     44 H13        -6.2613   -1.4538   -1.0061 H         1 <0>         0.0563
     45 H14        -3.9427    0.3033   -0.0768 H         1 <0>         0.0406
     46 H15        -5.5341    0.8563   -0.6529 H         1 <0>         0.0772
     47 H16        -3.7461   -0.8138    2.0285 H         1 <0>         0.0394
     48 H17        -5.1901   -1.0982    3.0305 H         1 <0>         0.0783
     49 H18        -6.0393   -2.7483    1.4243 H         1 <0>         0.0563
     50 H19        -4.3636   -3.1812    1.8544 H         1 <0>         0.0674
     51 H20        -4.5044    1.5283    2.1433 H         1 <0>         0.0422
     52 H21        -5.9950    1.9913    1.2875 H         1 <0>         0.0858
     53 H22        -8.1693    1.6640    2.3132 H         1 <0>         0.1285
     54 H23        -9.4450    1.4880    4.4089 H         1 <0>         0.1309
     55 H24        -8.3085    0.8561    6.4969 H         1 <0>         0.1292
     56 H25        -4.5982    0.5642    4.3658 H         1 <0>         0.1264
     57 H26        -2.9283    1.3874    5.8698 H         1 <0>         0.0700
     58 H27        -4.5244    2.0175    5.3871 H         1 <0>         0.0990
     59 H28        -3.0089    3.7912    6.3407 H         1 <0>         0.0765
     60 H29        -4.5182    3.5906    7.2637 H         1 <0>         0.0681
     61 H30        -1.8355    2.3122    7.9621 H         1 <0>         0.0648
     62 H31        -2.5388    3.7354    8.7666 H         1 <0>         0.0672
     63 H32        -3.0066    1.6860   10.0668 H         1 <0>         0.0777
     64 H33        -4.5169    2.3723    9.4200 H         1 <0>         0.0669
     65 H34        -4.5272   -0.0389    9.0449 H         1 <0>         0.0936
     66 H35        -2.9302    0.0450    8.2576 H         1 <0>         0.0683
@<TRIPOS>BOND
     1    1    2 1
     2    1   32 1
     3    1   33 1
     4    1   34 1
     5    2    3 1
     6    2    4 1
     7    2   35 1
     8    3   36 1
     9    3   37 1
    10    3   38 1
    11    4    5 1
    12    5   10 ar
    13    5    6 ar
    14    6    7 ar
    15    6   39 1
    16    7    8 ar
    17    7   40 1
    18    8    9 ar
    19    8   41 1
    20    9   10 ar
    21    9   42 1
    22   10   11 1
    23   11   16 1
    24   11   12 1
    25   12   13 1
    26   12   43 1
    27   12   44 1
    28   13   14 1
    29   13   45 1
    30   13   46 1
    31   14   15 1
    32   14   17 1
    33   15   16 1
    34   15   47 1
    35   15   48 1
    36   16   49 1
    37   16   50 1
    38   17   18 1
    39   17   51 1
    40   17   52 1
    41   18   23 ar
    42   18   19 ar
    43   19   20 ar
    44   19   53 1
    45   20   21 ar
    46   20   54 1
    47   21   22 ar
    48   21   55 1
    49   22   23 ar
    50   22   24 1
    51   23   56 1
    52   24   25 2
    53   24   26 am
    54   26   31 1
    55   26   27 1
    56   27   28 1
    57   27   57 1
    58   27   58 1
    59   28   29 1
    60   28   59 1
    61   28   60 1
    62   29   30 1
    63   29   61 1
    64   29   62 1
    65   30   31 1
    66   30   63 1
    67   30   64 1
    68   31   65 1
    69   31   66 1
@<TRIPOS>MOLECULE
ZINC02581459
   41    43     0     0     0
SMALL
USER_CHARGES

@<TRIPOS>ATOM
      1 C1         -0.1339    1.9422   -2.4462 C.3       1 <0>        -0.6728
      2 S1         -0.3197    0.7725   -1.0722 S.o2      1 <0>         2.5956
      3 O1          0.2181    1.3283    0.1199 O.2       1 <0>        -0.9097
      4 O2         -1.6232    0.2068   -1.0840 O.2       1 <0>        -0.9459
      5 N1          0.6903   -0.4857   -1.4450 N.pl3     1 <0>        -1.0607
      6 C2          2.0674   -0.2659   -1.5645 C.ar      1 <0>         0.1032
      7 C3          2.7939    0.1829   -0.4668 C.ar      1 <0>         0.1368
      8 C4          4.1563    0.3977   -0.5896 C.ar      1 <0>        -0.1258
      9 C5          4.7815    0.1624   -1.7975 C.ar      1 <0>        -0.1043
     10 C6          4.0591   -0.2867   -2.8955 C.ar      1 <0>        -0.1117
     11 C7          2.7038   -0.5034   -2.7811 C.ar      1 <0>        -0.0352
     12 C8          1.8585   -0.9795   -3.9333 C.3       1 <0>        -0.0953
     13 C9          2.7337   -1.5916   -5.0251 C.3       1 <0>        -0.1172
     14 C10         3.8537   -0.5997   -5.3603 C.3       1 <0>        -0.1241
     15 C11         4.8123   -0.5280   -4.1778 C.3       1 <0>        -0.0228
     16 H1          5.3493   -1.4739   -4.1067 H         1 <0>         0.1398
     17 C12         5.8011    0.5891   -4.3911 C.cat     1 <0>         0.5221
     18 N2          5.4951    1.6856   -5.0439 N.pl3     1 <0>        -0.6264
     19 C13         6.6681    2.5739   -5.0785 C.3       1 <0>         0.0552
     20 C14         7.7385    1.7737   -4.3076 C.3       1 <0>         0.0564
     21 N3          7.0299    0.5393   -3.9330 N.pl3     1 <0>        -0.6339
     22 O3          2.1698    0.4099    0.7202 O.3       1 <0>        -0.4533
     23 H2          0.9146    2.2232   -2.5449 H         1 <0>         0.1216
     24 H3         -0.4732    1.4742   -3.3703 H         1 <0>         0.1286
     25 H4         -0.7315    2.8322   -2.2490 H         1 <0>         0.1355
     26 H5          0.3276   -1.3751   -1.5805 H         1 <0>         0.4272
     27 H6          4.7278    0.7486    0.2569 H         1 <0>         0.1456
     28 H7          5.8445    0.3297   -1.8900 H         1 <0>         0.1206
     29 H8          1.1531   -1.7295   -3.5756 H         1 <0>         0.0928
     30 H9          1.3061   -0.1356   -4.3465 H         1 <0>         0.0887
     31 H10         3.1659   -2.5263   -4.6681 H         1 <0>         0.0815
     32 H11         2.1325   -1.7807   -5.9144 H         1 <0>         0.0917
     33 H12         4.3881   -0.9359   -6.2489 H         1 <0>         0.0936
     34 H13         3.4282    0.3878   -5.5389 H         1 <0>         0.0747
     35 H14         6.9862    2.7515   -6.1059 H         1 <0>         0.1287
     36 H15         6.4531    3.5152   -4.5730 H         1 <0>         0.1279
     37 H16         8.5905    1.5521   -4.9503 H         1 <0>         0.1289
     38 H17         8.0573    2.3159   -3.4174 H         1 <0>         0.1279
     39 H18         7.4115   -0.1961   -3.4284 H         1 <0>         0.4601
     40 H19         2.0766   -0.3783    1.2726 H         1 <0>         0.3958
     41 H20         4.6319    1.8799   -5.4415 H         1 <0>         0.4586
@<TRIPOS>BOND
     1    1    2 1
     2    1   23 1
     3    1   24 1
     4    1   25 1
     5    2    3 2
     6    2    4 2
     7    2    5 1
     8    5    6 1
     9    5   26 1
    10    6   11 ar
    11    6    7 ar
    12    7    8 ar
    13    7   22 1
    14    8    9 ar
    15    8   27 1
    16    9   10 ar
    17    9   28 1
    18   10   15 1
    19   10   11 ar
    20   11   12 1
    21   12   13 1
    22   12   29 1
    23   12   30 1
    24   13   14 1
    25   13   31 1
    26   13   32 1
    27   14   15 1
    28   14   33 1
    29   14   34 1
    30   15   16 1
    31   15   17 1
    32   17   21 1
    33   17   18 2
    34   18   19 1
    35   18   41 1
    36   19   20 1
    37   19   35 1
    38   19   36 1
    39   20   21 1
    40   20   37 1
    41   20   38 1
    42   21   39 1
    43   22   40 1
@<TRIPOS>MOLECULE
ZINC03995494
   41    43     0     0     0
SMALL
USER_CHARGES

@<TRIPOS>ATOM
      1 C1         -0.1291    1.9418   -2.4489 C.3       1 <0>        -0.6719
      2 S1         -0.3204    0.7721   -1.0756 S.o2      1 <0>         2.5947
      3 O1          0.2134    1.3276    0.1184 O.2       1 <0>        -0.9101
      4 O2         -1.6241    0.2069   -1.0920 O.2       1 <0>        -0.9468
      5 N1          0.6905   -0.4866   -1.4447 N.pl3     1 <0>        -1.0607
      6 C2          2.0675   -0.2663   -1.5644 C.ar      1 <0>         0.1037
      7 C3          2.7939    0.1829   -0.4668 C.ar      1 <0>         0.1364
      8 C4          4.1557    0.4005   -0.5905 C.ar      1 <0>        -0.1256
      9 C5          4.7795    0.1730   -1.8006 C.ar      1 <0>        -0.1059
     10 C6          4.0569   -0.2747   -2.8989 C.ar      1 <0>        -0.1111
     11 C7          2.7039   -0.5038   -2.7809 C.ar      1 <0>        -0.0358
     12 C8          1.8642   -1.0101   -3.9244 C.3       1 <0>        -0.0945
     13 C9          2.5887   -0.8089   -5.2537 C.3       1 <0>        -0.1188
     14 C10         4.0006   -1.3933   -5.1286 C.3       1 <0>        -0.1258
     15 C11         4.8059   -0.4934   -4.1878 C.3       1 <0>        -0.0216
     16 H1          4.9904    0.4695   -4.6641 H         1 <0>         0.1424
     17 C12         6.1241   -1.1600   -3.8895 C.cat     1 <0>         0.5214
     18 N2          6.2875   -2.4603   -3.9581 N.pl3     1 <0>        -0.6265
     19 C13         7.6784   -2.7943   -3.6119 C.3       1 <0>         0.0554
     20 C14         8.3096   -1.4166   -3.3223 C.3       1 <0>         0.0562
     21 N3          7.1947   -0.4824   -3.5474 N.pl3     1 <0>        -0.6348
     22 O3          2.1702    0.4075    0.7209 O.3       1 <0>        -0.4521
     23 H2          0.9177    2.2331   -2.5348 H         1 <0>         0.1247
     24 H3         -0.4521    1.4691   -3.3764 H         1 <0>         0.1284
     25 H4         -0.7380    2.8260   -2.2605 H         1 <0>         0.1361
     26 H5          0.3283   -1.3765   -1.5780 H         1 <0>         0.4267
     27 H6          4.7280    0.7476    0.2572 H         1 <0>         0.1458
     28 H7          5.8415    0.3455   -1.8945 H         1 <0>         0.1203
     29 H8          1.6646   -2.0720   -3.7810 H         1 <0>         0.0922
     30 H9          0.9193   -0.4670   -3.9443 H         1 <0>         0.0885
     31 H10         2.0477   -1.3230   -6.0481 H         1 <0>         0.0917
     32 H11         2.6508    0.2555   -5.4805 H         1 <0>         0.0809
     33 H12         3.9451   -2.4038   -4.7237 H         1 <0>         0.0778
     34 H13         4.4769   -1.4157   -6.1088 H         1 <0>         0.0933
     35 H14         7.7129   -3.4274   -2.7253 H         1 <0>         0.1276
     36 H15         8.1784   -3.2778   -4.4511 H         1 <0>         0.1285
     37 H16         8.6589   -1.3624   -2.2912 H         1 <0>         0.1280
     38 H17         9.1244   -1.2129   -4.0170 H         1 <0>         0.1282
     39 H18         7.2431    0.4820   -3.4555 H         1 <0>         0.4598
     40 H19         2.0787   -0.3815    1.2725 H         1 <0>         0.3943
     41 H20         5.5996   -3.1006   -4.1986 H         1 <0>         0.4587
@<TRIPOS>BOND
     1    1    2 1
     2    1   23 1
     3    1   24 1
     4    1   25 1
     5    2    3 2
     6    2    4 2
     7    2    5 1
     8    5    6 1
     9    5   26 1
    10    6   11 ar
    11    6    7 ar
    12    7    8 ar
    13    7   22 1
    14    8    9 ar
    15    8   27 1
    16    9   10 ar
    17    9   28 1
    18   10   15 1
    19   10   11 ar
    20   11   12 1
    21   12   13 1
    22   12   29 1
    23   12   30 1
    24   13   14 1
    25   13   31 1
    26   13   32 1
    27   14   15 1
    28   14   33 1
    29   14   34 1
    30   15   16 1
    31   15   17 1
    32   17   21 1
    33   17   18 2
    34   18   19 1
    35   18   41 1
    36   19   20 1
    37   19   35 1
    38   19   36 1
    39   20   21 1
    40   20   37 1
    41   20   38 1
    42   21   39 1
    43   22   40 1
@<TRIPOS>MOLECULE
ZINC00020245
   46    48     0     0     0
SMALL
USER_CHARGES

@<TRIPOS>ATOM
      1 C1         -5.6836    1.3838    0.0162 C.3       1 <0>        -0.0473
      2 N1         -5.6620   -0.0833   -0.0564 N.4       1 <0>        -0.3868
      3 C2         -6.3713   -0.5242   -1.2649 C.3       1 <0>        -0.0522
      4 C3         -4.2702   -0.5505   -0.1076 C.3       1 <0>        -0.0086
      5 C4         -4.2434   -2.0795   -0.0575 C.3       1 <0>        -0.1781
      6 C5         -2.7938   -2.5661   -0.1108 C.3       1 <0>         0.1490
      7 N2         -2.7704   -4.0309   -0.1190 N.pl3     1 <0>        -0.6108
      8 C6         -2.7295   -4.7451   -1.3212 C.ar      1 <0>         0.1758
      9 C7         -1.6865   -4.4783   -2.2022 C.ar      1 <0>        -0.1411
     10 C8         -1.5734   -5.1772   -3.3856 C.ar      1 <0>        -0.1022
     11 C9         -2.5089   -6.1508   -3.6854 C.ar      1 <0>        -0.1266
     12 C10        -3.5489   -6.4041   -2.8209 C.ar      1 <0>        -0.1101
     13 C11        -3.6933   -5.6947   -1.6266 C.ar      1 <0>        -0.0998
     14 C12        -4.9357   -6.0340   -0.8354 C.3       1 <0>        -0.0687
     15 C13        -5.1005   -5.1892    0.4158 C.3       1 <0>        -0.0773
     16 C14        -3.9592   -5.4030    1.3779 C.ar      1 <0>        -0.0996
     17 C15        -2.7824   -4.7590    1.0748 C.ar      1 <0>         0.1523
     18 C16        -1.6837   -4.8488    1.9126 C.ar      1 <0>        -0.1184
     19 C17        -1.7825   -5.6251    3.0560 C.ar      1 <0>        -0.1094
     20 C18        -2.9565   -6.2950    3.3488 C.ar      1 <0>        -0.1165
     21 C19        -4.0679   -6.1865    2.5030 C.ar      1 <0>        -0.1028
     22 H1         -6.7163    1.7305    0.0542 H         1 <0>         0.1245
     23 H2         -5.1573    1.7109    0.9129 H         1 <0>         0.1235
     24 H3         -5.1933    1.7984   -0.8646 H         1 <0>         0.1221
     25 H4         -6.3552   -1.6128   -1.3188 H         1 <0>         0.1231
     26 H5         -7.4040   -0.1775   -1.2269 H         1 <0>         0.1246
     27 H6         -5.8810   -0.1096   -2.1457 H         1 <0>         0.1227
     28 H7         -3.8061   -0.2091   -1.0329 H         1 <0>         0.1308
     29 H8         -3.7207   -0.1494    0.7440 H         1 <0>         0.1320
     30 H9         -4.7075   -2.4209    0.8678 H         1 <0>         0.0908
     31 H10        -4.7929   -2.4806   -0.9091 H         1 <0>         0.0915
     32 H11        -2.3174   -2.1901   -1.0161 H         1 <0>         0.0824
     33 H12        -2.2550   -2.1990    0.7627 H         1 <0>         0.0801
     34 H13        -0.9599   -3.7176   -1.9576 H         1 <0>         0.1215
     35 H14        -0.7646   -4.9667   -4.0697 H         1 <0>         0.1276
     36 H15        -2.4229   -6.7145   -4.6025 H         1 <0>         0.1250
     37 H16        -4.2693   -7.1687   -3.0712 H         1 <0>         0.1222
     38 H17        -5.8074   -5.8880   -1.4734 H         1 <0>         0.0793
     39 H18        -4.8898   -7.0837   -0.5452 H         1 <0>         0.0765
     40 H19        -5.1365   -4.1371    0.1334 H         1 <0>         0.0724
     41 H20        -6.0358   -5.4578    0.9068 H         1 <0>         0.0709
     42 H21        -0.7686   -4.3248    1.6795 H         1 <0>         0.1257
     43 H22        -0.9372   -5.7074    3.7231 H         1 <0>         0.1275
     44 H23        -3.0178   -6.9071    4.2365 H         1 <0>         0.1269
     45 H24        -4.9880   -6.7067    2.7249 H         1 <0>         0.1290
     46 H25        -6.1159   -0.4671    0.7589 H         1 <0>         0.4268
@<TRIPOS>BOND
     1    1    2 1
     2    1   22 1
     3    1   23 1
     4    1   24 1
     5    2    3 1
     6    2    4 1
     7    2   46 1
     8    3   25 1
     9    3   26 1
    10    3   27 1
    11    4    5 1
    12    4   28 1
    13    4   29 1
    14    5    6 1
    15    5   30 1
    16    5   31 1
    17    6    7 1
    18    6   32 1
    19    6   33 1
    20    7   17 1
    21    7    8 1
    22    8   13 ar
    23    8    9 ar
    24    9   10 ar
    25    9   34 1
    26   10   11 ar
    27   10   35 1
    28   11   12 ar
    29   11   36 1
    30   12   13 ar
    31   12   37 1
    32   13   14 1
    33   14   15 1
    34   14   38 1
    35   14   39 1
    36   15   16 1
    37   15   40 1
    38   15   41 1
    39   16   21 ar
    40   16   17 ar
    41   17   18 ar
    42   18   19 ar
    43   18   42 1
    44   19   20 ar
    45   19   43 1
    46   20   21 ar
    47   20   44 1
    48   21   45 1
@<TRIPOS>MOLECULE
ZINC53064442
   59    62     0     0     0
SMALL
USER_CHARGES

@<TRIPOS>ATOM
      1 C1         -0.0173    1.4248    0.0099 C.3       1 <0>         0.0252
      2 O1          0.0021   -0.0041    0.0020 O.3       1 <0>        -0.3038
      3 C2          0.6063   -0.6076   -1.0566 C.ar      1 <0>         0.1200
      4 C3          1.1727    0.1584   -2.0619 C.ar      1 <0>        -0.2067
      5 C4          1.7862   -0.4565   -3.1379 C.ar      1 <0>        -0.0837
      6 C5          1.8369   -1.8361   -3.2138 C.ar      1 <0>        -0.1522
      7 C6          1.2745   -2.6077   -2.2144 C.ar      1 <0>        -0.0880
      8 C7          0.6620   -1.9977   -1.1294 C.ar      1 <0>         0.1392
      9 N1          0.0968   -2.7768   -0.1132 N.pl3     1 <0>        -0.6682
     10 C8         -1.3056   -3.2137   -0.1884 C.3       1 <0>         0.1543
     11 C9         -1.3570   -4.7276    0.0431 C.3       1 <0>         0.0432
     12 N2         -0.6724   -5.0507    1.3020 N.3       1 <0>        -0.5286
     13 C10         0.7517   -4.6956    1.2405 C.3       1 <0>         0.0373
     14 C11         0.8913   -3.1855    1.0551 C.3       1 <0>         0.1540
     15 C12        -0.8472   -6.4678    1.6476 C.3       1 <0>         0.0496
     16 C13        -0.3417   -6.7116    3.0710 C.3       1 <0>         0.0947
     17 N3         -0.5160   -8.1248    3.4157 N.am      1 <0>        -0.5648
     18 C14        -1.6686   -8.5092    3.9834 C.2       1 <0>         0.5224
     19 O2         -2.5368   -7.6868    4.1818 O.2       1 <0>        -0.4928
     20 C15        -1.9055   -9.9436    4.3791 C.3       1 <0>        -0.1313
     21 C16        -1.0927  -10.8580    3.4640 C.3       1 <0>        -0.0666
     22 C17        -1.2370  -12.3190    3.9117 C.3       1 <0>        -0.1127
     23 C18        -1.8643  -13.0802    2.7242 C.3       1 <0>        -0.1253
     24 C19        -1.5011  -12.2210    1.4873 C.3       1 <0>        -0.1236
     25 C20        -1.6310  -10.7733    2.0249 C.3       1 <0>        -0.1241
     26 C21         0.3768  -10.4406    3.4955 C.3       1 <0>        -0.1304
     27 C22         0.4818   -8.9790    3.1448 C.2       1 <0>         0.5233
     28 O3          1.4894   -8.5664    2.6118 O.2       1 <0>        -0.4984
     29 H1          1.0053    1.8021    0.0021 H         1 <0>         0.0536
     30 H2         -0.5445    1.7859   -0.8732 H         1 <0>         0.0536
     31 H3         -0.5275    1.7763    0.9067 H         1 <0>         0.0992
     32 H4          1.1348    1.2363   -2.0057 H         1 <0>         0.1276
     33 H5          2.2267    0.1425   -3.9212 H         1 <0>         0.1244
     34 H6          2.3168   -2.3119   -4.0562 H         1 <0>         0.1237
     35 H7          1.3151   -3.6852   -2.2764 H         1 <0>         0.1250
     36 H8         -1.8890   -2.7058    0.5796 H         1 <0>         0.0594
     37 H9         -1.7097   -2.9800   -1.1734 H         1 <0>         0.0701
     38 H10        -2.3961   -5.0517    0.1006 H         1 <0>         0.0801
     39 H11        -0.8612   -5.2388   -0.7821 H         1 <0>         0.0352
     40 H12         1.2419   -4.9966    2.1663 H         1 <0>         0.0816
     41 H13         1.2181   -5.2073    0.3986 H         1 <0>         0.0367
     42 H14         1.9390   -2.9332    0.8918 H         1 <0>         0.0699
     43 H15         0.5231   -2.6749    1.9450 H         1 <0>         0.0584
     44 H16        -1.9037   -6.7288    1.5875 H         1 <0>         0.0781
     45 H17        -0.2804   -7.0845    0.9501 H         1 <0>         0.0366
     46 H18         0.7149   -6.4507    3.1310 H         1 <0>         0.0953
     47 H19        -0.9085   -6.0950    3.7685 H         1 <0>         0.1048
     48 H20        -1.5937  -10.0924    5.4129 H         1 <0>         0.1126
     49 H21        -2.9654  -10.1783    4.2802 H         1 <0>         0.1162
     50 H22        -0.2581  -12.7361    4.1480 H         1 <0>         0.0750
     51 H23        -1.8902  -12.3805    4.7822 H         1 <0>         0.0752
     52 H24        -1.4301  -14.0763    2.6375 H         1 <0>         0.0698
     53 H25        -2.9462  -13.1434    2.8404 H         1 <0>         0.0689
     54 H26        -0.4799  -12.4224    1.1636 H         1 <0>         0.0695
     55 H27        -2.2064  -12.3960    0.6750 H         1 <0>         0.0702
     56 H28        -2.6746  -10.4585    2.0255 H         1 <0>         0.0752
     57 H29        -1.0253  -10.0894    1.4303 H         1 <0>         0.0639
     58 H30         0.7821  -10.6095    4.4932 H         1 <0>         0.1130
     59 H31         0.9381  -11.0285    2.7693 H         1 <0>         0.1151
@<TRIPOS>BOND
     1    1    2 1
     2    1   29 1
     3    1   30 1
     4    1   31 1
     5    2    3 1
     6    3    8 ar
     7    3    4 ar
     8    4    5 ar
     9    4   32 1
    10    5    6 ar
    11    5   33 1
    12    6    7 ar
    13    6   34 1
    14    7    8 ar
    15    7   35 1
    16    8    9 1
    17    9   14 1
    18    9   10 1
    19   10   11 1
    20   10   36 1
    21   10   37 1
    22   11   12 1
    23   11   38 1
    24   11   39 1
    25   12   13 1
    26   12   15 1
    27   13   14 1
    28   13   40 1
    29   13   41 1
    30   14   42 1
    31   14   43 1
    32   15   16 1
    33   15   44 1
    34   15   45 1
    35   16   17 1
    36   16   46 1
    37   16   47 1
    38   17   27 am
    39   17   18 am
    40   18   19 2
    41   18   20 1
    42   20   21 1
    43   20   48 1
    44   20   49 1
    45   21   25 1
    46   21   22 1
    47   21   26 1
    48   22   23 1
    49   22   50 1
    50   22   51 1
    51   23   24 1
    52   23   52 1
    53   23   53 1
    54   24   25 1
    55   24   54 1
    56   24   55 1
    57   25   56 1
    58   25   57 1
    59   26   27 1
    60   26   58 1
    61   26   59 1
    62   27   28 2
@<TRIPOS>MOLECULE
ZINC00057624
   24    24     0     0     0
SMALL
USER_CHARGES

@<TRIPOS>ATOM
      1 C1         -0.0167    1.3779    0.0096 C.ar      1 <0>        -0.0981
      2 C2          1.1696    2.0886    0.0021 C.ar      1 <0>        -0.1236
      3 C3          2.3802    1.4154   -0.0130 C.ar      1 <0>         0.1055
      4 C4          2.3990    0.0236   -0.0206 C.ar      1 <0>         0.0900
      5 C5          1.2071   -0.6822   -0.0130 C.ar      1 <0>        -0.1137
      6 C6          0.0021   -0.0041    0.0020 C.ar      1 <0>        -0.1399
      7 C7         -1.2936   -0.7736    0.0102 C.3       1 <0>         0.1354
      8 H1         -1.1263   -1.7622    0.4376 H         1 <0>         0.1339
      9 C8         -1.8100   -0.9182   -1.4228 C.3       1 <0>        -0.0430
     10 N1         -3.0730   -1.6683   -1.4148 N.4       1 <0>        -0.6330
     11 O1         -2.2593   -0.0721    0.7960 O.3       1 <0>        -0.5475
     12 O2          3.5850   -0.6417   -0.0359 O.3       1 <0>        -0.4846
     13 O3          3.5476    2.1129   -0.0209 O.3       1 <0>        -0.4848
     14 H2         -0.9598    1.9038    0.0259 H         1 <0>         0.1309
     15 H3          1.1522    3.1684    0.0077 H         1 <0>         0.1437
     16 H4          1.2190   -1.7621   -0.0189 H         1 <0>         0.1389
     17 H5         -1.9772    0.0704   -1.8502 H         1 <0>         0.1398
     18 H6         -1.0734   -1.4533   -2.0221 H         1 <0>         0.1477
     19 H7         -2.9181   -2.5835   -1.0191 H         1 <0>         0.4371
     20 H8         -3.7548   -1.1730   -0.8600 H         1 <0>         0.4387
     21 H9         -2.4578    0.8175    0.4731 H         1 <0>         0.3897
     22 H10         3.9367   -0.8389    0.8430 H         1 <0>         0.3974
     23 H11         3.8938    2.3101    0.8602 H         1 <0>         0.3992
     24 H12        -3.4135   -1.7637   -2.3598 H         1 <0>         0.4402
@<TRIPOS>BOND
     1    1    6 ar
     2    1    2 ar
     3    1   14 1
     4    2    3 ar
     5    2   15 1
     6    3    4 ar
     7    3   13 1
     8    4    5 ar
     9    4   12 1
    10    5    6 ar
    11    5   16 1
    12    6    7 1
    13    7    8 1
    14    7    9 1
    15    7   11 1
    16    9   10 1
    17    9   17 1
    18    9   18 1
    19   10   19 1
    20   10   20 1
    21   10   24 1
    22   11   21 1
    23   12   22 1
    24   13   23 1
@<TRIPOS>MOLECULE
ZINC00896218
   45    47     0     0     0
SMALL
USER_CHARGES
1-[(3-hydroxy-4-methoxy-phenyl)methyl]-6-methoxy-1,2,3,4-tetrahydroisoquinolin-7-ol
@<TRIPOS>ATOM
      1 C1          2.2215    5.3022    0.0079 C.3       1 <0>         0.0203
      2 O1          2.3211    3.8766   -0.0002 O.3       1 <0>        -0.3013
      3 C2          1.1554    3.1762    0.0076 C.ar      1 <0>         0.1211
      4 C3         -0.0572    3.8465    0.0223 C.ar      1 <0>        -0.1861
      5 C4         -1.2413    3.1330    0.0298 C.ar      1 <0>        -0.0688
      6 C5         -1.2190    1.7507    0.0173 C.ar      1 <0>        -0.1524
      7 C6         -0.0126    1.0758    0.0080 C.ar      1 <0>        -0.1272
      8 C7          1.1779    1.7849    0.0004 C.ar      1 <0>         0.0868
      9 O2          2.3655    1.1226   -0.0136 O.3       1 <0>        -0.4855
     10 C8         -2.5128    0.9779    0.0198 C.3       1 <0>        -0.0922
     11 C9         -2.9435    0.7090    1.4630 C.3       1 <0>         0.0966
     12 H1         -2.9983    1.6537    2.0040 H         1 <0>         0.1463
     13 C10        -4.3013    0.0564    1.4633 C.ar      1 <0>        -0.1517
     14 C11        -5.2657    0.5429    0.5919 C.ar      1 <0>        -0.0839
     15 C12        -6.5279   -0.0217    0.5585 C.ar      1 <0>         0.0935
     16 C13        -6.8311   -1.0842    1.4051 C.ar      1 <0>         0.1337
     17 C14        -5.8674   -1.5653    2.2708 C.ar      1 <0>        -0.1884
     18 C15        -4.6020   -0.9972    2.2992 C.ar      1 <0>        -0.0529
     19 C16        -3.5842   -1.5621    3.2570 C.3       1 <0>        -0.1073
     20 C17        -2.4327   -0.5729    3.4388 C.3       1 <0>         0.0007
     21 O3         -8.0698   -1.6450    1.3812 O.3       1 <0>        -0.2971
     22 C18        -8.3074   -2.7315    2.2785 C.3       1 <0>         0.0196
     23 O4         -7.4685    0.4589   -0.2981 O.3       1 <0>        -0.4794
     24 H2          1.6750    5.6332   -0.8752 H         1 <0>         0.0617
     25 H3          1.6923    5.6243    0.9047 H         1 <0>         0.0610
     26 H4          3.2213    5.7363    0.0004 H         1 <0>         0.1105
     27 H5         -0.0774    4.9263    0.0283 H         1 <0>         0.1423
     28 H6         -2.1858    3.6566    0.0409 H         1 <0>         0.1361
     29 H7          0.0021   -0.0041    0.0020 H         1 <0>         0.1348
     30 H8          2.7009    0.9351   -0.9010 H         1 <0>         0.3979
     31 H9         -3.2836    1.5582   -0.4873 H         1 <0>         0.1222
     32 H10        -2.3709    0.0301   -0.4996 H         1 <0>         0.1006
     33 H11        -5.0293    1.3677   -0.0639 H         1 <0>         0.1487
     34 H12        -6.1006   -2.3897    2.9284 H         1 <0>         0.1445
     35 H13        -3.1960   -2.5003    2.8605 H         1 <0>         0.1067
     36 H14        -4.0580   -1.7469    4.2210 H         1 <0>         0.1242
     37 H15        -1.6213   -1.0520    3.9866 H         1 <0>         0.1414
     38 H16        -2.7804    0.3011    3.9895 H         1 <0>         0.1346
     39 H17        -7.6141   -3.5432    2.0580 H         1 <0>         0.0612
     40 H18        -8.1581   -2.3948    3.3044 H         1 <0>         0.0618
     41 H19        -9.3313   -3.0853    2.1576 H         1 <0>         0.1122
     42 H20        -7.4692    0.0278   -1.1637 H         1 <0>         0.3981
     43 N1         -1.9514   -0.1631    2.1065 N.4       1 <0>        -0.5135
     44 H21        -1.0649    0.3452    2.2062 H         1 <0>         0.4375
     45 H22        -1.8042   -0.9974    1.5262 H         1 <0>         0.4310
@<TRIPOS>BOND
     1    1    2 1
     2    1   24 1
     3    1   25 1
     4    1   26 1
     5    2    3 1
     6    3    8 ar
     7    3    4 ar
     8    4    5 ar
     9    4   27 1
    10    5    6 ar
    11    5   28 1
    12    6    7 ar
    13    6   10 1
    14    7    8 ar
    15    7   29 1
    16    8    9 1
    17    9   30 1
    18   10   11 1
    19   10   31 1
    20   10   32 1
    21   11   12 1
    22   11   13 1
    23   11   43 1
    24   13   18 ar
    25   13   14 ar
    26   14   15 ar
    27   14   33 1
    28   15   16 ar
    29   15   23 1
    30   16   17 ar
    31   16   21 1
    32   17   18 ar
    33   17   34 1
    34   18   19 1
    35   19   20 1
    36   19   35 1
    37   19   36 1
    38   20   37 1
    39   20   38 1
    40   20   43 1
    41   21   22 1
    42   22   39 1
    43   22   40 1
    44   22   41 1
    45   23   42 1
    46   43   44 1
    47   43   45 1
@<TRIPOS>MOLECULE
ZINC00896220
   45    47     0     0     0
SMALL
USER_CHARGES
1-[(3-hydroxy-4-methoxy-phenyl)methyl]-6-methoxy-1,2,3,4-tetrahydroisoquinolin-7-ol
@<TRIPOS>ATOM
      1 C1          1.6300   -5.2215    1.9842 C.3       1 <0>         0.0210
      2 O1          2.6828   -4.4648    1.3833 O.3       1 <0>        -0.3005
      3 C2          2.5352   -3.1132    1.3586 C.ar      1 <0>         0.1202
      4 C3          1.4023   -2.5283    1.9012 C.ar      1 <0>        -0.1882
      5 C4          1.2567   -1.1537    1.8808 C.ar      1 <0>        -0.1048
      6 C5          2.2344   -0.3604    1.3096 C.ar      1 <0>        -0.1507
      7 C6          3.3671   -0.9375    0.7665 C.ar      1 <0>        -0.0925
      8 C7          3.5219   -2.3143    0.7888 C.ar      1 <0>         0.0900
      9 O2          4.6358   -2.8836    0.2553 O.3       1 <0>        -0.4838
     10 C8          2.0677    1.1371    1.2844 C.3       1 <0>        -0.0933
     11 C9          1.3499    1.5489   -0.0025 C.3       1 <0>         0.0968
     12 H1          1.8909    1.1485   -0.8599 H         1 <0>         0.1468
     13 C10         1.3169    3.0522   -0.0933 C.ar      1 <0>        -0.1519
     14 C11         2.4607    3.7581    0.2524 C.ar      1 <0>        -0.0838
     15 C12         2.4794    5.1393    0.1817 C.ar      1 <0>         0.0936
     16 C13         1.3430    5.8239   -0.2398 C.ar      1 <0>         0.1339
     17 C14         0.2049    5.1163   -0.5823 C.ar      1 <0>        -0.1884
     18 C15         0.1909    3.7311   -0.5077 C.ar      1 <0>        -0.0532
     19 C16        -1.0765    3.0060   -0.8823 C.3       1 <0>        -0.1074
     20 C17        -0.7775    1.5282   -1.1348 C.3       1 <0>         0.0009
     21 O3          1.3516    7.1818   -0.3140 O.3       1 <0>        -0.2970
     22 C18         0.1488    7.8150   -0.7549 C.3       1 <0>         0.0197
     23 O4          3.6029    5.8254    0.5227 O.3       1 <0>        -0.4798
     24 H2          1.5147   -4.9204    3.0254 H         1 <0>         0.0609
     25 H3          0.6989   -5.0383    1.4478 H         1 <0>         0.0596
     26 H4          1.8732   -6.2830    1.9377 H         1 <0>         0.1103
     27 H5          0.6350   -3.1461    2.3441 H         1 <0>         0.1414
     28 H6          0.3754   -0.6988    2.3083 H         1 <0>         0.1276
     29 H7          4.1312   -0.3153    0.3245 H         1 <0>         0.1431
     30 H8          5.3627   -2.9900    0.8841 H         1 <0>         0.3981
     31 H9          3.0479    1.6125    1.3218 H         1 <0>         0.1219
     32 H10         1.4783    1.4516    2.1457 H         1 <0>         0.1015
     33 H11         3.3417    3.2256    0.5792 H         1 <0>         0.1488
     34 H12        -0.6779    5.6452   -0.9098 H         1 <0>         0.1445
     35 H13        -1.7982    3.0955   -0.0703 H         1 <0>         0.1066
     36 H14        -1.4939    3.4503   -1.7860 H         1 <0>         0.1241
     37 H15        -0.1909    1.4241   -2.0476 H         1 <0>         0.1348
     38 H16        -1.7127    0.9767   -1.2322 H         1 <0>         0.1410
     39 H17        -0.0974    7.4684   -1.7585 H         1 <0>         0.0614
     40 H18        -0.6645    7.5641   -0.0740 H         1 <0>         0.0615
     41 H19         0.2910    8.8956   -0.7683 H         1 <0>         0.1121
     42 H20         4.2101    5.9772   -0.2144 H         1 <0>         0.3987
     43 N1         -0.0135    1.0014    0.0113 N.4       1 <0>        -0.5133
     44 H21        -0.4802    1.2720    0.8849 H         1 <0>         0.4310
     45 H22         0.0302   -0.0226   -0.0504 H         1 <0>         0.4366
@<TRIPOS>BOND
     1    1    2 1
     2    1   24 1
     3    1   25 1
     4    1   26 1
     5    2    3 1
     6    3    8 ar
     7    3    4 ar
     8    4    5 ar
     9    4   27 1
    10    5    6 ar
    11    5   28 1
    12    6    7 ar
    13    6   10 1
    14    7    8 ar
    15    7   29 1
    16    8    9 1
    17    9   30 1
    18   10   11 1
    19   10   31 1
    20   10   32 1
    21   11   12 1
    22   11   13 1
    23   11   43 1
    24   13   18 ar
    25   13   14 ar
    26   14   15 ar
    27   14   33 1
    28   15   16 ar
    29   15   23 1
    30   16   17 ar
    31   16   21 1
    32   17   18 ar
    33   17   34 1
    34   18   19 1
    35   19   20 1
    36   19   35 1
    37   19   36 1
    38   20   37 1
    39   20   38 1
    40   20   43 1
    41   21   22 1
    42   22   39 1
    43   22   40 1
    44   22   41 1
    45   23   42 1
    46   43   44 1
    47   43   45 1
@<TRIPOS>MOLECULE
ZINC00601304
   50    53     0     0     0
SMALL
USER_CHARGES

@<TRIPOS>ATOM
      1 C1         -0.0848    1.4532   -0.3643 C.3       1 <0>         0.0157
      2 O1         -0.0673    0.0248   -0.4029 O.3       1 <0>        -0.2899
      3 C2         -1.2697   -0.6091   -0.3507 C.ar      1 <0>         0.1141
      4 C3         -2.4181    0.1263   -0.2712 C.ar      1 <0>        -0.1159
      5 C4         -3.6565   -0.5247   -0.2178 C.ar      1 <0>        -0.1900
      6 C5         -3.7118   -1.9398   -0.2465 C.ar      1 <0>         0.2208
      7 C6         -2.5225   -2.6738   -0.3282 C.ar      1 <0>        -0.2298
      8 C7         -1.3169   -2.0092   -0.3848 C.ar      1 <0>         0.2171
      9 O2         -0.1616   -2.7187   -0.4697 O.3       1 <0>        -0.2781
     10 C8         -0.2756   -4.1428   -0.5007 C.3       1 <0>         0.0126
     11 N1         -4.9113   -2.5410   -0.1946 N.ar      1 <0>        -0.5852
     12 C9         -6.0151   -1.8231   -0.1184 C.ar      1 <0>         0.6808
     13 N2         -6.0075   -0.4933   -0.0894 N.ar      1 <0>        -0.5933
     14 C10        -4.8747    0.1928   -0.1354 C.ar      1 <0>         0.5614
     15 N3         -4.8820    1.5717   -0.1036 N.pl3     1 <0>        -0.7723
     16 N4         -7.2317   -2.4807   -0.0668 N.pl3     1 <0>        -0.5638
     17 C11        -7.2984   -3.9422   -0.2055 C.3       1 <0>         0.0875
     18 C12        -8.0309   -4.5172    1.0132 C.3       1 <0>         0.0811
     19 N5         -9.2792   -3.7665    1.2081 N.am      1 <0>        -0.6161
     20 C13        -9.2125   -2.3049    1.3468 C.3       1 <0>         0.0965
     21 C14        -8.4794   -1.7305    0.1337 C.3       1 <0>         0.1036
     22 C15       -10.4640   -4.4068    1.2583 C.2       1 <0>         0.6126
     23 O3        -11.4993   -3.7686    1.3005 O.2       1 <0>        -0.5007
     24 C16       -10.5057   -5.8728    1.2622 C.2       1 <0>        -0.0999
     25 C17       -11.6286   -6.6439    1.1675 C.2       1 <0>        -0.0980
     26 C18       -11.2046   -7.9813    1.2107 C.2       1 <0>        -0.2186
     27 C19        -9.8585   -7.9681    1.3284 C.2       1 <0>        -0.0023
     28 O4         -9.4406   -6.6959    1.3540 O.3       1 <0>        -0.1695
     29 H1          0.9367    1.8304   -0.4129 H         1 <0>         0.1175
     30 H2         -0.6531    1.8327   -1.2135 H         1 <0>         0.0636
     31 H3         -0.5513    1.7859    0.5629 H         1 <0>         0.0637
     32 H4         -2.3709    1.2050   -0.2492 H         1 <0>         0.1589
     33 H5         -2.5500   -3.7532   -0.3508 H         1 <0>         0.1674
     34 H6         -0.7651   -4.4880    0.4100 H         1 <0>         0.0684
     35 H7         -0.8669   -4.4412   -1.3664 H         1 <0>         0.0684
     36 H8          0.7180   -4.5855   -0.5693 H         1 <0>         0.1203
     37 H9         -4.0457    2.0621   -0.1379 H         1 <0>         0.4288
     38 H10        -5.7233    2.0512   -0.0471 H         1 <0>         0.4313
     39 H11        -7.8428   -4.1990   -1.1142 H         1 <0>         0.1106
     40 H12        -6.2893   -4.3517   -0.2526 H         1 <0>         0.0927
     41 H13        -8.2596   -5.5687    0.8400 H         1 <0>         0.1354
     42 H14        -7.4023   -4.4179    1.8982 H         1 <0>         0.0848
     43 H15       -10.2215   -1.8954    1.3938 H         1 <0>         0.1238
     44 H16        -8.6680   -2.0481    2.2555 H         1 <0>         0.0830
     45 H17        -8.2501   -0.6797    0.3105 H         1 <0>         0.1273
     46 H18        -9.1099   -1.8262   -0.7503 H         1 <0>         0.0981
     47 H19       -12.6459   -6.2927    1.0769 H         1 <0>         0.1643
     48 H20       -11.8356   -8.8563    1.1598 H         1 <0>         0.1626
     49 H21        -9.2239   -8.8399    1.3885 H         1 <0>         0.2151
     50 H22        -4.9664   -3.5093   -0.2136 H         1 <0>         0.4337
@<TRIPOS>BOND
     1    1    2 1
     2    1   29 1
     3    1   30 1
     4    1   31 1
     5    2    3 1
     6    3    8 ar
     7    3    4 ar
     8    4    5 ar
     9    4   32 1
    10    5   14 ar
    11    5    6 ar
    12    6    7 ar
    13    6   11 ar
    14    7    8 ar
    15    7   33 1
    16    8    9 1
    17    9   10 1
    18   10   34 1
    19   10   35 1
    20   10   36 1
    21   11   12 ar
    22   11   50 1
    23   12   13 ar
    24   12   16 1
    25   13   14 ar
    26   14   15 1
    27   15   37 1
    28   15   38 1
    29   16   21 1
    30   16   17 1
    31   17   18 1
    32   17   39 1
    33   17   40 1
    34   18   19 1
    35   18   41 1
    36   18   42 1
    37   19   20 1
    38   19   22 am
    39   20   21 1
    40   20   43 1
    41   20   44 1
    42   21   45 1
    43   21   46 1
    44   22   23 2
    45   22   24 1
    46   24   28 1
    47   24   25 2
    48   25   26 1
    49   25   47 1
    50   26   27 2
    51   26   48 1
    52   27   28 1
    53   27   49 1
@<TRIPOS>MOLECULE
ZINC00057530
   51    53     0     0     0
SMALL
USER_CHARGES

@<TRIPOS>ATOM
      1 C1         -0.0173    1.4248    0.0099 C.3       1 <0>         0.0222
      2 O1          0.0021   -0.0041    0.0020 O.3       1 <0>        -0.2995
      3 C2         -1.2011   -0.6379    0.0101 C.ar      1 <0>         0.1179
      4 C3         -2.3743    0.0994    0.0195 C.ar      1 <0>        -0.1669
      5 C4         -3.5965   -0.5465    0.0272 C.ar      1 <0>        -0.1337
      6 C5         -3.6519   -1.9279    0.0261 C.ar      1 <0>        -0.1264
      7 C6         -2.4852   -2.6694    0.0172 C.ar      1 <0>        -0.1629
      8 C7         -1.2569   -2.0283    0.0032 C.ar      1 <0>         0.1148
      9 O2         -0.1083   -2.7563   -0.0116 O.3       1 <0>        -0.2988
     10 C8         -0.2420   -4.1790   -0.0180 C.3       1 <0>         0.0230
     11 C9         -4.9869   -2.6268    0.0350 C.3       1 <0>        -0.0932
     12 C10        -5.4493   -2.8618   -1.4044 C.3       1 <0>         0.0933
     13 H1         -4.6753   -3.4054   -1.9462 H         1 <0>         0.1461
     14 C11        -6.7144   -3.6791   -1.3925 C.ar      1 <0>        -0.1270
     15 C12        -6.8113   -4.7344   -0.4968 C.ar      1 <0>        -0.1550
     16 C13        -7.9537   -5.5131   -0.4540 C.ar      1 <0>         0.1184
     17 C14        -9.0115   -5.2352   -1.3152 C.ar      1 <0>         0.1331
     18 C15        -8.9110   -4.1810   -2.2056 C.ar      1 <0>        -0.1671
     19 C16        -7.7636   -3.4032   -2.2436 C.ar      1 <0>        -0.0820
     20 C17        -7.6999   -2.2599   -3.2244 C.3       1 <0>        -0.1029
     21 C18        -6.2510   -1.7999   -3.3901 C.3       1 <0>        -0.0028
     22 N1         -5.6774   -1.5688   -2.0557 N.4       1 <0>        -0.5039
     23 O3        -10.1379   -5.9963   -1.2817 O.3       1 <0>        -0.2959
     24 C19       -11.1815   -5.6512   -2.1949 C.3       1 <0>         0.0209
     25 O4         -8.0433   -6.5459    0.4262 O.3       1 <0>        -0.2957
     26 C20        -6.9189   -6.7710    1.2788 C.3       1 <0>         0.0210
     27 H2          1.0053    1.8021    0.0021 H         1 <0>         0.1093
     28 H3         -0.5445    1.7859   -0.8732 H         1 <0>         0.0584
     29 H4         -0.5275    1.7763    0.9067 H         1 <0>         0.0601
     30 H5         -2.3338    1.1787    0.0211 H         1 <0>         0.1441
     31 H6         -4.5102    0.0294    0.0345 H         1 <0>         0.1266
     32 H7         -2.5312   -3.7485    0.0167 H         1 <0>         0.1412
     33 H8          0.7471   -4.6369   -0.0298 H         1 <0>         0.1091
     34 H9         -0.7791   -4.4975    0.8754 H         1 <0>         0.0588
     35 H10        -0.7960   -4.4879   -0.9044 H         1 <0>         0.0565
     36 H11        -4.8923   -3.5844    0.5471 H         1 <0>         0.1179
     37 H12        -5.7178   -2.0075    0.5549 H         1 <0>         0.1023
     38 H13        -5.9898   -4.9493    0.1705 H         1 <0>         0.1465
     39 H14        -9.7299   -3.9635   -2.8752 H         1 <0>         0.1474
     40 H15        -8.0886   -2.5875   -4.1886 H         1 <0>         0.1230
     41 H16        -8.3032   -1.4310   -2.8543 H         1 <0>         0.1046
     42 H17        -5.6789   -2.5711   -3.9059 H         1 <0>         0.1348
     43 H18        -6.2244   -0.8745   -3.9654 H         1 <0>         0.1412
     44 H19        -6.3186   -1.0204   -1.5024 H         1 <0>         0.4277
     45 H20       -12.0198   -6.3355   -2.0641 H         1 <0>         0.1112
     46 H21       -11.5116   -4.6308   -2.0006 H         1 <0>         0.0605
     47 H22       -10.8090   -5.7242   -3.2167 H         1 <0>         0.0607
     48 H23        -6.0382   -6.9796    0.6713 H         1 <0>         0.0588
     49 H24        -6.7397   -5.8836    1.8858 H         1 <0>         0.0588
     50 H25        -7.1210   -7.6217    1.9297 H         1 <0>         0.1110
     51 H26        -4.8011   -1.0769   -2.1461 H         1 <0>         0.4326
@<TRIPOS>BOND
     1    1    2 1
     2    1   27 1
     3    1   28 1
     4    1   29 1
     5    2    3 1
     6    3    8 ar
     7    3    4 ar
     8    4    5 ar
     9    4   30 1
    10    5    6 ar
    11    5   31 1
    12    6    7 ar
    13    6   11 1
    14    7    8 ar
    15    7   32 1
    16    8    9 1
    17    9   10 1
    18   10   33 1
    19   10   34 1
    20   10   35 1
    21   11   12 1
    22   11   36 1
    23   11   37 1
    24   12   13 1
    25   12   22 1
    26   12   14 1
    27   14   19 ar
    28   14   15 ar
    29   15   16 ar
    30   15   38 1
    31   16   17 ar
    32   16   25 1
    33   17   18 ar
    34   17   23 1
    35   18   19 ar
    36   18   39 1
    37   19   20 1
    38   20   21 1
    39   20   40 1
    40   20   41 1
    41   21   22 1
    42   21   42 1
    43   21   43 1
    44   22   44 1
    45   22   51 1
    46   23   24 1
    47   24   45 1
    48   24   46 1
    49   24   47 1
    50   25   26 1
    51   26   48 1
    52   26   49 1
    53   26   50 1
@<TRIPOS>MOLECULE
ZINC00057530
   50    52     0     0     0
SMALL
USER_CHARGES

@<TRIPOS>ATOM
      1 C1         -0.0173    1.4248    0.0099 C.3       1 <0>         0.0268
      2 O1          0.0021   -0.0041    0.0020 O.3       1 <0>        -0.3088
      3 C2          0.6262   -0.6188    1.0422 C.ar      1 <0>         0.0952
      4 C3          1.2021    0.1367    2.0510 C.ar      1 <0>        -0.1710
      5 C4          1.8358   -0.4897    3.1079 C.ar      1 <0>        -0.0902
      6 C5          1.8971   -1.8699    3.1612 C.ar      1 <0>        -0.0679
      7 C6          1.3251   -2.6295    2.1578 C.ar      1 <0>        -0.1704
      8 C7          0.6830   -2.0080    1.0988 C.ar      1 <0>         0.0986
      9 O2          0.1145   -2.7540    0.1140 O.3       1 <0>        -0.3078
     10 C8          0.2115   -4.1743    0.2380 C.3       1 <0>         0.0270
     11 C9          2.5896   -2.5476    4.3154 C.3       1 <0>        -0.0706
     12 C10         1.5803   -2.8041    5.4363 C.3       1 <0>         0.1377
     13 H1          0.7379   -3.3704    5.0391 H         1 <0>         0.0939
     14 C11         2.2433   -3.6002    6.5299 C.ar      1 <0>        -0.1108
     15 C12         3.0766   -4.6493    6.1678 C.ar      1 <0>        -0.1669
     16 C13         3.7040   -5.4115    7.1365 C.ar      1 <0>         0.1002
     17 C14         3.4969   -5.1232    8.4825 C.ar      1 <0>         0.1038
     18 C15         2.6671   -4.0753    8.8386 C.ar      1 <0>        -0.1726
     19 C16         2.0419   -3.3125    7.8630 C.ar      1 <0>        -0.0731
     20 C17         1.1561   -2.1743    8.3013 C.3       1 <0>        -0.1165
     21 C18         0.2576   -1.7363    7.1446 C.3       1 <0>         0.0562
     22 N1          1.0983   -1.5207    5.9564 N.3       1 <0>        -0.6659
     23 O3          4.1069   -5.8684    9.4427 O.3       1 <0>        -0.3060
     24 C19         3.8469   -5.5135   10.8023 C.3       1 <0>         0.0260
     25 O4          4.5192   -6.4384    6.7756 O.3       1 <0>        -0.3059
     26 C20         4.6835   -6.6752    5.3760 C.3       1 <0>         0.0253
     27 H2          1.0053    1.8021    0.0021 H         1 <0>         0.0541
     28 H3         -0.5445    1.7859   -0.8732 H         1 <0>         0.0996
     29 H4         -0.5275    1.7763    0.9067 H         1 <0>         0.0547
     30 H5          1.1562    1.2150    2.0113 H         1 <0>         0.1332
     31 H6          2.2842    0.1003    3.8935 H         1 <0>         0.1245
     32 H7          1.3747   -3.7075    2.2017 H         1 <0>         0.1308
     33 H8         -0.2815   -4.6476   -0.6111 H         1 <0>         0.0998
     34 H9          1.2614   -4.4664    0.2576 H         1 <0>         0.0534
     35 H10        -0.2714   -4.4922    1.1620 H         1 <0>         0.0538
     36 H11         3.0097   -3.4961    3.9808 H         1 <0>         0.0779
     37 H12         3.3894   -1.9067    4.6863 H         1 <0>         0.0766
     38 H13         3.2360   -4.8721    5.1232 H         1 <0>         0.1376
     39 H14         2.5047   -3.8499    9.8823 H         1 <0>         0.1346
     40 H15         0.5369   -2.4990    9.1376 H         1 <0>         0.0798
     41 H16         1.7755   -1.3345    8.6164 H         1 <0>         0.0778
     42 H17        -0.4775   -2.5139    6.9372 H         1 <0>         0.0761
     43 H18        -0.2508   -0.8084    7.4069 H         1 <0>         0.0845
     44 H19         4.3935   -6.1853   11.4641 H         1 <0>         0.1020
     45 H20         4.1704   -4.4875   10.9782 H         1 <0>         0.0547
     46 H21         2.7785   -5.5968   11.0016 H         1 <0>         0.0548
     47 H22         5.3565   -7.5196    5.2269 H         1 <0>         0.1019
     48 H23         3.7149   -6.8993    4.9292 H         1 <0>         0.0547
     49 H24         5.1045   -5.7874    4.9043 H         1 <0>         0.0551
     50 H25         1.8684   -0.9030    6.1651 H         1 <0>         0.3416
@<TRIPOS>BOND
     1    1    2 1
     2    1   27 1
     3    1   28 1
     4    1   29 1
     5    2    3 1
     6    3    8 ar
     7    3    4 ar
     8    4    5 ar
     9    4   30 1
    10    5    6 ar
    11    5   31 1
    12    6    7 ar
    13    6   11 1
    14    7    8 ar
    15    7   32 1
    16    8    9 1
    17    9   10 1
    18   10   33 1
    19   10   34 1
    20   10   35 1
    21   11   12 1
    22   11   36 1
    23   11   37 1
    24   12   13 1
    25   12   22 1
    26   12   14 1
    27   14   19 ar
    28   14   15 ar
    29   15   16 ar
    30   15   38 1
    31   16   17 ar
    32   16   25 1
    33   17   18 ar
    34   17   23 1
    35   18   19 ar
    36   18   39 1
    37   19   20 1
    38   20   21 1
    39   20   40 1
    40   20   41 1
    41   21   22 1
    42   21   42 1
    43   21   43 1
    44   22   50 1
    45   23   24 1
    46   24   44 1
    47   24   45 1
    48   24   46 1
    49   25   26 1
    50   26   47 1
    51   26   48 1
    52   26   49 1
@<TRIPOS>MOLECULE
ZINC00057531
   51    53     0     0     0
SMALL
USER_CHARGES

@<TRIPOS>ATOM
      1 C1         -0.0173    1.4248    0.0099 C.3       1 <0>         0.0216
      2 O1          0.0021   -0.0041    0.0020 O.3       1 <0>        -0.3001
      3 C2         -1.2011   -0.6379    0.0101 C.ar      1 <0>         0.1195
      4 C3         -2.3743    0.0994    0.0195 C.ar      1 <0>        -0.1659
      5 C4         -3.5965   -0.5465    0.0272 C.ar      1 <0>        -0.0954
      6 C5         -3.6519   -1.9279    0.0261 C.ar      1 <0>        -0.1297
      7 C6         -2.4852   -2.6694    0.0172 C.ar      1 <0>        -0.1957
      8 C7         -1.2569   -2.0283    0.0032 C.ar      1 <0>         0.1123
      9 O2         -0.1083   -2.7563   -0.0116 O.3       1 <0>        -0.2977
     10 C8         -0.2420   -4.1790   -0.0180 C.3       1 <0>         0.0239
     11 C9         -4.9869   -2.6268    0.0350 C.3       1 <0>        -0.0926
     12 C10        -5.4493   -2.8618   -1.4044 C.3       1 <0>         0.0931
     13 H1         -5.4572   -1.9118   -1.9388 H         1 <0>         0.1478
     14 C11        -6.8417   -3.4358   -1.3913 C.ar      1 <0>        -0.1270
     15 C12        -7.7606   -2.9211   -0.4879 C.ar      1 <0>        -0.1547
     16 C13        -9.0512   -3.4165   -0.4437 C.ar      1 <0>         0.1186
     17 C14        -9.4290   -4.4375   -1.3112 C.ar      1 <0>         0.1330
     18 C15        -8.5091   -4.9487   -2.2094 C.ar      1 <0>        -0.1671
     19 C16        -7.2163   -4.4486   -2.2488 C.ar      1 <0>        -0.0826
     20 C17        -6.2444   -5.0401   -3.2381 C.3       1 <0>        -0.1027
     21 C18        -5.0415   -4.1103   -3.4015 C.3       1 <0>        -0.0031
     22 N1         -4.5194   -3.7809   -2.0666 N.4       1 <0>        -0.5048
     23 O3        -10.6963   -4.9298   -1.2764 O.3       1 <0>        -0.2959
     24 C19       -11.0110   -5.9769   -2.1965 C.3       1 <0>         0.0209
     25 O4         -9.9477   -2.9079    0.4435 O.3       1 <0>        -0.2958
     26 C20        -9.4888   -1.8616    1.3018 C.3       1 <0>         0.0208
     27 H2          1.0053    1.8021    0.0021 H         1 <0>         0.1095
     28 H3         -0.5445    1.7859   -0.8732 H         1 <0>         0.0597
     29 H4         -0.5275    1.7763    0.9067 H         1 <0>         0.0608
     30 H5         -2.3338    1.1787    0.0211 H         1 <0>         0.1449
     31 H6         -4.5102    0.0294    0.0345 H         1 <0>         0.1342
     32 H7         -2.5312   -3.7485    0.0167 H         1 <0>         0.1333
     33 H8          0.7471   -4.6369   -0.0298 H         1 <0>         0.1097
     34 H9         -0.7791   -4.4975    0.8754 H         1 <0>         0.0591
     35 H10        -0.7960   -4.4879   -0.9044 H         1 <0>         0.0497
     36 H11        -4.8923   -3.5844    0.5471 H         1 <0>         0.0998
     37 H12        -5.7178   -2.0075    0.5549 H         1 <0>         0.1202
     38 H13        -7.4664   -2.1287    0.1844 H         1 <0>         0.1472
     39 H14        -8.7995   -5.7409   -2.8835 H         1 <0>         0.1473
     40 H15        -5.9055   -6.0110   -2.8769 H         1 <0>         0.1041
     41 H16        -6.7391   -5.1654   -4.2013 H         1 <0>         0.1233
     42 H17        -4.2682   -4.6112   -3.9838 H         1 <0>         0.1409
     43 H18        -5.3514   -3.1967   -3.9089 H         1 <0>         0.1357
     44 H19        -3.6162   -3.3404   -2.1572 H         1 <0>         0.4318
     45 H20       -12.0504   -6.2769   -2.0638 H         1 <0>         0.1112
     46 H21       -10.8628   -5.6213   -3.2162 H         1 <0>         0.0607
     47 H22       -10.3597   -6.8311   -2.0114 H         1 <0>         0.0603
     48 H23        -8.6552   -2.2243    1.9031 H         1 <0>         0.0589
     49 H24        -9.1607   -1.0148    0.6989 H         1 <0>         0.0593
     50 H25       -10.3006   -1.5476    1.9579 H         1 <0>         0.1110
     51 H26        -4.4319   -4.6246   -1.5201 H         1 <0>         0.4265
@<TRIPOS>BOND
     1    1    2 1
     2    1   27 1
     3    1   28 1
     4    1   29 1
     5    2    3 1
     6    3    8 ar
     7    3    4 ar
     8    4    5 ar
     9    4   30 1
    10    5    6 ar
    11    5   31 1
    12    6    7 ar
    13    6   11 1
    14    7    8 ar
    15    7   32 1
    16    8    9 1
    17    9   10 1
    18   10   33 1
    19   10   34 1
    20   10   35 1
    21   11   12 1
    22   11   36 1
    23   11   37 1
    24   12   13 1
    25   12   22 1
    26   12   14 1
    27   14   19 ar
    28   14   15 ar
    29   15   16 ar
    30   15   38 1
    31   16   17 ar
    32   16   25 1
    33   17   18 ar
    34   17   23 1
    35   18   19 ar
    36   18   39 1
    37   19   20 1
    38   20   21 1
    39   20   40 1
    40   20   41 1
    41   21   22 1
    42   21   42 1
    43   21   43 1
    44   22   44 1
    45   22   51 1
    46   23   24 1
    47   24   45 1
    48   24   46 1
    49   24   47 1
    50   25   26 1
    51   26   48 1
    52   26   49 1
    53   26   50 1
@<TRIPOS>MOLECULE
ZINC00057531
   50    52     0     0     0
SMALL
USER_CHARGES

@<TRIPOS>ATOM
      1 C1         -0.0173    1.4248    0.0099 C.3       1 <0>         0.0261
      2 O1          0.0021   -0.0041    0.0020 O.3       1 <0>        -0.3070
      3 C2          0.6262   -0.6188    1.0422 C.ar      1 <0>         0.0961
      4 C3          1.2021    0.1367    2.0510 C.ar      1 <0>        -0.1708
      5 C4          1.8358   -0.4897    3.1079 C.ar      1 <0>        -0.1148
      6 C5          1.8971   -1.8699    3.1612 C.ar      1 <0>        -0.0836
      7 C6          1.3251   -2.6295    2.1578 C.ar      1 <0>        -0.1636
      8 C7          0.6830   -2.0080    1.0988 C.ar      1 <0>         0.1013
      9 O2          0.1145   -2.7540    0.1140 O.3       1 <0>        -0.3067
     10 C8          0.2115   -4.1743    0.2380 C.3       1 <0>         0.0257
     11 C9          2.5896   -2.5476    4.3154 C.3       1 <0>        -0.0683
     12 C10         1.5803   -2.8041    5.4363 C.3       1 <0>         0.1387
     13 H1          1.0975   -1.8651    5.7073 H         1 <0>         0.0526
     14 C11         2.3013   -3.3573    6.6377 C.ar      1 <0>        -0.0718
     15 C12         3.5197   -2.7945    6.9912 C.ar      1 <0>        -0.1694
     16 C13         4.2165   -3.2659    8.0890 C.ar      1 <0>         0.0990
     17 C14         3.6908   -4.3113    8.8429 C.ar      1 <0>         0.1035
     18 C15         2.4771   -4.8706    8.4856 C.ar      1 <0>        -0.1752
     19 C16         1.7832   -4.3954    7.3823 C.ar      1 <0>        -0.0614
     20 C17         0.4703   -5.0452    7.0269 C.3       1 <0>        -0.0736
     21 C18        -0.3177   -4.1446    6.0756 C.3       1 <0>         0.0541
     22 N1          0.5653   -3.7520    4.9660 N.3       1 <0>        -0.6782
     23 O3          4.3669   -4.7802    9.9258 O.3       1 <0>        -0.3064
     24 C19         3.7654   -5.8547   10.6508 C.3       1 <0>         0.0260
     25 O4          5.4102   -2.7108    8.4301 O.3       1 <0>        -0.3060
     26 C20         5.8869   -1.6423    7.6095 C.3       1 <0>         0.0255
     27 H2          1.0053    1.8021    0.0021 H         1 <0>         0.0548
     28 H3         -0.5445    1.7859   -0.8732 H         1 <0>         0.1010
     29 H4         -0.5275    1.7763    0.9067 H         1 <0>         0.0544
     30 H5          1.1562    1.2150    2.0113 H         1 <0>         0.1346
     31 H6          2.2842    0.1003    3.8935 H         1 <0>         0.1250
     32 H7          1.3747   -3.7075    2.2017 H         1 <0>         0.1416
     33 H8         -0.2815   -4.6476   -0.6111 H         1 <0>         0.1003
     34 H9          1.2614   -4.4664    0.2576 H         1 <0>         0.0553
     35 H10        -0.2714   -4.4922    1.1620 H         1 <0>         0.0570
     36 H11         3.0097   -3.4961    3.9808 H         1 <0>         0.0854
     37 H12         3.3894   -1.9067    4.6863 H         1 <0>         0.0789
     38 H13         3.9260   -1.9831    6.4055 H         1 <0>         0.1371
     39 H14         2.0671   -5.6815    9.0692 H         1 <0>         0.1350
     40 H15         0.6601   -6.0037    6.5438 H         1 <0>         0.0842
     41 H16        -0.1102   -5.2082    7.9350 H         1 <0>         0.0763
     42 H17        -1.1777   -4.6884    5.6846 H         1 <0>         0.0811
     43 H18        -0.6546   -3.2552    6.6081 H         1 <0>         0.0372
     44 H19         4.4063   -6.1319   11.4878 H         1 <0>         0.1012
     45 H20         2.7923   -5.5393   11.0271 H         1 <0>         0.0546
     46 H21         3.6389   -6.7126    9.9904 H         1 <0>         0.0550
     47 H22         6.8458   -1.2914    7.9908 H         1 <0>         0.1013
     48 H23         6.0107   -1.9973    6.5864 H         1 <0>         0.0550
     49 H24         5.1678   -0.8233    7.6255 H         1 <0>         0.0542
     50 H25         0.0337   -3.3629    4.2017 H         1 <0>         0.3476
@<TRIPOS>BOND
     1    1    2 1
     2    1   27 1
     3    1   28 1
     4    1   29 1
     5    2    3 1
     6    3    8 ar
     7    3    4 ar
     8    4    5 ar
     9    4   30 1
    10    5    6 ar
    11    5   31 1
    12    6    7 ar
    13    6   11 1
    14    7    8 ar
    15    7   32 1
    16    8    9 1
    17    9   10 1
    18   10   33 1
    19   10   34 1
    20   10   35 1
    21   11   12 1
    22   11   36 1
    23   11   37 1
    24   12   13 1
    25   12   22 1
    26   12   14 1
    27   14   19 ar
    28   14   15 ar
    29   15   16 ar
    30   15   38 1
    31   16   17 ar
    32   16   25 1
    33   17   18 ar
    34   17   23 1
    35   18   19 ar
    36   18   39 1
    37   19   20 1
    38   20   21 1
    39   20   40 1
    40   20   41 1
    41   21   22 1
    42   21   42 1
    43   21   43 1
    44   22   50 1
    45   23   24 1
    46   24   44 1
    47   24   45 1
    48   24   46 1
    49   25   26 1
    50   26   47 1
    51   26   48 1
    52   26   49 1
@<TRIPOS>MOLECULE
ZINC34451922
   61    65     0     0     0
SMALL
USER_CHARGES

@<TRIPOS>ATOM
      1 C1         -0.0312    1.4376    0.0625 C.3       1 <0>        -0.1149
      2 C2         -0.0229   -0.0693    0.0447 C.ar      1 <0>         0.1665
      3 C3         -0.0155   -0.7327   -1.1794 C.ar      1 <0>        -0.1630
      4 C4         -0.0074   -2.0992   -1.2143 C.ar      1 <0>        -0.0625
      5 C5         -0.0068   -2.7940    0.0070 C.ar      1 <0>        -0.1089
      6 C6         -0.0145   -2.0581    1.2176 C.ar      1 <0>         0.1381
      7 N1         -0.0173   -0.7211    1.1825 N.ar      1 <0>        -0.4673
      8 C7         -0.0139   -2.7495    2.4406 C.ar      1 <0>        -0.0799
      9 C8         -0.0055   -4.1115    2.4546 C.ar      1 <0>        -0.0967
     10 C9          0.0026   -4.8435    1.2722 C.ar      1 <0>        -0.1038
     11 C10         0.0018   -4.2041    0.0495 C.ar      1 <0>         0.1607
     12 N2          0.0100   -4.9428   -1.1301 N.pl3     1 <0>        -0.6732
     13 C11         1.2761   -5.3417   -1.7641 C.3       1 <0>         0.1189
     14 C12         1.2238   -4.9473   -3.2438 C.3       1 <0>        -0.0255
     15 N3          0.0263   -5.5297   -3.8626 N.4       1 <0>        -0.3804
     16 C13        -1.1805   -4.9526   -3.2570 C.3       1 <0>        -0.0322
     17 C14        -1.2473   -5.3521   -1.7749 C.3       1 <0>         0.1198
     18 C15         0.0336   -5.2439   -5.3035 C.3       1 <0>        -0.0072
     19 C16        -1.1461   -5.9543   -5.9703 C.3       1 <0>        -0.0971
     20 C17        -1.1386   -5.6610   -7.4485 C.ar      1 <0>        -0.0776
     21 C18        -1.8170   -4.5596   -7.9377 C.ar      1 <0>        -0.1386
     22 C19        -1.8126   -4.2871   -9.2931 C.ar      1 <0>        -0.0804
     23 C20        -1.1300   -5.1148  -10.1632 C.ar      1 <0>        -0.1434
     24 C21        -0.4479   -6.2214   -9.6753 C.ar      1 <0>         0.2020
     25 C22        -0.4497   -6.4892   -8.3125 C.ar      1 <0>        -0.1555
     26 N4          0.2445   -7.0619  -10.5542 N.am      1 <0>        -0.5742
     27 C23         1.0949   -8.1943  -10.1579 C.3       1 <0>         0.0857
     28 C24         1.6017   -8.7621  -11.4979 C.3       1 <0>         0.0889
     29 N5          0.9830   -7.8894  -12.5069 N.am      1 <0>        -0.7318
     30 C25         0.2334   -6.9663  -11.8902 C.2       1 <0>         0.6994
     31 O1         -0.3969   -6.1161  -12.4888 O.2       1 <0>        -0.5594
     32 H1          0.9944    1.8066    0.0650 H         1 <0>         0.0861
     33 H2         -0.5487    1.8085   -0.8223 H         1 <0>         0.0802
     34 H3         -0.5455    1.7876    0.9576 H         1 <0>         0.0841
     35 H4         -0.0165   -0.1684   -2.1002 H         1 <0>         0.1388
     36 H5         -0.0019   -2.6302   -2.1547 H         1 <0>         0.1232
     37 H6         -0.0198   -2.2006    3.3707 H         1 <0>         0.1418
     38 H7         -0.0048   -4.6322    3.4007 H         1 <0>         0.1381
     39 H8          0.0096   -5.9228    1.3114 H         1 <0>         0.1308
     40 H9          2.1065   -4.8299   -1.2777 H         1 <0>         0.1163
     41 H10         1.4054   -6.4205   -1.6769 H         1 <0>         0.0826
     42 H11         1.1855   -3.8614   -3.3293 H         1 <0>         0.1284
     43 H12         2.1133   -5.3208   -3.7511 H         1 <0>         0.1390
     44 H13        -1.1461   -3.8665   -3.3421 H         1 <0>         0.1294
     45 H14        -2.0627   -5.3301   -3.7741 H         1 <0>         0.1406
     46 H15        -1.3685   -6.4320   -1.6889 H         1 <0>         0.0832
     47 H16        -2.0861   -4.8472   -1.2958 H         1 <0>         0.1162
     48 H17        -0.0535   -4.1688   -5.4611 H         1 <0>         0.1311
     49 H18         0.9665   -5.6007   -5.7400 H         1 <0>         0.1329
     50 H19        -1.0590   -7.0293   -5.8127 H         1 <0>         0.0951
     51 H20        -2.0789   -5.5974   -5.5338 H         1 <0>         0.0966
     52 H21        -2.3517   -3.9111   -7.2594 H         1 <0>         0.1244
     53 H22        -2.3436   -3.4264   -9.6721 H         1 <0>         0.1341
     54 H23        -1.1272   -4.9017  -11.2220 H         1 <0>         0.1632
     55 H24         0.0839   -7.3464   -7.9293 H         1 <0>         0.1261
     56 H25         1.9301   -7.8505   -9.5478 H         1 <0>         0.0916
     57 H26         0.5107   -8.9423   -9.6219 H         1 <0>         0.0922
     58 H27         2.6885   -8.7002  -11.5531 H         1 <0>         0.0930
     59 H28         1.2691   -9.7921  -11.6273 H         1 <0>         0.0930
     60 H29         1.0964   -7.9716  -13.4667 H         1 <0>         0.4388
     61 H30         0.0277   -6.5286   -3.7203 H         1 <0>         0.4226
@<TRIPOS>BOND
     1    1    2 1
     2    1   32 1
     3    1   33 1
     4    1   34 1
     5    2    7 ar
     6    2    3 ar
     7    3    4 ar
     8    3   35 1
     9    4    5 ar
    10    4   36 1
    11    5   11 ar
    12    5    6 ar
    13    6    7 ar
    14    6    8 ar
    15    8    9 ar
    16    8   37 1
    17    9   10 ar
    18    9   38 1
    19   10   11 ar
    20   10   39 1
    21   11   12 1
    22   12   17 1
    23   12   13 1
    24   13   14 1
    25   13   40 1
    26   13   41 1
    27   14   15 1
    28   14   42 1
    29   14   43 1
    30   15   16 1
    31   15   18 1
    32   15   61 1
    33   16   17 1
    34   16   44 1
    35   16   45 1
    36   17   46 1
    37   17   47 1
    38   18   19 1
    39   18   48 1
    40   18   49 1
    41   19   20 1
    42   19   50 1
    43   19   51 1
    44   20   25 ar
    45   20   21 ar
    46   21   22 ar
    47   21   52 1
    48   22   23 ar
    49   22   53 1
    50   23   24 ar
    51   23   54 1
    52   24   25 ar
    53   24   26 1
    54   25   55 1
    55   26   30 am
    56   26   27 1
    57   27   28 1
    58   27   56 1
    59   27   57 1
    60   28   29 1
    61   28   58 1
    62   28   59 1
    63   29   30 am
    64   29   60 1
    65   30   31 2
@<TRIPOS>MOLECULE
ZINC34451922
   60    64     0     0     0
SMALL
USER_CHARGES

@<TRIPOS>ATOM
      1 C1         -0.0321    1.4340    0.0669 C.3       1 <0>        -0.1087
      2 C2         -0.0231   -0.0728    0.0484 C.ar      1 <0>         0.1614
      3 C3         -0.0155   -0.7357   -1.1761 C.ar      1 <0>        -0.1790
      4 C4         -0.0069   -2.1021   -1.2116 C.ar      1 <0>        -0.0439
      5 C5         -0.0060   -2.7975    0.0093 C.ar      1 <0>        -0.1162
      6 C6         -0.0140   -2.0623    1.2203 C.ar      1 <0>         0.1383
      7 N1         -0.0173   -0.7252    1.1858 N.ar      1 <0>        -0.4780
      8 C7         -0.0131   -2.7542    2.4430 C.ar      1 <0>        -0.1017
      9 C8         -0.0042   -4.1162    2.4563 C.ar      1 <0>        -0.0895
     10 C9          0.0042   -4.8477    1.2736 C.ar      1 <0>        -0.1280
     11 C10         0.0032   -4.2076    0.0512 C.ar      1 <0>         0.1972
     12 N2          0.0115   -4.9458   -1.1288 N.pl3     1 <0>        -0.6786
     13 C11         1.2784   -5.3431   -1.7618 C.3       1 <0>         0.1496
     14 C12         1.2359   -4.9304   -3.2369 C.3       1 <0>         0.0396
     15 N3          0.0281   -5.4851   -3.8627 N.3       1 <0>        -0.5337
     16 C13        -1.1893   -4.9364   -3.2504 C.3       1 <0>         0.0347
     17 C14        -1.2462   -5.3545   -1.7725 C.3       1 <0>         0.1493
     18 C15         0.0356   -5.2584   -5.3140 C.3       1 <0>         0.0625
     19 C16        -1.0979   -6.0570   -5.9608 C.3       1 <0>        -0.0749
     20 C17        -1.0902   -5.8244   -7.4498 C.ar      1 <0>        -0.0542
     21 C18        -1.8204   -4.7814   -7.9898 C.ar      1 <0>        -0.1431
     22 C19        -1.8159   -4.5647   -9.3553 C.ar      1 <0>        -0.0866
     23 C20        -1.0816   -5.3899  -10.1846 C.ar      1 <0>        -0.1581
     24 C21        -0.3474   -6.4379   -9.6456 C.ar      1 <0>         0.1910
     25 C22        -0.3495   -6.6495   -8.2729 C.ar      1 <0>        -0.1551
     26 N4          0.3976   -7.2758  -10.4831 N.am      1 <0>        -0.5709
     27 C23         1.3021   -8.3444  -10.0332 C.3       1 <0>         0.0845
     28 C24         1.8522   -8.9388  -11.3442 C.3       1 <0>         0.0912
     29 N5          1.1993   -8.1420  -12.3936 N.am      1 <0>        -0.7361
     30 C25         0.3956   -7.2356  -11.8220 C.2       1 <0>         0.6995
     31 O1         -0.2721   -6.4452  -12.4605 O.2       1 <0>        -0.5652
     32 H1          0.9934    1.8035    0.0696 H         1 <0>         0.0813
     33 H2         -0.5496    1.8052   -0.8177 H         1 <0>         0.0768
     34 H3         -0.5465    1.7834    0.9621 H         1 <0>         0.0795
     35 H4         -0.0168   -0.1709   -2.0966 H         1 <0>         0.1342
     36 H5         -0.0012   -2.6326   -2.1523 H         1 <0>         0.1348
     37 H6         -0.0192   -2.2057    3.3733 H         1 <0>         0.1347
     38 H7         -0.0032   -4.6373    3.4022 H         1 <0>         0.1312
     39 H8          0.0116   -5.9269    1.3122 H         1 <0>         0.1282
     40 H9          2.1089   -4.8415   -1.2650 H         1 <0>         0.0717
     41 H10         1.4019   -6.4235   -1.6872 H         1 <0>         0.0627
     42 H11         1.2167   -3.8430   -3.3100 H         1 <0>         0.0346
     43 H12         2.1191   -5.3142   -3.7476 H         1 <0>         0.0822
     44 H13        -1.1747   -3.8489   -3.3233 H         1 <0>         0.0351
     45 H14        -2.0649   -5.3244   -3.7708 H         1 <0>         0.0854
     46 H15        -1.3606   -6.4360   -1.6990 H         1 <0>         0.0631
     47 H16        -2.0854   -4.8605   -1.2829 H         1 <0>         0.0716
     48 H17        -0.1062   -4.1968   -5.5167 H         1 <0>         0.0355
     49 H18         0.9905   -5.5828   -5.7275 H         1 <0>         0.0763
     50 H19        -0.9561   -7.1185   -5.7582 H         1 <0>         0.0819
     51 H20        -2.0528   -5.7326   -5.5474 H         1 <0>         0.0744
     52 H21        -2.3957   -4.1350   -7.3435 H         1 <0>         0.1206
     53 H22        -2.3875   -3.7496   -9.7740 H         1 <0>         0.1267
     54 H23        -1.0788   -5.2204  -11.2512 H         1 <0>         0.1568
     55 H24         0.2243   -7.4609   -7.8501 H         1 <0>         0.1245
     56 H25         2.1115   -7.9321   -9.4307 H         1 <0>         0.0924
     57 H26         0.7524   -9.0998   -9.4716 H         1 <0>         0.0923
     58 H27         2.9348   -8.8217  -11.3927 H         1 <0>         0.0897
     59 H28         1.5757   -9.9893  -11.4336 H         1 <0>         0.0895
     60 H29         1.3270   -8.2573  -13.3482 H         1 <0>         0.4348
@<TRIPOS>BOND
     1    1    2 1
     2    1   32 1
     3    1   33 1
     4    1   34 1
     5    2    7 ar
     6    2    3 ar
     7    3    4 ar
     8    3   35 1
     9    4    5 ar
    10    4   36 1
    11    5   11 ar
    12    5    6 ar
    13    6    7 ar
    14    6    8 ar
    15    8    9 ar
    16    8   37 1
    17    9   10 ar
    18    9   38 1
    19   10   11 ar
    20   10   39 1
    21   11   12 1
    22   12   17 1
    23   12   13 1
    24   13   14 1
    25   13   40 1
    26   13   41 1
    27   14   15 1
    28   14   42 1
    29   14   43 1
    30   15   16 1
    31   15   18 1
    32   16   17 1
    33   16   44 1
    34   16   45 1
    35   17   46 1
    36   17   47 1
    37   18   19 1
    38   18   48 1
    39   18   49 1
    40   19   20 1
    41   19   50 1
    42   19   51 1
    43   20   25 ar
    44   20   21 ar
    45   21   22 ar
    46   21   52 1
    47   22   23 ar
    48   22   53 1
    49   23   24 ar
    50   23   54 1
    51   24   25 ar
    52   24   26 1
    53   25   55 1
    54   26   30 am
    55   26   27 1
    56   27   28 1
    57   27   56 1
    58   27   57 1
    59   28   29 1
    60   28   58 1
    61   28   59 1
    62   29   30 am
    63   29   60 1
    64   30   31 2
@<TRIPOS>MOLECULE
ZINC34451922
   62    66     0     0     0
SMALL
USER_CHARGES

@<TRIPOS>ATOM
      1 C1         -0.0312    1.4376    0.0625 C.3       1 <0>        -0.1610
      2 C2         -0.0229   -0.0693    0.0447 C.ar      1 <0>         0.2542
      3 C3         -0.0155   -0.7327   -1.1794 C.ar      1 <0>        -0.1670
      4 C4         -0.0074   -2.0992   -1.2143 C.ar      1 <0>         0.0386
      5 C5         -0.0068   -2.7940    0.0070 C.ar      1 <0>        -0.0964
      6 C6         -0.0145   -2.0581    1.2176 C.ar      1 <0>         0.1451
      7 N1         -0.0173   -0.7211    1.1825 N.ar      1 <0>        -0.4584
      8 C7         -0.0139   -2.7495    2.4406 C.ar      1 <0>        -0.1305
      9 C8         -0.0055   -4.1115    2.4546 C.ar      1 <0>        -0.0263
     10 C9          0.0026   -4.8435    1.2722 C.ar      1 <0>        -0.0895
     11 C10         0.0018   -4.2041    0.0495 C.ar      1 <0>         0.2051
     12 N2          0.0100   -4.9428   -1.1301 N.pl3     1 <0>        -0.6830
     13 C11         1.2761   -5.3417   -1.7641 C.3       1 <0>         0.1133
     14 C12         1.2238   -4.9473   -3.2438 C.3       1 <0>        -0.0251
     15 N3          0.0263   -5.5297   -3.8626 N.4       1 <0>        -0.3836
     16 C13        -1.1805   -4.9526   -3.2570 C.3       1 <0>        -0.0322
     17 C14        -1.2473   -5.3521   -1.7749 C.3       1 <0>         0.1142
     18 C15         0.0336   -5.2439   -5.3035 C.3       1 <0>        -0.0083
     19 C16        -1.1461   -5.9543   -5.9703 C.3       1 <0>        -0.0958
     20 C17        -1.1386   -5.6610   -7.4485 C.ar      1 <0>        -0.0824
     21 C18        -1.8170   -4.5596   -7.9377 C.ar      1 <0>        -0.1409
     22 C19        -1.8126   -4.2871   -9.2931 C.ar      1 <0>        -0.0796
     23 C20        -1.1300   -5.1148  -10.1632 C.ar      1 <0>        -0.1415
     24 C21        -0.4479   -6.2214   -9.6753 C.ar      1 <0>         0.2063
     25 C22        -0.4497   -6.4892   -8.3125 C.ar      1 <0>        -0.1564
     26 N4          0.2445   -7.0619  -10.5542 N.am      1 <0>        -0.5752
     27 C23         1.0949   -8.1943  -10.1579 C.3       1 <0>         0.0862
     28 C24         1.6017   -8.7621  -11.4979 C.3       1 <0>         0.0880
     29 N5          0.9830   -7.8894  -12.5069 N.am      1 <0>        -0.7302
     30 C25         0.2334   -6.9663  -11.8902 C.2       1 <0>         0.6992
     31 O1         -0.3969   -6.1161  -12.4888 O.2       1 <0>        -0.5578
     32 H1          0.9944    1.8066    0.0650 H         1 <0>         0.1292
     33 H2         -0.5487    1.8085   -0.8223 H         1 <0>         0.1262
     34 H3         -0.5455    1.7876    0.9576 H         1 <0>         0.1073
     35 H4         -0.0165   -0.1684   -2.1002 H         1 <0>         0.1869
     36 H5         -0.0019   -2.6302   -2.1547 H         1 <0>         0.1595
     37 H6         -0.0198   -2.2006    3.3707 H         1 <0>         0.1627
     38 H7         -0.0048   -4.6322    3.4007 H         1 <0>         0.1641
     39 H8          0.0096   -5.9228    1.3114 H         1 <0>         0.1565
     40 H9          2.1065   -4.8299   -1.2777 H         1 <0>         0.1196
     41 H10         1.4054   -6.4205   -1.6769 H         1 <0>         0.0952
     42 H11         1.1855   -3.8614   -3.3293 H         1 <0>         0.1261
     43 H12         2.1133   -5.3208   -3.7511 H         1 <0>         0.1471
     44 H13        -1.1461   -3.8665   -3.3421 H         1 <0>         0.1272
     45 H14        -2.0627   -5.3301   -3.7741 H         1 <0>         0.1488
     46 H15        -1.3685   -6.4320   -1.6889 H         1 <0>         0.0958
     47 H16        -2.0861   -4.8472   -1.2958 H         1 <0>         0.1195
     48 H17        -0.0535   -4.1688   -5.4611 H         1 <0>         0.1321
     49 H18         0.9665   -5.6007   -5.7400 H         1 <0>         0.1368
     50 H19        -1.0590   -7.0293   -5.8127 H         1 <0>         0.0966
     51 H20        -2.0789   -5.5974   -5.5338 H         1 <0>         0.0955
     52 H21        -2.3517   -3.9111   -7.2594 H         1 <0>         0.1224
     53 H22        -2.3436   -3.4264   -9.6721 H         1 <0>         0.1347
     54 H23        -1.1272   -4.9017  -11.2220 H         1 <0>         0.1647
     55 H24         0.0839   -7.3464   -7.9293 H         1 <0>         0.1263
     56 H25         1.9301   -7.8505   -9.5478 H         1 <0>         0.0912
     57 H26         0.5107   -8.9423   -9.6219 H         1 <0>         0.0923
     58 H27         2.6885   -8.7002  -11.5531 H         1 <0>         0.0940
     59 H28         1.2691   -9.7921  -11.6273 H         1 <0>         0.0943
     60 H29         1.0964   -7.9716  -13.4667 H         1 <0>         0.4403
     61 H30         0.0277   -6.5286   -3.7203 H         1 <0>         0.4274
     62 H31        -0.0190   -0.2237    2.0152 H         1 <0>         0.4506
@<TRIPOS>BOND
     1    1    2 1
     2    1   32 1
     3    1   33 1
     4    1   34 1
     5    2    7 ar
     6    2    3 ar
     7    3    4 ar
     8    3   35 1
     9    4    5 ar
    10    4   36 1
    11    5   11 ar
    12    5    6 ar
    13    6    7 ar
    14    6    8 ar
    15    7   62 1
    16    8    9 ar
    17    8   37 1
    18    9   10 ar
    19    9   38 1
    20   10   11 ar
    21   10   39 1
    22   11   12 1
    23   12   17 1
    24   12   13 1
    25   13   14 1
    26   13   40 1
    27   13   41 1
    28   14   15 1
    29   14   42 1
    30   14   43 1
    31   15   16 1
    32   15   18 1
    33   15   61 1
    34   16   17 1
    35   16   44 1
    36   16   45 1
    37   17   46 1
    38   17   47 1
    39   18   19 1
    40   18   48 1
    41   18   49 1
    42   19   20 1
    43   19   50 1
    44   19   51 1
    45   20   25 ar
    46   20   21 ar
    47   21   22 ar
    48   21   52 1
    49   22   23 ar
    50   22   53 1
    51   23   24 ar
    52   23   54 1
    53   24   25 ar
    54   24   26 1
    55   25   55 1
    56   26   30 am
    57   26   27 1
    58   27   28 1
    59   27   56 1
    60   27   57 1
    61   28   29 1
    62   28   58 1
    63   28   59 1
    64   29   30 am
    65   29   60 1
    66   30   31 2
@<TRIPOS>MOLECULE
ZINC03949424
   73    76     0     0     0
SMALL
USER_CHARGES

@<TRIPOS>ATOM
      1 C1         -0.0663    1.4819   -0.0222 C.3       1 <0>        -0.1665
      2 C2         -0.0295   -0.0476   -0.0295 C.3       1 <0>         0.1715
      3 C3          0.7069   -0.5460    1.2156 C.3       1 <0>        -0.1560
      4 C4         -1.4594   -0.5921   -0.0285 C.3       1 <0>        -0.1576
      5 N1          0.6696   -0.5136   -1.2296 N.am      1 <0>        -0.7124
      6 C5          1.9512   -0.1561   -1.4444 C.2       1 <0>         0.5117
      7 O1          2.5257    0.5514   -0.6442 O.2       1 <0>        -0.5198
      8 C6          2.6704   -0.6354   -2.6789 C.3       1 <0>         0.1207
      9 H1          1.9938   -0.6014   -3.5328 H         1 <0>         0.1478
     10 C7          3.1574   -2.0739   -2.4651 C.3       1 <0>         0.1175
     11 N2          4.2533   -2.0580   -1.4860 N.pl3     1 <0>        -0.5629
     12 C8          5.4192   -1.2007   -1.7417 C.3       1 <0>         0.0877
     13 C9          4.9322    0.2378   -1.9556 C.3       1 <0>         0.0924
     14 N3          3.8339    0.2245   -2.9371 N.am      1 <0>        -0.5813
     15 C10         3.8943    0.9808   -4.0510 C.2       1 <0>         0.6584
     16 O2          2.9815    0.9556   -4.8526 O.2       1 <0>        -0.5552
     17 O3          4.9660    1.7642   -4.2755 O.3       1 <0>        -0.3524
     18 C11         4.9631    2.5390   -5.4762 C.3       1 <0>         0.1289
     19 C12         6.2329    3.3467   -5.5559 C.ar      1 <0>        -0.1060
     20 C13         6.2815    4.6141   -5.0060 C.ar      1 <0>        -0.0923
     21 C14         7.4462    5.3550   -5.0791 C.ar      1 <0>        -0.1215
     22 C15         8.5625    4.8284   -5.7017 C.ar      1 <0>        -0.1030
     23 C16         8.5141    3.5607   -6.2507 C.ar      1 <0>        -0.1226
     24 C17         7.3507    2.8181   -6.1739 C.ar      1 <0>        -0.0935
     25 C18         4.1886   -2.8368   -0.3438 C.ar      1 <0>         0.6847
     26 N4          5.2385   -2.8774    0.4540 N.ar      1 <0>        -0.5820
     27 C19         5.2146   -3.6215    1.5710 C.ar      1 <0>         0.2225
     28 C20         6.3124   -3.6852    2.4381 C.ar      1 <0>        -0.2297
     29 C21         6.2376   -4.4635    3.5721 C.ar      1 <0>         0.2176
     30 C22         5.0759   -5.1909    3.8654 C.ar      1 <0>         0.1145
     31 C23         3.9938   -5.1430    3.0337 C.ar      1 <0>        -0.1167
     32 C24         4.0438   -4.3588    1.8743 C.ar      1 <0>        -0.1900
     33 C25         2.9486   -4.2759    0.9810 C.ar      1 <0>         0.5620
     34 N5          3.0689   -3.5091   -0.0933 N.ar      1 <0>        -0.5918
     35 N6          1.7831   -4.9721    1.2254 N.pl3     1 <0>        -0.7735
     36 O4          5.0259   -5.9533    4.9908 O.3       1 <0>        -0.2899
     37 C26         3.8146   -6.6711    5.2349 C.3       1 <0>         0.0159
     38 O5          7.3011   -4.5272    4.4149 O.3       1 <0>        -0.2781
     39 C27         8.4560   -3.7637    4.0608 C.3       1 <0>         0.0123
     40 H2          0.9524    1.8698   -0.0229 H         1 <0>         0.0759
     41 H3         -0.5909    1.8370   -0.9092 H         1 <0>         0.0577
     42 H4         -0.5864    1.8286    0.8708 H         1 <0>         0.0669
     43 H5          0.1867   -0.1994    2.1085 H         1 <0>         0.0656
     44 H6          0.7330   -1.6357    1.2104 H         1 <0>         0.0485
     45 H7          1.7255   -0.1581    1.2149 H         1 <0>         0.0713
     46 H8         -1.9840   -0.2370   -0.9155 H         1 <0>         0.0668
     47 H9         -1.4332   -1.6818   -0.0337 H         1 <0>         0.0621
     48 H10        -1.9795   -0.2454    0.8645 H         1 <0>         0.0774
     49 H11         0.2101   -1.0794   -1.8696 H         1 <0>         0.4023
     50 H12         2.3379   -2.6852   -2.0870 H         1 <0>         0.1316
     51 H13         3.5165   -2.4828   -3.4095 H         1 <0>         0.1120
     52 H14         6.0934   -1.2352   -0.8859 H         1 <0>         0.0940
     53 H15         5.9394   -1.5474   -2.6346 H         1 <0>         0.1105
     54 H16         4.5731    0.6467   -1.0111 H         1 <0>         0.1104
     55 H17         5.7517    0.8491   -2.3336 H         1 <0>         0.1203
     56 H18         4.9009    1.8740   -6.3376 H         1 <0>         0.0818
     57 H19         4.1048    3.2108   -5.4731 H         1 <0>         0.0812
     58 H20         5.4094    5.0255   -4.5196 H         1 <0>         0.1246
     59 H21         7.4840    6.3454   -4.6501 H         1 <0>         0.1281
     60 H22         9.4722    5.4076   -5.7594 H         1 <0>         0.1274
     61 H23         9.3861    3.1494   -6.7374 H         1 <0>         0.1277
     62 H24         7.3141    1.8262   -6.5996 H         1 <0>         0.1242
     63 H25         7.2115   -3.1285    2.2190 H         1 <0>         0.1676
     64 H26         3.1036   -5.7075    3.2687 H         1 <0>         0.1584
     65 H27         1.7066   -5.5270    2.0173 H         1 <0>         0.4285
     66 H28         1.0400   -4.9066    0.6054 H         1 <0>         0.4298
     67 H29         2.9864   -5.9676    5.3207 H         1 <0>         0.0634
     68 H30         3.6254   -7.3561    4.4084 H         1 <0>         0.0635
     69 H31         3.9081   -7.2370    6.1618 H         1 <0>         0.1173
     70 H32         8.8293   -4.0973    3.0926 H         1 <0>         0.0685
     71 H33         8.1903   -2.7081    4.0037 H         1 <0>         0.0687
     72 H34         9.2295   -3.9034    4.8161 H         1 <0>         0.1204
     73 H35         6.0326   -2.3666    0.2319 H         1 <0>         0.4346
@<TRIPOS>BOND
     1    1    2 1
     2    1   40 1
     3    1   41 1
     4    1   42 1
     5    2    3 1
     6    2    4 1
     7    2    5 1
     8    3   43 1
     9    3   44 1
    10    3   45 1
    11    4   46 1
    12    4   47 1
    13    4   48 1
    14    5    6 am
    15    5   49 1
    16    6    7 2
    17    6    8 1
    18    8    9 1
    19    8   14 1
    20    8   10 1
    21   10   11 1
    22   10   50 1
    23   10   51 1
    24   11   12 1
    25   11   25 1
    26   12   13 1
    27   12   52 1
    28   12   53 1
    29   13   14 1
    30   13   54 1
    31   13   55 1
    32   14   15 am
    33   15   16 2
    34   15   17 1
    35   17   18 1
    36   18   19 1
    37   18   56 1
    38   18   57 1
    39   19   24 ar
    40   19   20 ar
    41   20   21 ar
    42   20   58 1
    43   21   22 ar
    44   21   59 1
    45   22   23 ar
    46   22   60 1
    47   23   24 ar
    48   23   61 1
    49   24   62 1
    50   25   34 ar
    51   25   26 ar
    52   26   27 ar
    53   26   73 1
    54   27   32 ar
    55   27   28 ar
    56   28   29 ar
    57   28   63 1
    58   29   30 ar
    59   29   38 1
    60   30   31 ar
    61   30   36 1
    62   31   32 ar
    63   31   64 1
    64   32   33 ar
    65   33   34 ar
    66   33   35 1
    67   35   65 1
    68   35   66 1
    69   36   37 1
    70   37   67 1
    71   37   68 1
    72   37   69 1
    73   38   39 1
    74   39   70 1
    75   39   71 1
    76   39   72 1
@<TRIPOS>MOLECULE
ZINC28256102
   29    29     0     0     0
SMALL
USER_CHARGES
(1R)-1-(3,4-dihydroxyphenyl)-2-methylamino-ethanesulfonic acid
@<TRIPOS>ATOM
      1 C1          3.9599   -1.3998   -2.4787 C.3       1 <0>        -0.0379
      2 N1          3.8485   -0.5500   -1.2857 N.4       1 <0>        -0.5532
      3 C2          2.5684    0.1704   -1.2701 C.3       1 <0>         0.0227
      4 C3          2.4894    1.0428   -0.0156 C.3       1 <0>        -0.6234
      5 H1          3.2354    1.8355   -0.1740 H         1 <0>         0.1339
      6 C4          1.1761    1.7818    0.0004 C.ar      1 <0>        -0.0758
      7 C5         -0.0126    1.0758    0.0080 C.ar      1 <0>        -0.1007
      8 C6         -1.2199    1.7491    0.0173 C.ar      1 <0>        -0.1260
      9 C7         -1.2404    3.1346    0.0298 C.ar      1 <0>         0.1348
     10 C8         -0.0440    3.8452    0.0218 C.ar      1 <0>         0.0591
     11 C9          1.1627    3.1641    0.0070 C.ar      1 <0>        -0.1577
     12 O1         -0.0590    5.2050    0.0287 O.3       1 <0>        -0.5186
     13 O2         -2.4272    3.7985    0.0443 O.3       1 <0>        -0.5059
     14 S1          2.6108   -0.0065    1.4592 S.o2      1 <0>         2.6238
     15 O3          3.7569   -0.8420    1.3724 O.2       1 <0>        -1.0492
     16 O4          2.3611    0.7617    2.6283 O.2       1 <0>        -1.0007
     17 O5          1.4276   -0.9587    1.3602 O.3       1 <0>        -1.0358
     18 H2          4.9256   -1.9264   -2.4649 H         1 <0>         0.1213
     19 H3          3.8960   -0.7746   -3.3815 H         1 <0>         0.1103
     20 H4          3.1415   -2.1348   -2.4830 H         1 <0>         0.1177
     21 H5          3.9124   -1.1752   -0.3829 H         1 <0>         0.4592
     22 H6          2.4948    0.8066   -2.1644 H         1 <0>         0.1234
     23 H7          1.7402   -0.5536   -1.2660 H         1 <0>         0.1378
     24 H8          0.0021   -0.0041    0.0020 H         1 <0>         0.1578
     25 H9         -2.1471    1.1953    0.0191 H         1 <0>         0.1399
     26 H10         2.0926    3.7132    0.0011 H         1 <0>         0.1267
     27 H11         0.8875    5.7655    0.0224 H         1 <0>         0.4379
     28 H12        -2.4421    4.8984    0.0542 H         1 <0>         0.4381
     29 H13         4.6669    0.1850   -1.2813 H         1 <0>         0.4402
@<TRIPOS>BOND
     1    1    2 1
     2    1   18 1
     3    1   19 1
     4    1   20 1
     5    2    3 1
     6    2   21 1
     7    2   29 1
     8    3    4 1
     9    3   22 1
    10    3   23 1
    11    4    5 1
    12    4    6 1
    13    4   14 1
    14    6   11 ar
    15    6    7 ar
    16    7    8 ar
    17    7   24 1
    18    8    9 ar
    19    8   25 1
    20    9   10 ar
    21    9   13 1
    22   10   11 ar
    23   10   12 1
    24   11   26 1
    25   12   27 1
    26   13   28 1
    27   14   15 2
    28   14   16 2
    29   14   17 1
@<TRIPOS>MOLECULE
ZINC28256107
   29    29     0     0     0
SMALL
USER_CHARGES
(1S)-1-(3,4-dihydroxyphenyl)-2-methylamino-ethanesulfonic acid
@<TRIPOS>ATOM
      1 C1         -2.3559   -6.8074   -1.4303 C.3       1 <0>        -0.0378
      2 N1         -1.1689   -6.2702   -0.7516 N.4       1 <0>        -0.5532
      3 C2         -1.1889   -4.8014   -0.7398 C.3       1 <0>         0.0227
      4 C3          0.0602   -4.2801   -0.0263 C.3       1 <0>        -0.6235
      5 H1         -0.0815   -4.5536    1.0297 H         1 <0>         0.1340
      6 C4          0.0397   -2.7733   -0.0141 C.ar      1 <0>        -0.0758
      7 C5          0.0184   -2.0742   -1.2067 C.ar      1 <0>        -0.1007
      8 C6         -0.0057   -0.6920   -1.2008 C.ar      1 <0>        -0.1260
      9 C7          0.0021   -0.0041    0.0020 C.ar      1 <0>         0.1348
     10 C8          0.0230   -0.7078    1.2023 C.ar      1 <0>         0.0592
     11 C9          0.0418   -2.0932    1.1894 C.ar      1 <0>        -0.1577
     12 O1          0.0255   -0.0372    2.3855 O.3       1 <0>        -0.5186
     13 O2         -0.0164    1.3557    0.0095 O.3       1 <0>        -0.5058
     14 S1          1.5411   -4.8577   -0.9002 S.o2      1 <0>         2.6237
     15 O3          2.7008   -4.2396   -0.3596 O.2       1 <0>        -1.0007
     16 O4          1.4869   -6.2667   -1.0769 O.2       1 <0>        -1.0492
     17 O5          1.4148   -4.2851   -2.3047 O.3       1 <0>        -1.0358
     18 H2         -2.3154   -7.9066   -1.4247 H         1 <0>         0.1213
     19 H3         -2.3790   -6.4466   -2.4692 H         1 <0>         0.1177
     20 H4         -3.2621   -6.4712   -0.9052 H         1 <0>         0.1103
     21 H5         -1.1458   -6.6310    0.2873 H         1 <0>         0.4402
     22 H6         -1.2038   -4.4266   -1.7739 H         1 <0>         0.1378
     23 H7         -2.0870   -4.4512   -0.2099 H         1 <0>         0.1235
     24 H8          0.0165   -2.6091   -2.1449 H         1 <0>         0.1578
     25 H9         -0.0265   -0.1483   -2.1337 H         1 <0>         0.1399
     26 H10         0.0585   -2.6418    2.1196 H         1 <0>         0.1267
     27 H11         0.0420   -0.5947    3.3336 H         1 <0>         0.4379
     28 H12        -0.0102    1.9006    0.9650 H         1 <0>         0.4381
     29 H13        -0.2627   -6.6064   -1.2767 H         1 <0>         0.4592
@<TRIPOS>BOND
     1    1    2 1
     2    1   18 1
     3    1   19 1
     4    1   20 1
     5    2    3 1
     6    2   21 1
     7    2   29 1
     8    3    4 1
     9    3   22 1
    10    3   23 1
    11    4    5 1
    12    4    6 1
    13    4   14 1
    14    6   11 ar
    15    6    7 ar
    16    7    8 ar
    17    7   24 1
    18    8    9 ar
    19    8   25 1
    20    9   10 ar
    21    9   13 1
    22   10   11 ar
    23   10   12 1
    24   11   26 1
    25   12   27 1
    26   13   28 1
    27   14   15 2
    28   14   16 2
    29   14   17 1
@<TRIPOS>MOLECULE
ZINC02169422
   49    51     0     0     0
SMALL
USER_CHARGES

@<TRIPOS>ATOM
      1 C1         -0.0173    1.4248    0.0099 C.3       1 <0>         0.0220
      2 O1          0.0021   -0.0041    0.0020 O.3       1 <0>        -0.3158
      3 C2          0.6263   -0.6188    1.0422 C.ar      1 <0>         0.1556
      4 C3          1.2023    0.1379    2.0514 C.ar      1 <0>        -0.2329
      5 C4          1.8370   -0.4860    3.1091 C.ar      1 <0>        -0.0259
      6 C5          1.9002   -1.8657    3.1656 C.ar      1 <0>        -0.2322
      7 C6          1.3266   -2.6296    2.1604 C.ar      1 <0>         0.1603
      8 C7          0.6826   -2.0063    1.0982 C.ar      1 <0>         0.0101
      9 O2          0.1135   -2.7526    0.1126 O.3       1 <0>        -0.3151
     10 C8          0.9387   -3.0899   -1.0043 C.3       1 <0>         0.0248
     11 C9          0.1318   -3.9245   -2.0009 C.3       1 <0>         0.0027
     12 N1         -0.9570   -3.1085   -2.5546 N.4       1 <0>        -0.5070
     13 C10        -1.7317   -3.9098   -3.5115 C.3       1 <0>         0.0060
     14 C11        -2.8656   -3.0599   -4.0881 C.3       1 <0>         0.0197
     15 H1         -2.4506   -2.1903   -4.5978 H         1 <0>         0.1086
     16 C12        -3.6875   -3.8964   -5.0780 C.3       1 <0>         0.0336
     17 O3         -4.7457   -3.0771   -5.5867 O.3       1 <0>        -0.2940
     18 C13        -5.4491   -2.3511   -4.6753 C.ar      1 <0>         0.0502
     19 C14        -6.6865   -1.8324   -5.0268 C.ar      1 <0>        -0.1085
     20 C15        -7.4109   -1.0903   -4.1134 C.ar      1 <0>        -0.1000
     21 C16        -6.9048   -0.8632   -2.8471 C.ar      1 <0>        -0.1093
     22 C17        -5.6732   -1.3784   -2.4899 C.ar      1 <0>        -0.1051
     23 C18        -4.9414   -2.1250   -3.4015 C.ar      1 <0>         0.0395
     24 O4         -3.7333   -2.6322   -3.0325 O.3       1 <0>        -0.3160
     25 O5          1.3897   -3.9870    2.2166 O.3       1 <0>        -0.3070
     26 C19         2.0623   -4.5592    3.3400 C.3       1 <0>         0.0218
     27 H2          1.0053    1.8021    0.0021 H         1 <0>         0.0625
     28 H3         -0.5445    1.7859   -0.8732 H         1 <0>         0.1060
     29 H4         -0.5275    1.7763    0.9067 H         1 <0>         0.0643
     30 H5          1.1554    1.2161    2.0107 H         1 <0>         0.1408
     31 H6          2.2850    0.1061    3.8934 H         1 <0>         0.1398
     32 H7          2.3972   -2.3494    3.9934 H         1 <0>         0.1417
     33 H8          1.2835   -2.1771   -1.4901 H         1 <0>         0.0771
     34 H9          1.7981   -3.6654   -0.6604 H         1 <0>         0.1012
     35 H10         0.7840   -4.2565   -2.8087 H         1 <0>         0.1485
     36 H11        -0.2873   -4.7927   -1.4923 H         1 <0>         0.1435
     37 H12        -1.5607   -2.8012   -1.8068 H         1 <0>         0.4445
     38 H13        -1.0795   -4.2418   -4.3193 H         1 <0>         0.1556
     39 H14        -2.1508   -4.7780   -3.0028 H         1 <0>         0.1460
     40 H15        -3.0503   -4.2255   -5.8989 H         1 <0>         0.1319
     41 H16        -4.1068   -4.7633   -4.5672 H         1 <0>         0.0891
     42 H17        -7.0840   -2.0082   -6.0155 H         1 <0>         0.1416
     43 H18        -8.3743   -0.6875   -4.3892 H         1 <0>         0.1408
     44 H19        -7.4727   -0.2818   -2.1359 H         1 <0>         0.1399
     45 H20        -5.2800   -1.1994   -1.5001 H         1 <0>         0.1376
     46 H21         2.0404   -5.6461    3.2617 H         1 <0>         0.1081
     47 H22         3.0971   -4.2169    3.3570 H         1 <0>         0.0620
     48 H23         1.5626   -4.2509    4.2584 H         1 <0>         0.0634
     49 H24        -0.5690   -2.3048   -3.0254 H         1 <0>         0.4279
@<TRIPOS>BOND
     1    1    2 1
     2    1   27 1
     3    1   28 1
     4    1   29 1
     5    2    3 1
     6    3    8 ar
     7    3    4 ar
     8    4    5 ar
     9    4   30 1
    10    5    6 ar
    11    5   31 1
    12    6    7 ar
    13    6   32 1
    14    7    8 ar
    15    7   25 1
    16    8    9 1
    17    9   10 1
    18   10   11 1
    19   10   33 1
    20   10   34 1
    21   11   12 1
    22   11   35 1
    23   11   36 1
    24   12   13 1
    25   12   37 1
    26   12   49 1
    27   13   14 1
    28   13   38 1
    29   13   39 1
    30   14   15 1
    31   14   24 1
    32   14   16 1
    33   16   17 1
    34   16   40 1
    35   16   41 1
    36   17   18 1
    37   18   23 ar
    38   18   19 ar
    39   19   20 ar
    40   19   42 1
    41   20   21 ar
    42   20   43 1
    43   21   22 ar
    44   21   44 1
    45   22   23 ar
    46   22   45 1
    47   23   24 1
    48   25   26 1
    49   26   46 1
    50   26   47 1
    51   26   48 1
@<TRIPOS>MOLECULE
ZINC02169424
   49    51     0     0     0
SMALL
USER_CHARGES

@<TRIPOS>ATOM
      1 C1         -0.0173    1.4248    0.0099 C.3       1 <0>         0.0220
      2 O1          0.0021   -0.0041    0.0020 O.3       1 <0>        -0.3161
      3 C2          0.6263   -0.6188    1.0422 C.ar      1 <0>         0.1555
      4 C3          1.2023    0.1379    2.0514 C.ar      1 <0>        -0.2328
      5 C4          1.8370   -0.4860    3.1091 C.ar      1 <0>        -0.0256
      6 C5          1.9002   -1.8657    3.1656 C.ar      1 <0>        -0.2321
      7 C6          1.3266   -2.6296    2.1604 C.ar      1 <0>         0.1604
      8 C7          0.6826   -2.0063    1.0982 C.ar      1 <0>         0.0097
      9 O2          0.1135   -2.7526    0.1126 O.3       1 <0>        -0.3164
     10 C8          0.9387   -3.0899   -1.0043 C.3       1 <0>         0.0247
     11 C9          0.1318   -3.9245   -2.0009 C.3       1 <0>         0.0033
     12 N1         -0.9570   -3.1085   -2.5546 N.4       1 <0>        -0.5074
     13 C10        -1.7317   -3.9098   -3.5115 C.3       1 <0>         0.0060
     14 C11        -2.8656   -3.0599   -4.0881 C.3       1 <0>         0.0198
     15 H1         -3.4690   -2.6528   -3.2767 H         1 <0>         0.1089
     16 C12        -3.7445   -3.9223   -5.0040 C.3       1 <0>         0.0338
     17 O3         -4.7846   -3.0948   -5.5364 O.3       1 <0>        -0.2938
     18 C13        -4.4107   -1.8796   -6.0222 C.ar      1 <0>         0.0506
     19 C14        -5.2702   -1.1893   -6.8640 C.ar      1 <0>        -0.1082
     20 C15        -4.9061    0.0471   -7.3627 C.ar      1 <0>        -0.0999
     21 C16        -3.6849    0.5995   -7.0236 C.ar      1 <0>        -0.1096
     22 C17        -2.8233   -0.0837   -6.1866 C.ar      1 <0>        -0.1058
     23 C18        -3.1817   -1.3259   -5.6843 C.ar      1 <0>         0.0388
     24 O4         -2.3191   -1.9901   -4.8670 O.3       1 <0>        -0.3164
     25 O5          1.3897   -3.9870    2.2166 O.3       1 <0>        -0.3071
     26 C19         2.0623   -4.5592    3.3400 C.3       1 <0>         0.0218
     27 H2          1.0053    1.8021    0.0021 H         1 <0>         0.0628
     28 H3         -0.5445    1.7859   -0.8732 H         1 <0>         0.1064
     29 H4         -0.5275    1.7763    0.9067 H         1 <0>         0.0642
     30 H5          1.1554    1.2161    2.0107 H         1 <0>         0.1409
     31 H6          2.2850    0.1061    3.8934 H         1 <0>         0.1399
     32 H7          2.3972   -2.3494    3.9934 H         1 <0>         0.1418
     33 H8          1.2835   -2.1771   -1.4901 H         1 <0>         0.0775
     34 H9          1.7981   -3.6654   -0.6604 H         1 <0>         0.1014
     35 H10         0.7840   -4.2565   -2.8087 H         1 <0>         0.1483
     36 H11        -0.2873   -4.7927   -1.4923 H         1 <0>         0.1439
     37 H12        -1.5607   -2.8012   -1.8068 H         1 <0>         0.4373
     38 H13        -1.0795   -4.2418   -4.3193 H         1 <0>         0.1463
     39 H14        -2.1508   -4.7780   -3.0028 H         1 <0>         0.1563
     40 H15        -3.1423   -4.3253   -5.8184 H         1 <0>         0.0892
     41 H16        -4.1822   -4.7395   -4.4306 H         1 <0>         0.1322
     42 H17        -6.2248   -1.6185   -7.1302 H         1 <0>         0.1418
     43 H18        -5.5768    0.5828   -8.0181 H         1 <0>         0.1409
     44 H19        -3.4037    1.5665   -7.4138 H         1 <0>         0.1399
     45 H20        -1.8699    0.3501   -5.9233 H         1 <0>         0.1368
     46 H21         2.0404   -5.6461    3.2617 H         1 <0>         0.1082
     47 H22         3.0971   -4.2169    3.3570 H         1 <0>         0.0621
     48 H23         1.5626   -4.2509    4.2584 H         1 <0>         0.0634
     49 H24        -0.5690   -2.3048   -3.0254 H         1 <0>         0.4346
@<TRIPOS>BOND
     1    1    2 1
     2    1   27 1
     3    1   28 1
     4    1   29 1
     5    2    3 1
     6    3    8 ar
     7    3    4 ar
     8    4    5 ar
     9    4   30 1
    10    5    6 ar
    11    5   31 1
    12    6    7 ar
    13    6   32 1
    14    7    8 ar
    15    7   25 1
    16    8    9 1
    17    9   10 1
    18   10   11 1
    19   10   33 1
    20   10   34 1
    21   11   12 1
    22   11   35 1
    23   11   36 1
    24   12   13 1
    25   12   37 1
    26   12   49 1
    27   13   14 1
    28   13   38 1
    29   13   39 1
    30   14   15 1
    31   14   24 1
    32   14   16 1
    33   16   17 1
    34   16   40 1
    35   16   41 1
    36   17   18 1
    37   18   23 ar
    38   18   19 ar
    39   19   20 ar
    40   19   42 1
    41   20   21 ar
    42   20   43 1
    43   21   22 ar
    44   21   44 1
    45   22   23 ar
    46   22   45 1
    47   23   24 1
    48   25   26 1
    49   26   46 1
    50   26   47 1
    51   26   48 1
@<TRIPOS>MOLECULE
ZINC00643233
   56    59     0     0     0
SMALL
USER_CHARGES

@<TRIPOS>ATOM
      1 C1         -0.0167    1.3786    0.0096 C.ar      1 <0>        -0.1573
      2 C2          1.1695    2.0894    0.0021 C.ar      1 <0>        -0.0635
      3 C3          2.3774    1.4200   -0.0130 C.ar      1 <0>        -0.1784
      4 C4          2.3998    0.0311   -0.0206 C.ar      1 <0>         0.2317
      5 C5          1.2064   -0.6798   -0.0130 C.ar      1 <0>        -0.1988
      6 C6          0.0021   -0.0041    0.0020 C.ar      1 <0>        -0.0706
      7 N1          3.6196   -0.6492   -0.0363 N.pl3     1 <0>        -0.6334
      8 C7          4.9637   -0.0571   -0.0400 C.3       1 <0>         0.3326
      9 N2          5.9388   -1.1470   -0.0572 N.am      1 <0>        -0.7166
     10 C8          5.3099   -2.3344   -0.0641 C.2       1 <0>         0.5288
     11 O1          5.8532   -3.4187   -0.0778 O.2       1 <0>        -0.5133
     12 C9          3.8222   -2.1026   -0.0461 C.3       1 <0>         0.1361
     13 C10         3.1820   -2.7114   -1.2943 C.3       1 <0>        -0.1499
     14 C11         3.3480   -4.2326   -1.2552 C.3       1 <0>        -0.0132
     15 N3          2.7020   -4.7671   -0.0503 N.4       1 <0>        -0.3794
     16 C12         3.3698   -4.2457    1.1482 C.3       1 <0>        -0.0190
     17 C13         3.2050   -2.7250    1.2070 C.3       1 <0>        -0.1492
     18 C14         2.7905   -6.2335   -0.0591 C.3       1 <0>        -0.0094
     19 C15         2.0109   -6.7986    1.1299 C.3       1 <0>        -0.1425
     20 C16         2.1030   -8.3258    1.1207 C.3       1 <0>        -0.1654
     21 C17         1.3351   -8.8824    2.2919 C.2       1 <0>         0.4040
     22 O2          0.7698   -8.1316    3.0583 O.2       1 <0>        -0.4484
     23 C18         1.2712  -10.3355    2.5052 C.ar      1 <0>        -0.1962
     24 C19         1.9272  -11.2044    1.6259 C.ar      1 <0>        -0.0430
     25 C20         1.8634  -12.5650    1.8315 C.ar      1 <0>        -0.1669
     26 C21         1.1505  -13.0743    2.9070 C.ar      1 <0>         0.1434
     27 C22         0.4980  -12.2186    3.7823 C.ar      1 <0>        -0.1651
     28 C23         0.5590  -10.8557    3.5917 C.ar      1 <0>        -0.0262
     29 F1          1.0910  -14.4098    3.1025 F         1 <0>        -0.1261
     30 H1         -0.9598    1.9046    0.0260 H         1 <0>         0.1276
     31 H2          1.1513    3.1692    0.0077 H         1 <0>         0.1312
     32 H3          3.3034    1.9757   -0.0192 H         1 <0>         0.1257
     33 H4          1.2204   -1.7597   -0.0193 H         1 <0>         0.1144
     34 H5         -0.9261   -0.5561    0.0079 H         1 <0>         0.1276
     35 H6          5.0901    0.5643   -0.9265 H         1 <0>         0.0880
     36 H7          5.1025    0.5473    0.8564 H         1 <0>         0.0877
     37 H8          6.9016   -1.0295   -0.0627 H         1 <0>         0.4365
     38 H9          2.1214   -2.4613   -1.3183 H         1 <0>         0.1096
     39 H10         3.6706   -2.3147   -2.1843 H         1 <0>         0.1192
     40 H11         2.8858   -4.6710   -2.1397 H         1 <0>         0.1383
     41 H12         4.4090   -4.4817   -1.2391 H         1 <0>         0.1470
     42 H13         2.9238   -4.6937    2.0361 H         1 <0>         0.1399
     43 H14         4.4303   -4.4946    1.1101 H         1 <0>         0.1471
     44 H15         3.7099   -2.3380    2.0921 H         1 <0>         0.1189
     45 H16         2.1450   -2.4752    1.2532 H         1 <0>         0.1098
     46 H17         2.3668   -6.6175   -0.9870 H         1 <0>         0.1347
     47 H18         3.8354   -6.5348    0.0153 H         1 <0>         0.1347
     48 H19         2.4346   -6.4145    2.0578 H         1 <0>         0.0947
     49 H20         0.9660   -6.4972    1.0555 H         1 <0>         0.0950
     50 H21         1.6793   -8.7098    0.1928 H         1 <0>         0.1132
     51 H22         3.1479   -8.6271    1.1951 H         1 <0>         0.1132
     52 H23         2.4820  -10.8091    0.7879 H         1 <0>         0.1415
     53 H24         2.3692  -13.2366    1.1537 H         1 <0>         0.1468
     54 H25        -0.0554  -12.6215    4.6177 H         1 <0>         0.1475
     55 H26         0.0543  -10.1903    4.2765 H         1 <0>         0.1457
     56 H27         1.7315   -4.4913   -0.0400 H         1 <0>         0.4195
@<TRIPOS>BOND
     1    1    6 ar
     2    1    2 ar
     3    1   30 1
     4    2    3 ar
     5    2   31 1
     6    3    4 ar
     7    3   32 1
     8    4    5 ar
     9    4    7 1
    10    5    6 ar
    11    5   33 1
    12    6   34 1
    13    7   12 1
    14    7    8 1
    15    8    9 1
    16    8   35 1
    17    8   36 1
    18    9   10 am
    19    9   37 1
    20   10   11 2
    21   10   12 1
    22   12   17 1
    23   12   13 1
    24   13   14 1
    25   13   38 1
    26   13   39 1
    27   14   15 1
    28   14   40 1
    29   14   41 1
    30   15   16 1
    31   15   18 1
    32   15   56 1
    33   16   17 1
    34   16   42 1
    35   16   43 1
    36   17   44 1
    37   17   45 1
    38   18   19 1
    39   18   46 1
    40   18   47 1
    41   19   20 1
    42   19   48 1
    43   19   49 1
    44   20   21 1
    45   20   50 1
    46   20   51 1
    47   21   22 2
    48   21   23 1
    49   23   28 ar
    50   23   24 ar
    51   24   25 ar
    52   24   52 1
    53   25   26 ar
    54   25   53 1
    55   26   27 ar
    56   26   29 1
    57   27   28 ar
    58   27   54 1
    59   28   55 1
@<TRIPOS>MOLECULE
ZINC00000802
   49    51     0     0     0
SMALL
USER_CHARGES
1-[(3,4,5-trimethoxyphenyl)methyl]-1,2,3,4-tetrahydroisoquinoline-6,7-diol
@<TRIPOS>ATOM
      1 C1          5.1993    6.9705    5.7400 C.3       1 <0>         0.0226
      2 O1          5.1823    5.9507    6.7408 O.3       1 <0>        -0.2936
      3 C2          4.5674    4.7808    6.4198 C.ar      1 <0>         0.1626
      4 C3          3.9930    4.6190    5.1681 C.ar      1 <0>        -0.2591
      5 C4          3.3686    3.4301    4.8406 C.ar      1 <0>        -0.0513
      6 C5          3.3087    2.4002    5.7607 C.ar      1 <0>        -0.2210
      7 C6          3.8852    2.5521    7.0127 C.ar      1 <0>         0.1641
      8 C7          4.5143    3.7458    7.3457 C.ar      1 <0>         0.0415
      9 O2          5.0764    3.9008    8.5754 O.3       1 <0>        -0.3123
     10 C8          4.2424    4.4305    9.6079 C.3       1 <0>         0.0347
     11 O3          3.8305    1.5363    7.9153 O.3       1 <0>        -0.2943
     12 C9          3.1682    0.3385    7.5046 C.3       1 <0>         0.0213
     13 C10         2.7462    3.2584    3.4790 C.3       1 <0>        -0.0997
     14 C11         3.7839    2.6840    2.5126 C.3       1 <0>         0.0944
     15 H1          4.1827    1.7562    2.9228 H         1 <0>         0.1501
     16 C12         3.1257    2.3993    1.1877 C.ar      1 <0>        -0.1211
     17 C13         1.8633    1.8227    1.1902 C.ar      1 <0>        -0.1081
     18 C14         1.2237    1.5328   -0.0014 C.ar      1 <0>         0.0997
     19 C15         1.8468    1.8323   -1.2096 C.ar      1 <0>         0.1152
     20 C16         3.1021    2.4135   -1.2070 C.ar      1 <0>        -0.1198
     21 C17         3.7409    2.6988   -0.0091 C.ar      1 <0>        -0.0784
     22 C18         5.1034    3.3418   -0.0587 C.3       1 <0>        -0.1063
     23 C19         5.7996    3.1955    1.2945 C.3       1 <0>        -0.0003
     24 O4          1.2249    1.5544   -2.3866 O.3       1 <0>        -0.4865
     25 O5         -0.0110    0.9628    0.0073 O.3       1 <0>        -0.4860
     26 H2          5.7189    7.8482    6.1244 H         1 <0>         0.1116
     27 H3          5.7160    6.6015    4.8540 H         1 <0>         0.0529
     28 H4          4.1760    7.2397    5.4781 H         1 <0>         0.0612
     29 H5          4.0339    5.4229    4.4480 H         1 <0>         0.1340
     30 H6          2.8161    1.4744    5.5025 H         1 <0>         0.1422
     31 H7          3.3871    3.7717    9.7578 H         1 <0>         0.0485
     32 H8          4.8124    4.5025   10.5342 H         1 <0>         0.1009
     33 H9          3.8917    5.4213    9.3191 H         1 <0>         0.0479
     34 H10         3.1962   -0.3887    8.3161 H         1 <0>         0.1114
     35 H11         2.1316    0.5640    7.2544 H         1 <0>         0.0614
     36 H12         3.6717   -0.0735    6.6300 H         1 <0>         0.0598
     37 H13         2.4037    4.2258    3.1114 H         1 <0>         0.1050
     38 H14         1.8991    2.5762    3.5501 H         1 <0>         0.1253
     39 H15         1.3790    1.5952    2.1283 H         1 <0>         0.1461
     40 H16         3.5875    2.6469   -2.1431 H         1 <0>         0.1467
     41 H17         5.7040    2.8579   -0.8288 H         1 <0>         0.1262
     42 H18         4.9956    4.3999   -0.2977 H         1 <0>         0.1071
     43 H19         6.7013    3.8077    1.3105 H         1 <0>         0.1425
     44 H20         6.0630    2.1513    1.4630 H         1 <0>         0.1357
     45 H21         0.6735    2.2755   -2.7199 H         1 <0>         0.4062
     46 H22         0.0021   -0.0041    0.0020 H         1 <0>         0.4048
     47 N1          4.8763    3.6530    2.3494 N.4       1 <0>        -0.5146
     48 H23         5.3883    3.7412    3.2351 H         1 <0>         0.4381
     49 H24         4.4856    4.5656    2.0876 H         1 <0>         0.4309
@<TRIPOS>BOND
     1    1    2 1
     2    1   26 1
     3    1   27 1
     4    1   28 1
     5    2    3 1
     6    3    8 ar
     7    3    4 ar
     8    4    5 ar
     9    4   29 1
    10    5    6 ar
    11    5   13 1
    12    6    7 ar
    13    6   30 1
    14    7    8 ar
    15    7   11 1
    16    8    9 1
    17    9   10 1
    18   10   31 1
    19   10   32 1
    20   10   33 1
    21   11   12 1
    22   12   34 1
    23   12   35 1
    24   12   36 1
    25   13   14 1
    26   13   37 1
    27   13   38 1
    28   14   15 1
    29   14   16 1
    30   14   47 1
    31   16   21 ar
    32   16   17 ar
    33   17   18 ar
    34   17   39 1
    35   18   19 ar
    36   18   25 1
    37   19   20 ar
    38   19   24 1
    39   20   21 ar
    40   20   40 1
    41   21   22 1
    42   22   23 1
    43   22   41 1
    44   22   42 1
    45   23   43 1
    46   23   44 1
    47   23   47 1
    48   24   45 1
    49   25   46 1
    50   47   48 1
    51   47   49 1
@<TRIPOS>MOLECULE
ZINC02017274
   49    51     0     0     0
SMALL
USER_CHARGES

@<TRIPOS>ATOM
      1 C1         -0.0173    1.4248    0.0099 C.3       1 <0>         0.0214
      2 O1          0.0021   -0.0041    0.0020 O.3       1 <0>        -0.2943
      3 C2         -1.2011   -0.6379    0.0101 C.ar      1 <0>         0.1641
      4 C3         -2.3748    0.1005    0.0195 C.ar      1 <0>        -0.2213
      5 C4         -3.5982   -0.5428    0.0277 C.ar      1 <0>        -0.0510
      6 C5         -3.6572   -1.9238    0.0266 C.ar      1 <0>        -0.2591
      7 C6         -2.4882   -2.6696    0.0172 C.ar      1 <0>         0.1629
      8 C7         -1.2561   -2.0266    0.0032 C.ar      1 <0>         0.0414
      9 O2         -0.1065   -2.7549   -0.0117 O.3       1 <0>        -0.3122
     10 C8          0.4536   -3.1089    1.2544 C.3       1 <0>         0.0344
     11 O3         -2.5472   -4.0282    0.0166 O.3       1 <0>        -0.2936
     12 C9         -3.8474   -4.6211    0.0259 C.3       1 <0>         0.0225
     13 C10        -4.8712    0.2637    0.0384 C.3       1 <0>        -0.1004
     14 C11        -5.3128    0.5387   -1.4005 C.3       1 <0>         0.0914
     15 H1         -4.4968    1.0179   -1.9414 H         1 <0>         0.1509
     16 C12        -6.5063    1.4574   -1.3866 C.ar      1 <0>        -0.1221
     17 C13        -6.5159    2.5154   -0.4889 C.ar      1 <0>        -0.1064
     18 C14        -7.5904    3.3854   -0.4443 C.ar      1 <0>         0.0985
     19 C15        -8.6675    3.1971   -1.3056 C.ar      1 <0>         0.1147
     20 C16        -8.6543    2.1400   -2.1981 C.ar      1 <0>        -0.1184
     21 C17        -7.5748    1.2705   -2.2380 C.ar      1 <0>        -0.0787
     22 C18        -7.6055    0.1278   -3.2210 C.3       1 <0>        -0.1065
     23 C19        -6.1995   -0.4496   -3.3880 C.3       1 <0>        -0.0038
     24 N1         -5.6468   -0.7298   -2.0543 N.4       1 <0>        -0.5061
     25 O4         -9.7275    4.0484   -1.2704 O.3       1 <0>        -0.4818
     26 O5         -7.5941    4.4208    0.4373 O.3       1 <0>        -0.4808
     27 H2          1.0053    1.8021    0.0021 H         1 <0>         0.1113
     28 H3         -0.5445    1.7859   -0.8732 H         1 <0>         0.0596
     29 H4         -0.5275    1.7763    0.9067 H         1 <0>         0.0614
     30 H5         -2.3329    1.1797    0.0207 H         1 <0>         0.1422
     31 H6         -4.6151   -2.4227    0.0334 H         1 <0>         0.1339
     32 H7          1.3650   -3.6864    1.0998 H         1 <0>         0.1009
     33 H8          0.6878   -2.2033    1.8141 H         1 <0>         0.0485
     34 H9         -0.2648   -3.7070    1.8151 H         1 <0>         0.0480
     35 H10        -3.7517   -5.7069    0.0243 H         1 <0>         0.1118
     36 H11        -4.3845   -4.3050    0.9202 H         1 <0>         0.0614
     37 H12        -4.3978   -4.3036   -0.8597 H         1 <0>         0.0529
     38 H13        -5.6506   -0.2944    0.5572 H         1 <0>         0.1054
     39 H14        -4.6980    1.2092    0.5523 H         1 <0>         0.1259
     40 H15        -5.6795    2.6606    0.1786 H         1 <0>         0.1465
     41 H16        -9.4887    1.9916   -2.8675 H         1 <0>         0.1471
     42 H17        -8.2750   -0.6494   -2.8524 H         1 <0>         0.1078
     43 H18        -7.9661    0.4882   -4.1845 H         1 <0>         0.1269
     44 H19        -6.2492   -1.3730   -3.9651 H         1 <0>         0.1435
     45 H20        -5.5659    0.2729   -3.9024 H         1 <0>         0.1367
     46 H21        -4.8139   -1.2920   -2.1458 H         1 <0>         0.4340
     47 H22        -9.6419    4.8079   -1.8628 H         1 <0>         0.4014
     48 H23        -7.2038    5.2346    0.0900 H         1 <0>         0.3994
     49 H24        -6.3309   -1.2246   -1.5018 H         1 <0>         0.4278
@<TRIPOS>BOND
     1    1    2 1
     2    1   27 1
     3    1   28 1
     4    1   29 1
     5    2    3 1
     6    3    8 ar
     7    3    4 ar
     8    4    5 ar
     9    4   30 1
    10    5    6 ar
    11    5   13 1
    12    6    7 ar
    13    6   31 1
    14    7    8 ar
    15    7   11 1
    16    8    9 1
    17    9   10 1
    18   10   32 1
    19   10   33 1
    20   10   34 1
    21   11   12 1
    22   12   35 1
    23   12   36 1
    24   12   37 1
    25   13   14 1
    26   13   38 1
    27   13   39 1
    28   14   15 1
    29   14   24 1
    30   14   16 1
    31   16   21 ar
    32   16   17 ar
    33   17   18 ar
    34   17   40 1
    35   18   19 ar
    36   18   26 1
    37   19   20 ar
    38   19   25 1
    39   20   21 ar
    40   20   41 1
    41   21   22 1
    42   22   23 1
    43   22   42 1
    44   22   43 1
    45   23   24 1
    46   23   44 1
    47   23   45 1
    48   24   46 1
    49   24   49 1
    50   25   47 1
    51   26   48 1
@<TRIPOS>MOLECULE
ZINC02017274
   48    50     0     0     0
SMALL
USER_CHARGES

@<TRIPOS>ATOM
      1 C1         -0.0173    1.4248    0.0099 C.3       1 <0>         0.0248
      2 O1          0.0021   -0.0041    0.0020 O.3       1 <0>        -0.3024
      3 C2         -1.2011   -0.6379    0.0101 C.ar      1 <0>         0.1516
      4 C3         -2.3748    0.1005    0.0195 C.ar      1 <0>        -0.2326
      5 C4         -3.5982   -0.5428    0.0277 C.ar      1 <0>        -0.0109
      6 C5         -3.6572   -1.9238    0.0266 C.ar      1 <0>        -0.2255
      7 C6         -2.4882   -2.6696    0.0172 C.ar      1 <0>         0.1521
      8 C7         -1.2561   -2.0266    0.0032 C.ar      1 <0>         0.0238
      9 O2         -0.1065   -2.7549   -0.0117 O.3       1 <0>        -0.3130
     10 C8          0.4536   -3.1089    1.2544 C.3       1 <0>         0.0352
     11 O3         -2.5472   -4.0282    0.0166 O.3       1 <0>        -0.3024
     12 C9         -3.8474   -4.6211    0.0259 C.3       1 <0>         0.0241
     13 C10        -4.8712    0.2637    0.0384 C.3       1 <0>        -0.0754
     14 C11        -5.3128    0.5387   -1.4005 C.3       1 <0>         0.1371
     15 H1         -4.4970    1.0179   -1.9418 H         1 <0>         0.0558
     16 C12        -6.5074    1.4565   -1.3872 C.ar      1 <0>        -0.0674
     17 C13        -6.5056    2.5267   -0.5035 C.ar      1 <0>        -0.1267
     18 C14        -7.5779    3.3990   -0.4581 C.ar      1 <0>         0.0784
     19 C15        -8.6649    3.2007   -1.3048 C.ar      1 <0>         0.0842
     20 C16        -8.6632    2.1315   -2.1824 C.ar      1 <0>        -0.1321
     21 C17        -7.5859    1.2583   -2.2226 C.ar      1 <0>        -0.0554
     22 C18        -7.6363    0.1018   -3.1881 C.3       1 <0>        -0.0777
     23 C19        -6.2355   -0.4796   -3.3804 C.3       1 <0>         0.0533
     24 N1         -5.6482   -0.7299   -2.0546 N.3       1 <0>        -0.6789
     25 O4         -9.7230    4.0543   -1.2698 O.3       1 <0>        -0.4876
     26 O5         -7.5707    4.4455    0.4104 O.3       1 <0>        -0.4868
     27 H2          1.0053    1.8021    0.0021 H         1 <0>         0.1035
     28 H3         -0.5445    1.7859   -0.8732 H         1 <0>         0.0571
     29 H4         -0.5275    1.7763    0.9067 H         1 <0>         0.0574
     30 H5         -2.3329    1.1797    0.0207 H         1 <0>         0.1337
     31 H6         -4.6151   -2.4227    0.0334 H         1 <0>         0.1421
     32 H7          1.3650   -3.6864    1.0998 H         1 <0>         0.0926
     33 H8          0.6878   -2.2033    1.8141 H         1 <0>         0.0436
     34 H9         -0.2648   -3.7070    1.8151 H         1 <0>         0.0442
     35 H10        -4.3845   -4.3050    0.9202 H         1 <0>         0.0578
     36 H11        -4.3978   -4.3036   -0.8597 H         1 <0>         0.0604
     37 H12        -3.7517   -5.7069    0.0243 H         1 <0>         0.1027
     38 H13        -5.6506   -0.2944    0.5572 H         1 <0>         0.0905
     39 H14        -4.6980    1.2092    0.5523 H         1 <0>         0.0844
     40 H15        -5.6613    2.6795    0.1525 H         1 <0>         0.1351
     41 H16        -9.5052    1.9758   -2.8406 H         1 <0>         0.1340
     42 H17        -8.2974   -0.6700   -2.7941 H         1 <0>         0.0880
     43 H18        -8.0190    0.4484   -4.1481 H         1 <0>         0.0801
     44 H19        -6.3004   -1.4157   -3.9349 H         1 <0>         0.0837
     45 H20        -5.6159    0.2311   -3.9273 H         1 <0>         0.0384
     46 H21        -9.6427    4.8053   -1.8736 H         1 <0>         0.3878
     47 H22        -7.1830    5.2541    0.0486 H         1 <0>         0.3869
     48 H23        -4.8370   -1.3257   -2.1257 H         1 <0>         0.3503
@<TRIPOS>BOND
     1    1    2 1
     2    1   27 1
     3    1   28 1
     4    1   29 1
     5    2    3 1
     6    3    8 ar
     7    3    4 ar
     8    4    5 ar
     9    4   30 1
    10    5    6 ar
    11    5   13 1
    12    6    7 ar
    13    6   31 1
    14    7    8 ar
    15    7   11 1
    16    8    9 1
    17    9   10 1
    18   10   32 1
    19   10   33 1
    20   10   34 1
    21   11   12 1
    22   12   35 1
    23   12   36 1
    24   12   37 1
    25   13   14 1
    26   13   38 1
    27   13   39 1
    28   14   15 1
    29   14   24 1
    30   14   16 1
    31   16   21 ar
    32   16   17 ar
    33   17   18 ar
    34   17   40 1
    35   18   19 ar
    36   18   26 1
    37   19   20 ar
    38   19   25 1
    39   20   21 ar
    40   20   41 1
    41   21   22 1
    42   22   23 1
    43   22   42 1
    44   22   43 1
    45   23   24 1
    46   23   44 1
    47   23   45 1
    48   24   48 1
    49   25   46 1
    50   26   47 1
@<TRIPOS>MOLECULE
ZINC53057273
   45    48     0     0     0
SMALL
USER_CHARGES

@<TRIPOS>ATOM
      1 C1          1.2158   -0.6795    0.0011 C.ar      1 <0>        -0.1904
      2 C2          2.4000    0.0311   -0.0073 C.ar      1 <0>        -0.0583
      3 C3          2.3781    1.4147   -0.0144 C.ar      1 <0>        -0.0952
      4 C4          1.1704    2.0902   -0.0131 C.ar      1 <0>        -0.0584
      5 C5         -0.0169    1.3848   -0.0051 C.ar      1 <0>        -0.1902
      6 C6          0.0021   -0.0041    0.0020 C.ar      1 <0>         0.2267
      7 N1         -1.1977   -0.7205    0.0101 N.pl3     1 <0>        -0.6279
      8 C7         -2.4897   -0.0279    0.1306 C.3       1 <0>         0.1251
      9 C8         -3.2909   -0.6853    1.2593 C.3       1 <0>         0.0400
     10 N2         -3.3815   -2.1308    1.0137 N.3       1 <0>        -0.5310
     11 C9         -2.0540   -2.7593    1.0363 C.3       1 <0>         0.0343
     12 C10        -1.2024   -2.1865   -0.1078 C.3       1 <0>         0.1251
     13 C11        -4.2846   -2.7730    1.9780 C.3       1 <0>         0.0961
     14 C12        -4.5457   -4.1947    1.5518 C.ar      1 <0>        -0.0703
     15 C13        -5.6065   -4.4779    0.7111 C.ar      1 <0>        -0.0842
     16 C14        -5.8518   -5.7800    0.3150 C.ar      1 <0>        -0.1214
     17 C15        -5.0315   -6.8022    0.7631 C.ar      1 <0>         0.0950
     18 C16        -3.9627   -6.5167    1.6111 C.ar      1 <0>         0.0773
     19 C17        -3.7200   -5.2104    1.9984 C.ar      1 <0>        -0.1023
     20 O1         -3.1656   -7.5288    2.0466 O.3       1 <0>        -0.3017
     21 C18        -3.7907   -8.7995    2.2449 C.3       1 <0>         0.0508
     22 C19        -4.6612   -9.1264    1.0582 C.2       1 <0>         0.4901
     23 O2         -4.8219  -10.2802    0.7203 O.2       1 <0>        -0.5072
     24 N3         -5.2619   -8.1291    0.3730 N.am      1 <0>        -0.6607
     25 Cl1         3.8686    2.3047   -0.0245 Cl        1 <0>        -0.0801
     26 H1          1.2334   -1.7594    0.0025 H         1 <0>         0.1309
     27 H2          3.3440   -0.4936   -0.0080 H         1 <0>         0.1315
     28 H3          1.1563    3.1701   -0.0179 H         1 <0>         0.1315
     29 H4         -0.9591    1.9125   -0.0037 H         1 <0>         0.1309
     30 H5         -2.3212    1.0231    0.3651 H         1 <0>         0.0878
     31 H6         -3.0396   -0.1133   -0.8066 H         1 <0>         0.0726
     32 H7         -2.7903   -0.5088    2.2113 H         1 <0>         0.0410
     33 H8         -4.2933   -0.2581    1.2904 H         1 <0>         0.0888
     34 H9         -1.5706   -2.5540    1.9914 H         1 <0>         0.0408
     35 H10        -2.1593   -3.8364    0.9056 H         1 <0>         0.0915
     36 H11        -1.6310   -2.4754   -1.0674 H         1 <0>         0.0726
     37 H12        -0.1825   -2.5633   -0.0308 H         1 <0>         0.0874
     38 H13        -3.8240   -2.7686    2.9658 H         1 <0>         0.0478
     39 H14        -5.2266   -2.2257    2.0139 H         1 <0>         0.0904
     40 H15        -6.2455   -3.6799    0.3631 H         1 <0>         0.1348
     41 H16        -6.6808   -5.9992   -0.3415 H         1 <0>         0.1352
     42 H17        -2.8896   -4.9851    2.6512 H         1 <0>         0.1366
     43 H18        -3.0250   -9.5673    2.3556 H         1 <0>         0.1479
     44 H19        -4.4032   -8.7660    3.1459 H         1 <0>         0.1016
     45 H20        -5.8439   -8.3279   -0.3771 H         1 <0>         0.4173
@<TRIPOS>BOND
     1    1    6 ar
     2    1    2 ar
     3    1   26 1
     4    2    3 ar
     5    2   27 1
     6    3    4 ar
     7    3   25 1
     8    4    5 ar
     9    4   28 1
    10    5    6 ar
    11    5   29 1
    12    6    7 1
    13    7   12 1
    14    7    8 1
    15    8    9 1
    16    8   30 1
    17    8   31 1
    18    9   10 1
    19    9   32 1
    20    9   33 1
    21   10   11 1
    22   10   13 1
    23   11   12 1
    24   11   34 1
    25   11   35 1
    26   12   36 1
    27   12   37 1
    28   13   14 1
    29   13   38 1
    30   13   39 1
    31   14   19 ar
    32   14   15 ar
    33   15   16 ar
    34   15   40 1
    35   16   17 ar
    36   16   41 1
    37   17   24 1
    38   17   18 ar
    39   18   19 ar
    40   18   20 1
    41   19   42 1
    42   20   21 1
    43   21   22 1
    44   21   43 1
    45   21   44 1
    46   22   23 2
    47   22   24 am
    48   24   45 1
@<TRIPOS>MOLECULE
ZINC00056583
   39    41     0     0     0
SMALL
USER_CHARGES
1-[(3,4-dihydroxyphenyl)methyl]-1,2,3,4-tetrahydroisoquinoline-6,7-diol
@<TRIPOS>ATOM
      1 C1         -1.2416    3.1328    0.0308 C.ar      1 <0>        -0.0950
      2 C2         -0.0572    3.8465    0.0234 C.ar      1 <0>        -0.1182
      3 C3          1.1551    3.1765    0.0081 C.ar      1 <0>         0.1003
      4 C4          1.1775    1.7847    0.0004 C.ar      1 <0>         0.0938
      5 C5         -0.0126    1.0758    0.0080 C.ar      1 <0>        -0.1517
      6 C6         -1.2194    1.7509    0.0173 C.ar      1 <0>        -0.1213
      7 C7         -2.5132    0.9781    0.0187 C.3       1 <0>        -0.0967
      8 C8         -2.9445    0.7082    1.4617 C.3       1 <0>         0.0925
      9 H1         -2.9995    1.6525    2.0033 H         1 <0>         0.1498
     10 C9         -4.3023    0.0556    1.4610 C.ar      1 <0>        -0.1207
     11 C10        -5.2663    0.5427    0.5895 C.ar      1 <0>        -0.1074
     12 C11        -6.5285   -0.0218    0.5552 C.ar      1 <0>         0.0986
     13 C12        -6.8320   -1.0850    1.4010 C.ar      1 <0>         0.1136
     14 C13        -5.8686   -1.5667    2.2667 C.ar      1 <0>        -0.1190
     15 C14        -4.6033   -0.9986    2.2960 C.ar      1 <0>        -0.0788
     16 C15        -3.5858   -1.5642    3.2537 C.3       1 <0>        -0.1063
     17 C16        -2.4344   -0.5751    3.4367 C.3       1 <0>        -0.0003
     18 O1         -8.0707   -1.6458    1.3762 O.3       1 <0>        -0.4815
     19 O2         -7.4688    0.4594   -0.3014 O.3       1 <0>        -0.4805
     20 O3          2.3652    1.1224   -0.0141 O.3       1 <0>        -0.4868
     21 O4          2.3208    3.8768    0.0003 O.3       1 <0>        -0.4852
     22 H2         -2.1861    3.6564    0.0427 H         1 <0>         0.1385
     23 H3         -0.0774    4.9263    0.0297 H         1 <0>         0.1442
     24 H4          0.0021   -0.0041    0.0020 H         1 <0>         0.1327
     25 H5         -3.2838    1.5588   -0.4882 H         1 <0>         0.1247
     26 H6         -2.3711    0.0307   -0.5013 H         1 <0>         0.1026
     27 H7         -5.0296    1.3680   -0.0656 H         1 <0>         0.1466
     28 H8         -6.1021   -2.3915    2.9236 H         1 <0>         0.1466
     29 H9         -3.1975   -2.5021    2.8567 H         1 <0>         0.1070
     30 H10        -4.0600   -1.7497    4.2175 H         1 <0>         0.1262
     31 H11        -1.6233   -1.0547    3.9845 H         1 <0>         0.1427
     32 H12        -2.7823    0.2985    3.9879 H         1 <0>         0.1355
     33 H13        -8.1587   -2.3775    0.7501 H         1 <0>         0.4006
     34 H14        -7.4691    0.0289   -1.1673 H         1 <0>         0.3988
     35 H15         2.7004    0.9353   -0.9016 H         1 <0>         0.3989
     36 H16         2.6491    4.0842   -0.8853 H         1 <0>         0.3996
     37 N1         -1.9526   -0.1644    2.1048 N.4       1 <0>        -0.5139
     38 H17        -1.0661    0.3438    2.2051 H         1 <0>         0.4381
     39 H18        -1.8053   -0.9982    1.5240 H         1 <0>         0.4312
@<TRIPOS>BOND
     1    1    6 ar
     2    1    2 ar
     3    1   22 1
     4    2    3 ar
     5    2   23 1
     6    3    4 ar
     7    3   21 1
     8    4    5 ar
     9    4   20 1
    10    5    6 ar
    11    5   24 1
    12    6    7 1
    13    7    8 1
    14    7   25 1
    15    7   26 1
    16    8    9 1
    17    8   10 1
    18    8   37 1
    19   10   15 ar
    20   10   11 ar
    21   11   12 ar
    22   11   27 1
    23   12   13 ar
    24   12   19 1
    25   13   14 ar
    26   13   18 1
    27   14   15 ar
    28   14   28 1
    29   15   16 1
    30   16   17 1
    31   16   29 1
    32   16   30 1
    33   17   31 1
    34   17   32 1
    35   17   37 1
    36   18   33 1
    37   19   34 1
    38   20   35 1
    39   21   36 1
    40   37   38 1
    41   37   39 1
@<TRIPOS>MOLECULE
ZINC00135449
   46    49     0     0     0
SMALL
USER_CHARGES

@<TRIPOS>ATOM
      1 C1          0.6605    1.5200   -0.0407 C.3       1 <0>        -0.0529
      2 N1          0.4452    0.0672   -0.0107 N.4       1 <0>        -0.3827
      3 C2          0.9258   -0.5225   -1.2604 C.3       1 <0>        -0.0046
      4 C3          0.5470   -1.9919   -1.3464 C.3       1 <0>        -0.1055
      5 C4          0.6791   -2.6890   -0.0217 C.ar      1 <0>        -0.0671
      6 C5          0.5061   -4.0675    0.0137 C.ar      1 <0>        -0.1258
      7 C6          0.6400   -4.7686    1.1984 C.ar      1 <0>         0.1276
      8 C7          0.9473   -4.0883    2.3713 C.ar      1 <0>         0.0910
      9 C8          1.1004   -2.7042    2.3419 C.ar      1 <0>        -0.0079
     10 C9          0.9725   -2.0051    1.1384 C.ar      1 <0>        -0.1226
     11 C10         1.1795   -0.5133    1.1232 C.3       1 <0>         0.0922
     12 H1          2.2423   -0.2967    1.0147 H         1 <0>         0.1492
     13 C11         0.6688    0.1232    2.4140 C.3       1 <0>        -0.0898
     14 C12         1.2332   -0.5808    3.6175 C.ar      1 <0>        -0.1044
     15 C13         1.4258   -1.9603    3.5820 C.ar      1 <0>        -0.0291
     16 C14         1.9205   -2.6263    4.6996 C.ar      1 <0>        -0.1738
     17 C15         2.2351   -1.9102    5.8416 C.ar      1 <0>         0.1123
     18 C16         2.0571   -0.5294    5.8675 C.ar      1 <0>         0.0968
     19 C17         1.5565    0.1304    4.7551 C.ar      1 <0>        -0.0977
     20 O1          2.3752    0.1742    6.9867 O.3       1 <0>        -0.4817
     21 O2          2.7174   -2.5547    6.9377 O.3       1 <0>        -0.2998
     22 C18         2.8742   -3.9717    6.8404 C.3       1 <0>         0.0220
     23 O3          1.0970   -4.7691    3.5386 O.3       1 <0>        -0.3245
     24 C19        -0.0915   -5.0608    4.2765 C.3       1 <0>         0.0301
     25 O4          0.4711   -6.1180    1.2160 O.3       1 <0>        -0.4846
     26 H2          1.7248    1.7273   -0.1524 H         1 <0>         0.1258
     27 H3          0.1163    1.9507   -0.8811 H         1 <0>         0.1296
     28 H4          0.3004    1.9600    0.8893 H         1 <0>         0.1281
     29 H5          0.4840    0.0114   -2.1018 H         1 <0>         0.1412
     30 H6          2.0107   -0.4286   -1.3071 H         1 <0>         0.1318
     31 H7         -0.4853   -2.0719   -1.6872 H         1 <0>         0.1081
     32 H8          1.1963   -2.4830   -2.0712 H         1 <0>         0.1263
     33 H9          0.2637   -4.5979   -0.8953 H         1 <0>         0.1485
     34 H10         0.9668    1.1714    2.4392 H         1 <0>         0.1075
     35 H11        -0.4191    0.0599    2.4390 H         1 <0>         0.0988
     36 H12         2.0580   -3.6973    4.6760 H         1 <0>         0.1703
     37 H13         1.4195    1.2014    4.7791 H         1 <0>         0.1450
     38 H14         3.2892    0.4894    7.0067 H         1 <0>         0.3955
     39 H15         1.9077   -4.4308    6.6323 H         1 <0>         0.0581
     40 H16         3.5688   -4.2059    6.0337 H         1 <0>         0.0599
     41 H17         3.2656   -4.3594    7.7809 H         1 <0>         0.1092
     42 H18         0.1751   -5.5253    5.2258 H         1 <0>         0.1030
     43 H19        -0.6381   -4.1368    4.4649 H         1 <0>         0.0509
     44 H20        -0.7180   -5.7427    3.7015 H         1 <0>         0.0624
     45 H21         1.2837   -6.6181    1.0587 H         1 <0>         0.4067
     46 H22        -0.5400   -0.1243    0.0937 H         1 <0>         0.4265
@<TRIPOS>BOND
     1    1    2 1
     2    1   26 1
     3    1   27 1
     4    1   28 1
     5    2   11 1
     6    2    3 1
     7    2   46 1
     8    3    4 1
     9    3   29 1
    10    3   30 1
    11    4    5 1
    12    4   31 1
    13    4   32 1
    14    5   10 ar
    15    5    6 ar
    16    6    7 ar
    17    6   33 1
    18    7    8 ar
    19    7   25 1
    20    8    9 ar
    21    8   23 1
    22    9   15 1
    23    9   10 ar
    24   10   11 1
    25   11   12 1
    26   11   13 1
    27   13   14 1
    28   13   34 1
    29   13   35 1
    30   14   19 ar
    31   14   15 ar
    32   15   16 ar
    33   16   17 ar
    34   16   36 1
    35   17   18 ar
    36   17   21 1
    37   18   19 ar
    38   18   20 1
    39   19   37 1
    40   20   38 1
    41   21   22 1
    42   22   39 1
    43   22   40 1
    44   22   41 1
    45   23   24 1
    46   24   42 1
    47   24   43 1
    48   24   44 1
    49   25   45 1
@<TRIPOS>MOLECULE
ZINC00135449
   45    48     0     0     0
SMALL
USER_CHARGES

@<TRIPOS>ATOM
      1 C1          0.6622    1.4955   -0.0548 C.3       1 <0>         0.0195
      2 N1          0.4475    0.0426   -0.0248 N.3       1 <0>        -0.5353
      3 C2          0.8370   -0.5716   -1.2953 C.3       1 <0>         0.0544
      4 C3          0.3847   -2.0210   -1.3556 C.3       1 <0>        -0.0781
      5 C4          0.5256   -2.7201   -0.0330 C.ar      1 <0>        -0.0485
      6 C5          0.2905   -4.0900    0.0085 C.ar      1 <0>        -0.1335
      7 C6          0.4252   -4.7974    1.1891 C.ar      1 <0>         0.0954
      8 C7          0.7956   -4.1336    2.3531 C.ar      1 <0>         0.0779
      9 C8          1.0122   -2.7581    2.3183 C.ar      1 <0>        -0.0371
     10 C9          0.8858   -2.0531    1.1177 C.ar      1 <0>        -0.0564
     11 C10         1.1698   -0.5738    1.0978 C.3       1 <0>         0.1318
     12 H1          2.2403   -0.4127    0.9711 H         1 <0>         0.0599
     13 C11         0.7159    0.0869    2.3976 C.3       1 <0>        -0.0693
     14 C12         1.2749   -0.6430    3.5887 C.ar      1 <0>        -0.0893
     15 C13         1.4023   -2.0299    3.5491 C.ar      1 <0>        -0.0191
     16 C14         1.8935   -2.7186    4.6547 C.ar      1 <0>        -0.1786
     17 C15         2.2681   -2.0181    5.7882 C.ar      1 <0>         0.0962
     18 C16         2.1536   -0.6307    5.8180 C.ar      1 <0>         0.0837
     19 C17         1.6575    0.0521    4.7176 C.ar      1 <0>        -0.1061
     20 O1          2.5293    0.0567    6.9295 O.3       1 <0>        -0.4856
     21 O2          2.7474   -2.6846    6.8724 O.3       1 <0>        -0.3067
     22 C18         2.8374   -4.1072    6.7718 C.3       1 <0>         0.0250
     23 O3          0.9448   -4.8215    3.5163 O.3       1 <0>        -0.3268
     24 C19        -0.2357   -5.0579    4.2861 C.3       1 <0>         0.0323
     25 O4          0.1957   -6.1378    1.2114 O.3       1 <0>        -0.4899
     26 H2          1.7263    1.7033   -0.1676 H         1 <0>         0.0293
     27 H3          0.1169    1.9261   -0.8947 H         1 <0>         0.0738
     28 H4          0.3028    1.9352    0.8756 H         1 <0>         0.0758
     29 H5          0.3799   -0.0188   -2.1159 H         1 <0>         0.0859
     30 H6          1.9216   -0.5299   -1.3961 H         1 <0>         0.0373
     31 H7         -0.6610   -2.0520   -1.6617 H         1 <0>         0.0871
     32 H8          0.9839   -2.5472   -2.0987 H         1 <0>         0.0843
     33 H9         -0.0014   -4.6082   -0.8929 H         1 <0>         0.1362
     34 H10         1.0621    1.1204    2.4150 H         1 <0>         0.0838
     35 H11        -0.3729    0.0728    2.4464 H         1 <0>         0.0916
     36 H12         1.9815   -3.7946    4.6282 H         1 <0>         0.1662
     37 H13         1.5708    1.1283    4.7441 H         1 <0>         0.1395
     38 H14         3.4569    0.3301    6.9280 H         1 <0>         0.3876
     39 H15         3.5006   -4.3721    5.9484 H         1 <0>         0.0568
     40 H16         3.2338   -4.5129    7.7026 H         1 <0>         0.1018
     41 H17         1.8462   -4.5218    6.5877 H         1 <0>         0.0554
     42 H18        -0.7334   -4.1096    4.4887 H         1 <0>         0.0480
     43 H19        -0.9086   -5.7095    3.7287 H         1 <0>         0.0564
     44 H20         0.0344   -5.5350    5.2282 H         1 <0>         0.0939
     45 H21         0.9800   -6.6741    1.0317 H         1 <0>         0.3936
@<TRIPOS>BOND
     1    1    2 1
     2    1   26 1
     3    1   27 1
     4    1   28 1
     5    2   11 1
     6    2    3 1
     7    3    4 1
     8    3   29 1
     9    3   30 1
    10    4    5 1
    11    4   31 1
    12    4   32 1
    13    5   10 ar
    14    5    6 ar
    15    6    7 ar
    16    6   33 1
    17    7    8 ar
    18    7   25 1
    19    8    9 ar
    20    8   23 1
    21    9   15 1
    22    9   10 ar
    23   10   11 1
    24   11   12 1
    25   11   13 1
    26   13   14 1
    27   13   34 1
    28   13   35 1
    29   14   19 ar
    30   14   15 ar
    31   15   16 ar
    32   16   17 ar
    33   16   36 1
    34   17   18 ar
    35   17   21 1
    36   18   19 ar
    37   18   20 1
    38   19   37 1
    39   20   38 1
    40   21   22 1
    41   22   39 1
    42   22   40 1
    43   22   41 1
    44   23   24 1
    45   24   42 1
    46   24   43 1
    47   24   44 1
    48   25   45 1
@<TRIPOS>MOLECULE
ZINC00020248
   46    48     0     0     0
SMALL
USER_CHARGES

@<TRIPOS>ATOM
      1 C1         -5.6600    1.3618    0.4597 C.3       1 <0>        -0.0474
      2 N1         -5.6471   -0.0878    0.2218 N.4       1 <0>        -0.3867
      3 C2         -6.3574   -0.3850   -1.0293 C.3       1 <0>        -0.0523
      4 C3         -4.2581   -0.5548    0.1191 C.3       1 <0>        -0.0083
      5 C4         -4.2405   -2.0797   -0.0038 C.3       1 <0>        -0.1741
      6 C5         -2.7938   -2.5661   -0.1108 C.3       1 <0>         0.1309
      7 N2         -2.7704   -4.0309   -0.1190 N.pl3     1 <0>        -0.5935
      8 C6         -2.7303   -4.6837   -1.3451 C.ar      1 <0>         0.1859
      9 C7         -1.8260   -4.1660   -2.2811 C.ar      1 <0>        -0.1574
     10 C8         -1.6797   -4.7476   -3.5192 C.ar      1 <0>        -0.0952
     11 C9         -2.4365   -5.8609   -3.8384 C.ar      1 <0>        -0.1332
     12 C10        -3.3330   -6.3646   -2.9249 C.ar      1 <0>        -0.0999
     13 C11        -3.5037   -5.7750   -1.6688 C.ar      1 <0>        -0.1089
     14 C12        -4.5743   -6.4166   -0.8216 C.3       1 <0>        -0.0721
     15 C13        -4.9918   -5.6033    0.3783 C.3       1 <0>        -0.0690
     16 C14        -3.8887   -5.4681    1.3836 C.ar      1 <0>        -0.0980
     17 C15        -2.7839   -4.6994    1.1019 C.ar      1 <0>         0.1741
     18 C16        -1.7322   -4.5882    1.9998 C.ar      1 <0>        -0.1187
     19 C17        -1.8086   -5.2524    3.2126 C.ar      1 <0>        -0.0223
     20 C18        -2.9248   -6.0132    3.5136 C.ar      1 <0>        -0.1131
     21 C19        -3.9754   -6.1256    2.6005 C.ar      1 <0>        -0.0889
     22 Cl1        -0.5058   -5.1313    4.3535 Cl        1 <0>        -0.0554
     23 H1         -6.6906    1.7083    0.5359 H         1 <0>         0.1247
     24 H2         -5.1330    1.5823    1.3879 H         1 <0>         0.1236
     25 H3         -5.1660    1.8703   -0.3683 H         1 <0>         0.1224
     26 H4         -5.8633    0.1235   -1.8572 H         1 <0>         0.1230
     27 H5         -6.3478   -1.4606   -1.2058 H         1 <0>         0.1233
     28 H6         -7.3880   -0.0385   -0.9531 H         1 <0>         0.1247
     29 H7         -3.7907   -0.1139   -0.7614 H         1 <0>         0.1315
     30 H8         -3.7074   -0.2558    1.0110 H         1 <0>         0.1322
     31 H9         -4.7079   -2.5206    0.8766 H         1 <0>         0.0896
     32 H10        -4.7912   -2.3787   -0.8957 H         1 <0>         0.0908
     33 H11        -2.3515   -2.1905   -1.0335 H         1 <0>         0.0902
     34 H12        -2.2229   -2.1984    0.7418 H         1 <0>         0.0815
     35 H13        -1.2357   -3.2979   -2.0274 H         1 <0>         0.1217
     36 H14        -0.9815   -4.3392   -4.2348 H         1 <0>         0.1273
     37 H15        -2.3238   -6.3333   -4.8030 H         1 <0>         0.1262
     38 H16        -3.9182   -7.2346   -3.1839 H         1 <0>         0.1241
     39 H17        -5.4518   -6.5884   -1.4450 H         1 <0>         0.0825
     40 H18        -4.2074   -7.3823   -0.4739 H         1 <0>         0.0763
     41 H19        -5.2905   -4.6094    0.0453 H         1 <0>         0.0673
     42 H20        -5.8457   -6.0866    0.8532 H         1 <0>         0.0790
     43 H21        -0.8653   -3.9919    1.7562 H         1 <0>         0.1372
     44 H22        -2.9858   -6.5230    4.4638 H         1 <0>         0.1382
     45 H23        -4.8449   -6.7215    2.8354 H         1 <0>         0.1390
     46 H24        -6.1044   -0.5585    0.9882 H         1 <0>         0.4269
@<TRIPOS>BOND
     1    1    2 1
     2    1   23 1
     3    1   24 1
     4    1   25 1
     5    2    3 1
     6    2    4 1
     7    2   46 1
     8    3   26 1
     9    3   27 1
    10    3   28 1
    11    4    5 1
    12    4   29 1
    13    4   30 1
    14    5    6 1
    15    5   31 1
    16    5   32 1
    17    6    7 1
    18    6   33 1
    19    6   34 1
    20    7   17 1
    21    7    8 1
    22    8   13 ar
    23    8    9 ar
    24    9   10 ar
    25    9   35 1
    26   10   11 ar
    27   10   36 1
    28   11   12 ar
    29   11   37 1
    30   12   13 ar
    31   12   38 1
    32   13   14 1
    33   14   15 1
    34   14   39 1
    35   14   40 1
    36   15   16 1
    37   15   41 1
    38   15   42 1
    39   16   21 ar
    40   16   17 ar
    41   17   18 ar
    42   18   19 ar
    43   18   43 1
    44   19   20 ar
    45   19   22 1
    46   20   21 ar
    47   20   44 1
    48   21   45 1
@<TRIPOS>MOLECULE
ZINC19796155
   42    45     0     0     0
SMALL
USER_CHARGES

@<TRIPOS>ATOM
      1 C1         -0.0670    1.4396   -0.3852 C.3       1 <0>         0.0243
      2 N1         -0.0229   -0.0169   -0.1987 N.3       1 <0>        -0.5428
      3 C2          0.3808   -0.6943   -1.4380 C.3       1 <0>         0.0399
      4 C3          0.2401   -2.2095   -1.2572 C.3       1 <0>         0.1263
      5 N2          0.9912   -2.6085   -0.0572 N.pl3     1 <0>        -0.5953
      6 C4          0.7394   -1.8803    1.1955 C.3       1 <0>         0.1122
      7 C5          0.8604   -0.3781    0.9181 C.3       1 <0>         0.0393
      8 C6          1.9051   -3.6365   -0.1053 C.2       1 <0>         0.5098
      9 N3          2.1670   -4.1290   -1.2643 N.2       1 <0>        -0.6041
     10 C7          3.0130   -5.1503   -1.5719 C.ar      1 <0>         0.1655
     11 C8          2.6280   -6.0848   -2.5372 C.ar      1 <0>        -0.1058
     12 C9          3.4872   -7.1047   -2.8991 C.ar      1 <0>        -0.0230
     13 C10         4.7348   -7.2069   -2.3106 C.ar      1 <0>        -0.1209
     14 C11         5.1212   -6.2977   -1.3402 C.ar      1 <0>        -0.1017
     15 C12         4.2618   -5.2835   -0.9546 C.ar      1 <0>         0.1117
     16 N4          4.6314   -4.4326    0.1003 N.pl3     1 <0>        -0.7261
     17 C13         3.8434   -4.4184    1.2519 C.ar      1 <0>         0.2140
     18 C14         2.4943   -4.0640    1.1729 C.ar      1 <0>        -0.1453
     19 C15         1.7072   -4.1133    2.3240 C.ar      1 <0>        -0.0723
     20 C16         2.2727   -4.4729    3.5311 C.ar      1 <0>        -0.1389
     21 C17         3.6189   -4.7825    3.6069 C.ar      1 <0>        -0.0765
     22 C18         4.3974   -4.7629    2.4751 C.ar      1 <0>        -0.1433
     23 Cl1         2.9987   -8.2627   -4.0966 Cl        1 <0>        -0.0679
     24 H1          0.9359    1.8090   -0.5992 H         1 <0>         0.0255
     25 H2         -0.7279    1.6794   -1.2181 H         1 <0>         0.0711
     26 H3         -0.4416    1.9111    0.5233 H         1 <0>         0.0709
     27 H4         -0.2581   -0.3649   -2.2574 H         1 <0>         0.0878
     28 H5          1.4186   -0.4499   -1.6647 H         1 <0>         0.0378
     29 H6         -0.8117   -2.4673   -1.1334 H         1 <0>         0.0720
     30 H7          0.6453   -2.7216   -2.1299 H         1 <0>         0.1060
     31 H8         -0.2645   -2.1065    1.5551 H         1 <0>         0.0792
     32 H9          1.4746   -2.1748    1.9444 H         1 <0>         0.0984
     33 H10         1.8915   -0.1381    0.6586 H         1 <0>         0.0379
     34 H11         0.5693    0.1807    1.8075 H         1 <0>         0.0892
     35 H12         1.6558   -6.0097   -3.0016 H         1 <0>         0.1375
     36 H13         5.4083   -7.9971   -2.6081 H         1 <0>         0.1357
     37 H14         6.0961   -6.3802   -0.8829 H         1 <0>         0.1326
     38 H15         5.4169   -3.8679    0.0299 H         1 <0>         0.4097
     39 H16         0.6563   -3.8699    2.2709 H         1 <0>         0.1344
     40 H17         1.6613   -4.5124    4.4205 H         1 <0>         0.1323
     41 H18         4.0571   -5.0467    4.5580 H         1 <0>         0.1317
     42 H19         5.4473   -5.0071    2.5424 H         1 <0>         0.1313
@<TRIPOS>BOND
     1    1    2 1
     2    1   24 1
     3    1   25 1
     4    1   26 1
     5    2    7 1
     6    2    3 1
     7    3    4 1
     8    3   27 1
     9    3   28 1
    10    4    5 1
    11    4   29 1
    12    4   30 1
    13    5    6 1
    14    5    8 1
    15    6    7 1
    16    6   31 1
    17    6   32 1
    18    7   33 1
    19    7   34 1
    20    8   18 1
    21    8    9 2
    22    9   10 1
    23   10   15 ar
    24   10   11 ar
    25   11   12 ar
    26   11   35 1
    27   12   13 ar
    28   12   23 1
    29   13   14 ar
    30   13   36 1
    31   14   15 ar
    32   14   37 1
    33   15   16 1
    34   16   17 1
    35   16   38 1
    36   17   22 ar
    37   17   18 ar
    38   18   19 ar
    39   19   20 ar
    40   19   39 1
    41   20   21 ar
    42   20   40 1
    43   21   22 ar
    44   21   41 1
    45   22   42 1
@<TRIPOS>MOLECULE
ZINC19796155
   44    47     0     0     0
SMALL
USER_CHARGES

@<TRIPOS>ATOM
      1 C1         -1.5703   -0.0018   -1.9302 C.3       1 <0>        -0.0497
      2 N1         -0.7527   -0.7171   -0.9414 N.4       1 <0>        -0.3854
      3 C2         -1.0498   -2.1535   -1.0104 C.3       1 <0>        -0.0252
      4 C3         -0.2839   -2.8861    0.0962 C.3       1 <0>         0.1048
      5 N2          1.1441   -2.5548   -0.0269 N.pl3     1 <0>        -0.7052
      6 C4          1.5202   -1.1363   -0.1296 C.3       1 <0>         0.1049
      7 C5          0.6692   -0.4862   -1.2256 C.3       1 <0>        -0.0251
      8 C6          2.0831   -3.5253   -0.0448 C.2       1 <0>         0.6309
      9 C7          2.6112   -3.9094    1.2074 C.ar      1 <0>        -0.2438
     10 C8          2.0495   -3.1929    2.2728 C.ar      1 <0>         0.0055
     11 C9          2.4602   -3.4528    3.5483 C.ar      1 <0>        -0.1817
     12 C10         3.4265   -4.4148    3.8208 C.ar      1 <0>         0.0489
     13 C11         4.0101   -5.1439    2.8276 C.ar      1 <0>        -0.2233
     14 C12         3.6302   -4.9235    1.4921 C.ar      1 <0>         0.3343
     15 N3          4.2865   -5.7106    0.6358 N.pl3     1 <0>        -0.6131
     16 C13         4.1767   -5.7728   -0.7271 C.ar      1 <0>         0.1589
     17 C14         5.0408   -6.7320   -1.2562 C.ar      1 <0>        -0.1157
     18 C15         5.0795   -6.9478   -2.6222 C.ar      1 <0>        -0.0495
     19 C16         4.2642   -6.2154   -3.4643 C.ar      1 <0>        -0.0338
     20 C17         3.4016   -5.2585   -2.9468 C.ar      1 <0>        -0.0846
     21 C18         3.3520   -5.0321   -1.5848 C.ar      1 <0>         0.0769
     22 N4          2.4115   -4.0290   -1.2719 N.pl3     1 <0>        -0.5773
     23 Cl1         4.3195   -6.4929   -5.1771 Cl        1 <0>        -0.0159
     24 H1         -1.3348   -0.3678   -2.9295 H         1 <0>         0.1246
     25 H2         -2.6262   -0.1724   -1.7203 H         1 <0>         0.1321
     26 H3         -1.3566    1.0656   -1.8745 H         1 <0>         0.1321
     27 H4         -2.1201   -2.3101   -0.8766 H         1 <0>         0.1569
     28 H5         -0.7442   -2.5415   -1.9820 H         1 <0>         0.1344
     29 H6         -0.6518   -2.5648    1.0707 H         1 <0>         0.1155
     30 H7         -0.4211   -3.9618   -0.0138 H         1 <0>         0.1302
     31 H8          1.3345   -0.6383    0.8220 H         1 <0>         0.1155
     32 H9          2.5758   -1.0551   -0.3891 H         1 <0>         0.1302
     33 H10         0.9228   -0.9247   -2.1907 H         1 <0>         0.1344
     34 H11         0.8655    0.5856   -1.2504 H         1 <0>         0.1569
     35 H12         1.2975   -2.4405    2.0860 H         1 <0>         0.1502
     36 H13         2.0243   -2.8976    4.3657 H         1 <0>         0.1496
     37 H14         3.7223   -4.5886    4.8448 H         1 <0>         0.1558
     38 H15         4.7590   -5.8851    3.0650 H         1 <0>         0.1623
     39 H16         5.6790   -7.3052   -0.6001 H         1 <0>         0.1677
     40 H17         5.7487   -7.6901   -3.0316 H         1 <0>         0.1653
     41 H18         2.7675   -4.6896   -3.6107 H         1 <0>         0.1565
     42 H19         1.9393   -3.6432   -2.0263 H         1 <0>         0.4255
     43 H20         4.9278   -6.3202    1.0333 H         1 <0>         0.4372
     44 H21        -0.9695   -0.3754   -0.0171 H         1 <0>         0.4310
@<TRIPOS>BOND
     1    1    2 1
     2    1   24 1
     3    1   25 1
     4    1   26 1
     5    2    7 1
     6    2    3 1
     7    2   44 1
     8    3    4 1
     9    3   27 1
    10    3   28 1
    11    4    5 1
    12    4   29 1
    13    4   30 1
    14    5    6 1
    15    5    8 1
    16    6    7 1
    17    6   31 1
    18    6   32 1
    19    7   33 1
    20    7   34 1
    21    8   22 1
    22    8    9 2
    23    9   14 ar
    24    9   10 ar
    25   10   11 ar
    26   10   35 1
    27   11   12 ar
    28   11   36 1
    29   12   13 ar
    30   12   37 1
    31   13   14 ar
    32   13   38 1
    33   14   15 2
    34   15   16 1
    35   15   43 1
    36   16   21 ar
    37   16   17 ar
    38   17   18 ar
    39   17   39 1
    40   18   19 ar
    41   18   40 1
    42   19   20 ar
    43   19   23 1
    44   20   21 ar
    45   20   41 1
    46   21   22 1
    47   22   42 1
@<TRIPOS>MOLECULE
ZINC19796155
   43    46     0     0     0
SMALL
USER_CHARGES

@<TRIPOS>ATOM
      1 C1         -0.0523    1.4387   -0.3863 C.3       1 <0>        -0.0469
      2 N1         -0.0147   -0.0168   -0.1908 N.4       1 <0>        -0.3852
      3 C2          0.4863   -0.6601   -1.4120 C.3       1 <0>        -0.0213
      4 C3          0.4181   -2.1823   -1.2510 C.3       1 <0>         0.1002
      5 N2          1.1441   -2.5548   -0.0269 N.pl3     1 <0>        -0.6180
      6 C4          0.8178   -1.8405    1.2170 C.3       1 <0>         0.0860
      7 C5          0.8671   -0.3344    0.9395 C.3       1 <0>        -0.0221
      8 C6          2.1017   -3.5432   -0.0451 C.2       1 <0>         0.5019
      9 N3          2.4234   -4.0210   -1.1951 N.2       1 <0>        -0.5760
     10 C7          3.3217   -5.0050   -1.4750 C.ar      1 <0>         0.1390
     11 C8          3.0096   -5.9522   -2.4541 C.ar      1 <0>        -0.0932
     12 C9          3.9229   -6.9340   -2.7877 C.ar      1 <0>        -0.0267
     13 C10         5.1529   -6.9852   -2.1572 C.ar      1 <0>        -0.1032
     14 C11         5.4673   -6.0631   -1.1730 C.ar      1 <0>        -0.1031
     15 C12         4.5533   -5.0871   -0.8155 C.ar      1 <0>         0.1235
     16 N4          4.8505   -4.2243    0.2524 N.pl3     1 <0>        -0.7273
     17 C13         4.0239   -4.2464    1.3765 C.ar      1 <0>         0.2173
     18 C14         2.6645   -3.9489    1.2520 C.ar      1 <0>        -0.1537
     19 C15         1.8414   -4.0345    2.3754 C.ar      1 <0>        -0.0841
     20 C16         2.3802   -4.3733    3.6007 C.ar      1 <0>        -0.1334
     21 C17         3.7349   -4.6261    3.7220 C.ar      1 <0>        -0.0692
     22 C18         4.5500   -4.5705    2.6174 C.ar      1 <0>        -0.1369
     23 Cl1         3.5248   -8.1083   -4.0027 Cl        1 <0>        -0.0551
     24 H1          0.9534    1.8033   -0.5956 H         1 <0>         0.1211
     25 H2         -0.7066    1.6758   -1.2253 H         1 <0>         0.1256
     26 H3         -0.4316    1.9169    0.5167 H         1 <0>         0.1252
     27 H4         -0.1269   -0.3565   -2.2605 H         1 <0>         0.1425
     28 H5          1.5196   -0.3587   -1.5839 H         1 <0>         0.1315
     29 H6         -0.6226   -2.4957   -1.1694 H         1 <0>         0.0898
     30 H7          0.8819   -2.6629   -2.1125 H         1 <0>         0.1431
     31 H8         -0.1827   -2.1194    1.5479 H         1 <0>         0.0960
     32 H9          1.5457   -2.0950    1.9873 H         1 <0>         0.1385
     33 H10         1.8889   -0.0428    0.6965 H         1 <0>         0.1320
     34 H11         0.5345    0.2092    1.8238 H         1 <0>         0.1439
     35 H12         2.0515   -5.9169   -2.9512 H         1 <0>         0.1396
     36 H13         5.8689   -7.7454   -2.4325 H         1 <0>         0.1422
     37 H14         6.4287   -6.1057   -0.6827 H         1 <0>         0.1382
     38 H15         5.6134   -3.6267    0.2096 H         1 <0>         0.4129
     39 H16         0.7836   -3.8354    2.2868 H         1 <0>         0.1314
     40 H17         1.7411   -4.4409    4.4686 H         1 <0>         0.1357
     41 H18         4.1512   -4.8742    4.6872 H         1 <0>         0.1370
     42 H19         5.6063   -4.7705    2.7202 H         1 <0>         0.1363
     43 H20        -0.9456   -0.3526    0.0057 H         1 <0>         0.4250
@<TRIPOS>BOND
     1    1    2 1
     2    1   24 1
     3    1   25 1
     4    1   26 1
     5    2    7 1
     6    2    3 1
     7    2   43 1
     8    3    4 1
     9    3   27 1
    10    3   28 1
    11    4    5 1
    12    4   29 1
    13    4   30 1
    14    5    6 1
    15    5    8 1
    16    6    7 1
    17    6   31 1
    18    6   32 1
    19    7   33 1
    20    7   34 1
    21    8   18 1
    22    8    9 2
    23    9   10 1
    24   10   15 ar
    25   10   11 ar
    26   11   12 ar
    27   11   35 1
    28   12   13 ar
    29   12   23 1
    30   13   14 ar
    31   13   36 1
    32   14   15 ar
    33   14   37 1
    34   15   16 1
    35   16   17 1
    36   16   38 1
    37   17   22 ar
    38   17   18 ar
    39   18   19 ar
    40   19   20 ar
    41   19   39 1
    42   20   21 ar
    43   20   40 1
    44   21   22 ar
    45   21   41 1
    46   22   42 1
@<TRIPOS>MOLECULE
ZINC01530741
   42    44     0     0     0
SMALL
USER_CHARGES

@<TRIPOS>ATOM
      1 C1         -0.0178    1.4648    0.0101 C.3       1 <0>        -0.0473
      2 N1          0.0021   -0.0041    0.0020 N.4       1 <0>        -0.5104
      3 C2         -1.3761   -0.5125    0.0124 C.3       1 <0>        -0.0075
      4 C3         -1.3553   -2.0424    0.0040 C.3       1 <0>        -0.1205
      5 C4         -2.7691   -2.5640    0.0147 C.2       1 <0>        -0.1701
      6 C5         -3.1759   -3.4141   -0.9354 C.2       1 <0>         0.0084
      7 C6         -2.2617   -3.8737   -2.0162 C.ar      1 <0>        -0.0603
      8 C7         -1.0502   -4.4584   -1.6510 C.ar      1 <0>        -0.1120
      9 C8         -0.1817   -4.9254   -2.6144 C.ar      1 <0>        -0.1225
     10 C9         -0.5309   -4.8091   -3.9481 C.ar      1 <0>        -0.1072
     11 C10        -1.7216   -4.2226   -4.3099 C.ar      1 <0>        -0.1263
     12 C11        -2.6129   -3.7258   -3.3561 C.ar      1 <0>        -0.0535
     13 C12        -3.8344   -3.0498   -3.9297 C.3       1 <0>        -0.0765
     14 C13        -4.7567   -2.4533   -2.8869 C.3       1 <0>        -0.0806
     15 C14        -5.3648   -3.4987   -1.9877 C.ar      1 <0>        -0.0737
     16 C15        -4.5615   -3.9515   -0.9605 C.ar      1 <0>        -0.0697
     17 C16        -5.0352   -4.8627   -0.0270 C.ar      1 <0>        -0.0955
     18 C17        -6.3272   -5.3414   -0.1696 C.ar      1 <0>        -0.1191
     19 C18        -7.1195   -4.9199   -1.2225 C.ar      1 <0>        -0.1080
     20 C19        -6.6408   -3.9814   -2.1491 C.ar      1 <0>        -0.1083
     21 H1          1.0047    1.8421    0.0024 H         1 <0>         0.1266
     22 H2         -0.5450    1.8259   -0.8730 H         1 <0>         0.1232
     23 H3         -0.5280    1.8163    0.9069 H         1 <0>         0.1239
     24 H4          0.4744   -0.3295   -0.8281 H         1 <0>         0.4301
     25 H5         -1.8863   -0.1610    0.9092 H         1 <0>         0.1332
     26 H6         -1.9033   -0.1515   -0.8706 H         1 <0>         0.1314
     27 H7         -0.8451   -2.3939   -0.8928 H         1 <0>         0.0991
     28 H8         -0.8281   -2.4035    0.8871 H         1 <0>         0.0962
     29 H9         -3.4541   -2.2517    0.7892 H         1 <0>         0.1310
     30 H10        -0.7900   -4.5458   -0.6065 H         1 <0>         0.1235
     31 H11         0.7582   -5.3762   -2.3319 H         1 <0>         0.1290
     32 H12         0.1367   -5.1814   -4.7112 H         1 <0>         0.1265
     33 H13        -1.9733   -4.1443   -5.3573 H         1 <0>         0.1247
     34 H14        -3.5084   -2.2546   -4.6003 H         1 <0>         0.0855
     35 H15        -4.3952   -3.7815   -4.5113 H         1 <0>         0.0834
     36 H16        -4.1905   -1.7497   -2.2766 H         1 <0>         0.0703
     37 H17        -5.5577   -1.9136   -3.3920 H         1 <0>         0.0793
     38 H18        -4.4114   -5.1904    0.7915 H         1 <0>         0.1267
     39 H19        -6.7188   -6.0491    0.5460 H         1 <0>         0.1278
     40 H20        -8.1181   -5.3161   -1.3327 H         1 <0>         0.1275
     41 H21        -7.2557   -3.6486   -2.9723 H         1 <0>         0.1315
     42 H22         0.4901   -0.3383    0.8195 H         1 <0>         0.4302
@<TRIPOS>BOND
     1    1    2 1
     2    1   21 1
     3    1   22 1
     4    1   23 1
     5    2    3 1
     6    2   24 1
     7    2   42 1
     8    3    4 1
     9    3   25 1
    10    3   26 1
    11    4    5 1
    12    4   27 1
    13    4   28 1
    14    5    6 2
    15    5   29 1
    16    6   16 1
    17    6    7 1
    18    7   12 ar
    19    7    8 ar
    20    8    9 ar
    21    8   30 1
    22    9   10 ar
    23    9   31 1
    24   10   11 ar
    25   10   32 1
    26   11   12 ar
    27   11   33 1
    28   12   13 1
    29   13   14 1
    30   13   34 1
    31   13   35 1
    32   14   15 1
    33   14   36 1
    34   14   37 1
    35   15   20 ar
    36   15   16 ar
    37   16   17 ar
    38   17   18 ar
    39   17   38 1
    40   18   19 ar
    41   18   39 1
    42   19   20 ar
    43   19   40 1
    44   20   41 1
@<TRIPOS>MOLECULE
ZINC36237978
   56    58     0     0     0
SMALL
USER_CHARGES

@<TRIPOS>ATOM
      1 C1         -0.0167    1.3781    0.0096 C.ar      1 <0>        -0.1127
      2 C2          1.1709    2.0855    0.0021 C.ar      1 <0>        -0.1122
      3 C3          2.3773    1.4107   -0.0130 C.ar      1 <0>        -0.1158
      4 C4          2.3960    0.0285   -0.0201 C.ar      1 <0>        -0.1005
      5 C5          1.2084   -0.6789   -0.0117 C.ar      1 <0>        -0.1226
      6 C6          0.0021   -0.0041    0.0020 C.ar      1 <0>        -0.1152
      7 C7          3.7112   -0.7071   -0.0376 C.3       1 <0>        -0.0739
      8 C8          4.1714   -0.9633    1.3989 C.3       1 <0>        -0.0947
      9 C9          3.1925   -1.9187    2.0876 C.3       1 <0>        -0.1475
     10 C10         3.7009   -2.2331    3.4962 C.3       1 <0>        -0.0059
     11 N1          5.0245   -2.8622    3.4135 N.4       1 <0>        -0.3831
     12 C11         5.9852   -1.9248    2.8194 C.3       1 <0>        -0.0115
     13 C12         5.5647   -1.5986    1.3847 C.3       1 <0>        -0.1441
     14 C13         5.4741   -3.2326    4.7620 C.3       1 <0>        -0.0051
     15 C14         6.7948   -3.9992    4.6667 C.3       1 <0>        -0.1845
     16 C15         7.2630   -4.3850    6.0713 C.3       1 <0>        -0.0049
     17 N2          8.5311   -5.1210    5.9798 N.4       1 <0>        -0.3831
     18 C16         8.3096   -6.3884    5.2733 C.3       1 <0>        -0.0128
     19 C17         9.6418   -7.1218    5.1038 C.3       1 <0>        -0.1471
     20 C18        10.2426   -7.4032    6.4841 C.3       1 <0>        -0.1423
     21 C19        10.4001   -6.0810    7.2405 C.3       1 <0>        -0.1478
     22 C20         9.0398   -5.3862    7.3308 C.3       1 <0>        -0.0070
     23 H1         -0.9591    1.9053    0.0259 H         1 <0>         0.1275
     24 H2          1.1563    3.1654    0.0076 H         1 <0>         0.1271
     25 H3          3.3051    1.9634   -0.0196 H         1 <0>         0.1214
     26 H4          1.2231   -1.7588   -0.0176 H         1 <0>         0.1184
     27 H5         -0.9258   -0.5567    0.0082 H         1 <0>         0.1259
     28 H6          3.5884   -1.6586   -0.5549 H         1 <0>         0.0785
     29 H7          4.4573   -0.1052   -0.5563 H         1 <0>         0.0841
     30 H8          4.2064   -0.0201    1.9441 H         1 <0>         0.0926
     31 H9          2.2104   -1.4501    2.1512 H         1 <0>         0.1213
     32 H10         3.1195   -2.8418    1.5125 H         1 <0>         0.0905
     33 H11         3.7733   -1.3095    4.0704 H         1 <0>         0.1322
     34 H12         3.0062   -2.9130    3.9894 H         1 <0>         0.1338
     35 H13         6.0089   -1.0078    3.4080 H         1 <0>         0.1329
     36 H14         6.9769   -2.3771    2.8129 H         1 <0>         0.1262
     37 H15         5.5409   -2.5150    0.7950 H         1 <0>         0.0909
     38 H16         6.2783   -0.9011    0.9460 H         1 <0>         0.1169
     39 H17         5.6194   -2.3310    5.3571 H         1 <0>         0.1406
     40 H18         4.7214   -3.8631    5.2355 H         1 <0>         0.1417
     41 H19         6.6495   -4.9008    4.0717 H         1 <0>         0.1105
     42 H20         7.5474   -3.3687    4.1932 H         1 <0>         0.1106
     43 H21         7.4083   -3.4834    6.6663 H         1 <0>         0.1418
     44 H22         6.5104   -5.0155    6.5448 H         1 <0>         0.1405
     45 H23         7.6239   -7.0099    5.8492 H         1 <0>         0.1326
     46 H24         7.8790   -6.1867    4.2925 H         1 <0>         0.1256
     47 H25         9.4750   -8.0634    4.5806 H         1 <0>         0.1158
     48 H26        10.3282   -6.5013    4.5277 H         1 <0>         0.0889
     49 H27         9.5804   -8.0655    7.0417 H         1 <0>         0.0843
     50 H28        11.2183   -7.8749    6.3676 H         1 <0>         0.0992
     51 H29        10.7753   -6.2786    8.2447 H         1 <0>         0.1179
     52 H30        11.1022   -5.4388    6.7088 H         1 <0>         0.0895
     53 H31         9.1483   -4.4445    7.8690 H         1 <0>         0.1336
     54 H32         8.3385   -6.0290    7.8629 H         1 <0>         0.1323
     55 H33         4.9667   -3.6909    2.8409 H         1 <0>         0.4241
     56 H34         9.2039   -4.5676    5.4707 H         1 <0>         0.4243
@<TRIPOS>BOND
     1    1    6 ar
     2    1    2 ar
     3    1   23 1
     4    2    3 ar
     5    2   24 1
     6    3    4 ar
     7    3   25 1
     8    4    5 ar
     9    4    7 1
    10    5    6 ar
    11    5   26 1
    12    6   27 1
    13    7    8 1
    14    7   28 1
    15    7   29 1
    16    8   13 1
    17    8    9 1
    18    8   30 1
    19    9   10 1
    20    9   31 1
    21    9   32 1
    22   10   11 1
    23   10   33 1
    24   10   34 1
    25   11   12 1
    26   11   14 1
    27   11   55 1
    28   12   13 1
    29   12   35 1
    30   12   36 1
    31   13   37 1
    32   13   38 1
    33   14   15 1
    34   14   39 1
    35   14   40 1
    36   15   16 1
    37   15   41 1
    38   15   42 1
    39   16   17 1
    40   16   43 1
    41   16   44 1
    42   17   22 1
    43   17   18 1
    44   17   56 1
    45   18   19 1
    46   18   45 1
    47   18   46 1
    48   19   20 1
    49   19   47 1
    50   19   48 1
    51   20   21 1
    52   20   49 1
    53   20   50 1
    54   21   22 1
    55   21   51 1
    56   21   52 1
    57   22   53 1
    58   22   54 1
@<TRIPOS>MOLECULE
ZINC36237978
   55    57     0     0     0
SMALL
USER_CHARGES

@<TRIPOS>ATOM
      1 C1         -0.0167    1.3781    0.0096 C.ar      1 <0>        -0.1162
      2 C2          1.1709    2.0855    0.0021 C.ar      1 <0>        -0.1137
      3 C3          2.3773    1.4107   -0.0130 C.ar      1 <0>        -0.1160
      4 C4          2.3960    0.0285   -0.0201 C.ar      1 <0>        -0.0950
      5 C5          1.2084   -0.6789   -0.0117 C.ar      1 <0>        -0.1215
      6 C6          0.0021   -0.0041    0.0020 C.ar      1 <0>        -0.1162
      7 C7          3.7112   -0.7071   -0.0376 C.3       1 <0>        -0.0746
      8 C8          4.1714   -0.9633    1.3989 C.3       1 <0>        -0.0942
      9 C9          3.1925   -1.9187    2.0876 C.3       1 <0>        -0.1457
     10 C10         3.7009   -2.2331    3.4962 C.3       1 <0>        -0.0055
     11 N1          5.0245   -2.8622    3.4135 N.4       1 <0>        -0.3817
     12 C11         5.9852   -1.9248    2.8194 C.3       1 <0>        -0.0107
     13 C12         5.5647   -1.5986    1.3847 C.3       1 <0>        -0.1424
     14 C13         5.4741   -3.2326    4.7620 C.3       1 <0>        -0.0087
     15 C14         6.7948   -3.9992    4.6667 C.3       1 <0>        -0.1479
     16 C15         7.2630   -4.3850    6.0713 C.3       1 <0>         0.0570
     17 N2          8.5311   -5.1210    5.9798 N.3       1 <0>        -0.5378
     18 C16         8.3436   -6.4100    5.3018 C.3       1 <0>         0.0513
     19 C17         9.7032   -7.0816    5.0951 C.3       1 <0>        -0.1191
     20 C18        10.3751   -7.2918    6.4548 C.3       1 <0>        -0.1261
     21 C19        10.5147   -5.9402    7.1607 C.3       1 <0>        -0.1193
     22 C20         9.1316   -5.3017    7.3076 C.3       1 <0>         0.0560
     23 H1         -0.9591    1.9053    0.0259 H         1 <0>         0.1253
     24 H2          1.1563    3.1654    0.0076 H         1 <0>         0.1254
     25 H3          3.3051    1.9634   -0.0196 H         1 <0>         0.1216
     26 H4          1.2231   -1.7588   -0.0176 H         1 <0>         0.1193
     27 H5         -0.9258   -0.5567    0.0082 H         1 <0>         0.1244
     28 H6          3.5884   -1.6586   -0.5549 H         1 <0>         0.0782
     29 H7          4.4573   -0.1052   -0.5563 H         1 <0>         0.0832
     30 H8          4.2064   -0.0201    1.9441 H         1 <0>         0.0907
     31 H9          2.2104   -1.4501    2.1512 H         1 <0>         0.1154
     32 H10         3.1195   -2.8418    1.5125 H         1 <0>         0.0883
     33 H11         3.7733   -1.3095    4.0704 H         1 <0>         0.1281
     34 H12         3.0062   -2.9130    3.9894 H         1 <0>         0.1295
     35 H13         6.0089   -1.0078    3.4080 H         1 <0>         0.1285
     36 H14         6.9769   -2.3771    2.8129 H         1 <0>         0.1333
     37 H15         5.5409   -2.5150    0.7950 H         1 <0>         0.0890
     38 H16         6.2783   -0.9011    0.9460 H         1 <0>         0.1132
     39 H17         5.6194   -2.3310    5.3571 H         1 <0>         0.1305
     40 H18         4.7214   -3.8631    5.2355 H         1 <0>         0.1296
     41 H19         6.6495   -4.9008    4.0717 H         1 <0>         0.0866
     42 H20         7.5474   -3.3687    4.1932 H         1 <0>         0.0968
     43 H21         7.4083   -3.4834    6.6663 H         1 <0>         0.0849
     44 H22         6.5104   -5.0155    6.5448 H         1 <0>         0.0435
     45 H23         7.7101   -7.0530    5.9128 H         1 <0>         0.0366
     46 H24         7.8688   -6.2460    4.3345 H         1 <0>         0.0717
     47 H25         9.5623   -8.0454    4.6059 H         1 <0>         0.0700
     48 H26        10.3324   -6.4454    4.4726 H         1 <0>         0.0721
     49 H27         9.7651   -7.9593    7.0633 H         1 <0>         0.0604
     50 H28        11.3623   -7.7304    6.3093 H         1 <0>         0.0697
     51 H29        10.9536   -6.0886    8.1473 H         1 <0>         0.0723
     52 H30        11.1567   -5.2861    6.5708 H         1 <0>         0.0729
     53 H31         9.2291   -4.3327    7.7971 H         1 <0>         0.0779
     54 H32         8.4944   -5.9499    7.9092 H         1 <0>         0.0376
     55 H33         4.9667   -3.6909    2.8409 H         1 <0>         0.4215
@<TRIPOS>BOND
     1    1    6 ar
     2    1    2 ar
     3    1   23 1
     4    2    3 ar
     5    2   24 1
     6    3    4 ar
     7    3   25 1
     8    4    5 ar
     9    4    7 1
    10    5    6 ar
    11    5   26 1
    12    6   27 1
    13    7    8 1
    14    7   28 1
    15    7   29 1
    16    8   13 1
    17    8    9 1
    18    8   30 1
    19    9   10 1
    20    9   31 1
    21    9   32 1
    22   10   11 1
    23   10   33 1
    24   10   34 1
    25   11   12 1
    26   11   14 1
    27   11   55 1
    28   12   13 1
    29   12   35 1
    30   12   36 1
    31   13   37 1
    32   13   38 1
    33   14   15 1
    34   14   39 1
    35   14   40 1
    36   15   16 1
    37   15   41 1
    38   15   42 1
    39   16   17 1
    40   16   43 1
    41   16   44 1
    42   17   22 1
    43   17   18 1
    44   18   19 1
    45   18   45 1
    46   18   46 1
    47   19   20 1
    48   19   47 1
    49   19   48 1
    50   20   21 1
    51   20   49 1
    52   20   50 1
    53   21   22 1
    54   21   51 1
    55   21   52 1
    56   22   53 1
    57   22   54 1
@<TRIPOS>MOLECULE
ZINC36237978
   55    57     0     0     0
SMALL
USER_CHARGES

@<TRIPOS>ATOM
      1 C1         -0.0167    1.3781    0.0096 C.ar      1 <0>        -0.1227
      2 C2          1.1709    2.0855    0.0021 C.ar      1 <0>        -0.1168
      3 C3          2.3773    1.4107   -0.0130 C.ar      1 <0>        -0.1192
      4 C4          2.3960    0.0285   -0.0201 C.ar      1 <0>        -0.0835
      5 C5          1.2084   -0.6789   -0.0117 C.ar      1 <0>        -0.1178
      6 C6          0.0021   -0.0041    0.0020 C.ar      1 <0>        -0.1179
      7 C7          3.7112   -0.7071   -0.0376 C.3       1 <0>        -0.0760
      8 C8          4.1714   -0.9633    1.3989 C.3       1 <0>        -0.0823
      9 C9          3.1914   -1.9170    2.0878 C.3       1 <0>        -0.1140
     10 C10         3.6893   -2.2174    3.5034 C.3       1 <0>         0.0568
     11 N1          5.0248   -2.8243    3.4353 N.3       1 <0>        -0.5365
     12 C11         5.9937   -1.9081    2.8203 C.3       1 <0>         0.0522
     13 C12         5.5645   -1.5985    1.3844 C.3       1 <0>        -0.1137
     14 C13         5.4767   -3.2528    4.7658 C.3       1 <0>         0.0570
     15 C14         6.7456   -4.0962    4.6263 C.3       1 <0>        -0.1479
     16 C15         7.2163   -4.5425    6.0120 C.3       1 <0>        -0.0087
     17 N2          8.4346   -5.3523    5.8780 N.4       1 <0>        -0.3819
     18 C16         8.1219   -6.5870    5.1485 C.3       1 <0>        -0.0119
     19 C17         9.4030   -7.3963    4.9353 C.3       1 <0>        -0.1458
     20 C18        10.0119   -7.7459    6.2962 C.3       1 <0>        -0.1396
     21 C19        10.2651   -6.4538    7.0782 C.3       1 <0>        -0.1463
     22 C20         8.9521   -5.6794    7.2121 C.3       1 <0>        -0.0066
     23 H1         -0.9591    1.9053    0.0259 H         1 <0>         0.1223
     24 H2          1.1563    3.1654    0.0076 H         1 <0>         0.1222
     25 H3          3.3051    1.9634   -0.0196 H         1 <0>         0.1193
     26 H4          1.2231   -1.7588   -0.0176 H         1 <0>         0.1200
     27 H5         -0.9258   -0.5567    0.0082 H         1 <0>         0.1222
     28 H6          3.5884   -1.6586   -0.5549 H         1 <0>         0.0739
     29 H7          4.4573   -0.1052   -0.5563 H         1 <0>         0.0734
     30 H8          4.2068   -0.0199    1.9438 H         1 <0>         0.0693
     31 H9          2.2068   -1.4523    2.1394 H         1 <0>         0.0760
     32 H10         3.1270   -2.8452    1.5200 H         1 <0>         0.0726
     33 H11         3.7403   -1.2906    4.0748 H         1 <0>         0.0369
     34 H12         3.0013   -2.9075    3.9916 H         1 <0>         0.0774
     35 H13         6.0338   -0.9827    3.3949 H         1 <0>         0.0366
     36 H14         6.9793   -2.3735    2.8124 H         1 <0>         0.0720
     37 H15         5.5375   -2.5217    0.8055 H         1 <0>         0.0737
     38 H16         6.2754   -0.9061    0.9333 H         1 <0>         0.0707
     39 H17         5.6887   -2.3759    5.3774 H         1 <0>         0.0434
     40 H18         4.6960   -3.8469    5.2408 H         1 <0>         0.0847
     41 H19         6.5336   -4.9731    4.0146 H         1 <0>         0.0968
     42 H20         7.5263   -3.5021    4.1513 H         1 <0>         0.0865
     43 H21         7.4283   -3.6656    6.6236 H         1 <0>         0.1295
     44 H22         6.4356   -5.1366    6.4869 H         1 <0>         0.1303
     45 H23         7.4106   -7.1787    5.7247 H         1 <0>         0.1282
     46 H24         7.6857   -6.3366    4.1815 H         1 <0>         0.1325
     47 H25         9.1684   -8.3135    4.3951 H         1 <0>         0.1119
     48 H26        10.1150   -6.8056    4.3589 H         1 <0>         0.0870
     49 H27         9.3211   -8.3793    6.8527 H         1 <0>         0.0817
     50 H28        10.9542   -8.2735    6.1492 H         1 <0>         0.0940
     51 H29        10.6467   -6.6972    8.0698 H         1 <0>         0.1119
     52 H30        10.9950   -5.8435    6.5464 H         1 <0>         0.0872
     53 H31         9.1287   -4.7589    7.7685 H         1 <0>         0.1291
     54 H32         8.2230   -6.2904    7.7443 H         1 <0>         0.1281
     55 H33         9.1303   -4.8294    5.3674 H         1 <0>         0.4217
@<TRIPOS>BOND
     1    1    6 ar
     2    1    2 ar
     3    1   23 1
     4    2    3 ar
     5    2   24 1
     6    3    4 ar
     7    3   25 1
     8    4    5 ar
     9    4    7 1
    10    5    6 ar
    11    5   26 1
    12    6   27 1
    13    7    8 1
    14    7   28 1
    15    7   29 1
    16    8   13 1
    17    8    9 1
    18    8   30 1
    19    9   10 1
    20    9   31 1
    21    9   32 1
    22   10   11 1
    23   10   33 1
    24   10   34 1
    25   11   12 1
    26   11   14 1
    27   12   13 1
    28   12   35 1
    29   12   36 1
    30   13   37 1
    31   13   38 1
    32   14   15 1
    33   14   39 1
    34   14   40 1
    35   15   16 1
    36   15   41 1
    37   15   42 1
    38   16   17 1
    39   16   43 1
    40   16   44 1
    41   17   22 1
    42   17   18 1
    43   17   55 1
    44   18   19 1
    45   18   45 1
    46   18   46 1
    47   19   20 1
    48   19   47 1
    49   19   48 1
    50   20   21 1
    51   20   49 1
    52   20   50 1
    53   21   22 1
    54   21   51 1
    55   21   52 1
    56   22   53 1
    57   22   54 1
@<TRIPOS>MOLECULE
ZINC00537822
   50    52     0     0     0
SMALL
USER_CHARGES

@<TRIPOS>ATOM
      1 C1         -0.0169    1.3952    0.0097 C.ar      1 <0>        -0.0260
      2 C2          1.1683    2.0970    0.0022 C.ar      1 <0>        -0.1650
      3 C3          2.3789    1.4198   -0.0130 C.ar      1 <0>         0.1439
      4 C4          2.4047    0.0329   -0.0212 C.ar      1 <0>        -0.1670
      5 C5          1.2267   -0.6810   -0.0142 C.ar      1 <0>        -0.0432
      6 C6          0.0021   -0.0041    0.0020 C.ar      1 <0>        -0.1967
      7 C7         -1.2591   -0.7596    0.0105 C.2       1 <0>         0.4038
      8 O1         -2.3189   -0.1702    0.0242 O.2       1 <0>        -0.4483
      9 C8         -1.2348   -2.2664    0.0022 C.3       1 <0>        -0.1653
     10 C9         -2.6689   -2.7996    0.0135 C.3       1 <0>        -0.1429
     11 C10        -2.6443   -4.3293    0.0051 C.3       1 <0>        -0.0092
     12 N1         -4.0211   -4.8413    0.0160 N.4       1 <0>        -0.3830
     13 C11        -4.6726   -4.4620    1.2755 C.3       1 <0>        -0.0093
     14 C12        -6.1318   -4.9225    1.2582 C.3       1 <0>        -0.1330
     15 C13        -6.1791   -6.4445    1.0954 C.3       1 <0>         0.1746
     16 C14        -5.4322   -6.8346   -0.1834 C.3       1 <0>        -0.1706
     17 C15        -3.9990   -6.3033   -0.1127 C.3       1 <0>        -0.0017
     18 C16        -7.6135   -6.8966    0.9991 C.ar      1 <0>        -0.1262
     19 C17        -8.5661   -6.0599    0.4482 C.ar      1 <0>        -0.1006
     20 C18        -9.8818   -6.4740    0.3596 C.ar      1 <0>        -0.1039
     21 C19       -10.2453   -7.7262    0.8224 C.ar      1 <0>        -0.0247
     22 C20        -9.2914   -8.5631    1.3735 C.ar      1 <0>        -0.1016
     23 C21        -7.9750   -8.1501    1.4564 C.ar      1 <0>        -0.0934
     24 Cl1       -11.8977   -8.2468    0.7119 Cl        1 <0>        -0.0500
     25 O2         -5.5554   -7.0652    2.2213 O.3       1 <0>        -0.5474
     26 F1          3.5378    2.1141   -0.0204 F         1 <0>        -0.1258
     27 H1         -0.9587    1.9236    0.0260 H         1 <0>         0.1459
     28 H2          1.1551    3.1769    0.0077 H         1 <0>         0.1477
     29 H3          3.3506   -0.4883   -0.0334 H         1 <0>         0.1469
     30 H4          1.2482   -1.7608   -0.0213 H         1 <0>         0.1412
     31 H5         -0.7241   -2.6166   -0.8948 H         1 <0>         0.1127
     32 H6         -0.7064   -2.6261    0.8850 H         1 <0>         0.1127
     33 H7         -3.1796   -2.4493    0.9105 H         1 <0>         0.0952
     34 H8         -3.1973   -2.4398   -0.8693 H         1 <0>         0.0947
     35 H9         -2.1335   -4.6796   -0.8919 H         1 <0>         0.1333
     36 H10        -2.1158   -4.6891    0.8880 H         1 <0>         0.1327
     37 H11        -4.1530   -4.9339    2.1093 H         1 <0>         0.1388
     38 H12        -4.6353   -3.3788    1.3915 H         1 <0>         0.1356
     39 H13        -6.6132   -4.6415    2.1949 H         1 <0>         0.1238
     40 H14        -6.6524   -4.4509    0.4248 H         1 <0>         0.1045
     41 H15        -5.4137   -7.9204   -0.2771 H         1 <0>         0.1175
     42 H16        -5.9384   -6.4027   -1.0467 H         1 <0>         0.1009
     43 H17        -3.4644   -6.5795   -1.0215 H         1 <0>         0.1329
     44 H18        -3.4937   -6.7360    0.7507 H         1 <0>         0.1354
     45 H19        -8.2824   -5.0823    0.0874 H         1 <0>         0.1334
     46 H20       -10.6260   -5.8201   -0.0704 H         1 <0>         0.1408
     47 H21        -9.5746   -9.5405    1.7352 H         1 <0>         0.1414
     48 H22        -7.2294   -8.8051    1.8823 H         1 <0>         0.1323
     49 H23        -5.5495   -8.0314    2.1846 H         1 <0>         0.3907
     50 H24        -4.5327   -4.4442   -0.7578 H         1 <0>         0.4215
@<TRIPOS>BOND
     1    1    6 ar
     2    1    2 ar
     3    1   27 1
     4    2    3 ar
     5    2   28 1
     6    3    4 ar
     7    3   26 1
     8    4    5 ar
     9    4   29 1
    10    5    6 ar
    11    5   30 1
    12    6    7 1
    13    7    8 2
    14    7    9 1
    15    9   10 1
    16    9   31 1
    17    9   32 1
    18   10   11 1
    19   10   33 1
    20   10   34 1
    21   11   12 1
    22   11   35 1
    23   11   36 1
    24   12   17 1
    25   12   13 1
    26   12   50 1
    27   13   14 1
    28   13   37 1
    29   13   38 1
    30   14   15 1
    31   14   39 1
    32   14   40 1
    33   15   16 1
    34   15   18 1
    35   15   25 1
    36   16   17 1
    37   16   41 1
    38   16   42 1
    39   17   43 1
    40   17   44 1
    41   18   23 ar
    42   18   19 ar
    43   19   20 ar
    44   19   45 1
    45   20   21 ar
    46   20   46 1
    47   21   22 ar
    48   21   24 1
    49   22   23 ar
    50   22   47 1
    51   23   48 1
    52   25   49 1
@<TRIPOS>MOLECULE
ZINC00000504
   41    44     0     0     0
SMALL
USER_CHARGES

@<TRIPOS>ATOM
      1 C1         -0.0178    1.4648    0.0101 C.3       1 <0>        -0.0457
      2 N1          0.0021   -0.0041    0.0020 N.4       1 <0>        -0.3851
      3 C2         -1.3782   -0.5248    0.0610 C.3       1 <0>        -0.0107
      4 C3         -1.3147   -2.0017   -0.3247 C.3       1 <0>         0.1097
      5 N2         -0.2536   -2.6823    0.4304 N.pl3     1 <0>        -0.6570
      6 C4         -0.1632   -4.0681    0.2474 C.ar      1 <0>         0.1515
      7 C5          0.1651   -4.5655   -1.0110 C.ar      1 <0>        -0.1283
      8 C6          0.3219   -5.9257   -1.1894 C.ar      1 <0>        -0.1053
      9 C7          0.1595   -6.7897   -0.1216 C.ar      1 <0>        -0.1122
     10 C8         -0.1903   -6.2968    1.1226 C.ar      1 <0>        -0.0978
     11 C9         -0.3794   -4.9379    1.2936 C.ar      1 <0>        -0.0863
     12 C10        -0.9055   -4.4020    2.5876 C.3       1 <0>        -0.0401
     13 C11         0.0255   -3.4607    3.2849 C.ar      1 <0>        -0.0434
     14 C12         0.2033   -3.7275    4.6483 C.ar      1 <0>        -0.1164
     15 C13         1.0009   -2.9352    5.4386 C.ar      1 <0>        -0.1037
     16 C14         1.6407   -1.8450    4.8776 C.ar      1 <0>        -0.1092
     17 C15         1.4792   -1.5873    3.5373 C.ar      1 <0>        -0.1345
     18 C16         0.6836   -2.4040    2.7249 C.ar      1 <0>        -0.1120
     19 C17         0.6957   -2.0166    1.2712 C.3       1 <0>         0.2145
     20 H1          1.6762   -2.3177    0.9022 H         1 <0>         0.0814
     21 C18         0.7079   -0.4980    1.1840 C.3       1 <0>        -0.0096
     22 H2          1.0047    1.8421    0.0024 H         1 <0>         0.1256
     23 H3         -0.5450    1.8259   -0.8730 H         1 <0>         0.1278
     24 H4         -0.5280    1.8163    0.9069 H         1 <0>         0.1233
     25 H5         -1.7720   -0.4210    1.0720 H         1 <0>         0.1359
     26 H6         -2.0104    0.0166   -0.6429 H         1 <0>         0.1459
     27 H7         -2.2727   -2.4732   -0.1054 H         1 <0>         0.1007
     28 H8         -1.1096   -2.0872   -1.3918 H         1 <0>         0.0828
     29 H9          0.2970   -3.8905   -1.8436 H         1 <0>         0.1222
     30 H10         0.5722   -6.3158   -2.1649 H         1 <0>         0.1292
     31 H11         0.3058   -7.8509   -0.2596 H         1 <0>         0.1304
     32 H12        -0.3156   -6.9709    1.9570 H         1 <0>         0.1304
     33 H13        -1.8427   -3.8810    2.3915 H         1 <0>         0.0851
     34 H14        -1.1118   -5.2412    3.2519 H         1 <0>         0.0847
     35 H15        -0.2988   -4.5760    5.0892 H         1 <0>         0.1275
     36 H16         1.1270   -3.1618    6.4870 H         1 <0>         0.1317
     37 H17         2.2602   -1.2030    5.4861 H         1 <0>         0.1308
     38 H18         1.9776   -0.7345    3.1006 H         1 <0>         0.1191
     39 H19         1.7417   -0.1544    1.1475 H         1 <0>         0.1407
     40 H20         0.2329   -0.0891    2.0758 H         1 <0>         0.1370
     41 H21         0.4593   -0.3360   -0.8339 H         1 <0>         0.4294
@<TRIPOS>BOND
     1    1    2 1
     2    1   22 1
     3    1   23 1
     4    1   24 1
     5    2   21 1
     6    2    3 1
     7    2   41 1
     8    3    4 1
     9    3   25 1
    10    3   26 1
    11    4    5 1
    12    4   27 1
    13    4   28 1
    14    5   19 1
    15    5    6 1
    16    6   11 ar
    17    6    7 ar
    18    7    8 ar
    19    7   29 1
    20    8    9 ar
    21    8   30 1
    22    9   10 ar
    23    9   31 1
    24   10   11 ar
    25   10   32 1
    26   11   12 1
    27   12   13 1
    28   12   33 1
    29   12   34 1
    30   13   18 ar
    31   13   14 ar
    32   14   15 ar
    33   14   35 1
    34   15   16 ar
    35   15   36 1
    36   16   17 ar
    37   16   37 1
    38   17   18 ar
    39   17   38 1
    40   18   19 1
    41   19   20 1
    42   19   21 1
    43   21   39 1
    44   21   40 1
@<TRIPOS>MOLECULE
ZINC00033882
   23    23     0     0     0
SMALL
USER_CHARGES

@<TRIPOS>ATOM
      1 C1         -0.0167    1.3779    0.0096 C.ar      1 <0>        -0.1006
      2 C2          1.1696    2.0886    0.0021 C.ar      1 <0>        -0.1264
      3 C3          2.3802    1.4154   -0.0130 C.ar      1 <0>         0.0999
      4 C4          2.3990    0.0236   -0.0206 C.ar      1 <0>         0.0875
      5 C5          1.2071   -0.6822   -0.0130 C.ar      1 <0>        -0.1216
      6 C6          0.0021   -0.0041    0.0020 C.ar      1 <0>        -0.1052
      7 C7         -1.2936   -0.7736    0.0102 C.3       1 <0>        -0.1010
      8 C8         -1.7458   -1.0263   -1.4294 C.3       1 <0>        -0.0078
      9 N1         -3.0088   -1.7764   -1.4215 N.4       1 <0>        -0.6379
     10 O1          3.5850   -0.6417   -0.0359 O.3       1 <0>        -0.4857
     11 O2          3.5476    2.1129   -0.0209 O.3       1 <0>        -0.4857
     12 H1         -0.9598    1.9038    0.0259 H         1 <0>         0.1332
     13 H2          1.1522    3.1684    0.0077 H         1 <0>         0.1416
     14 H3          1.2190   -1.7621   -0.0189 H         1 <0>         0.1358
     15 H4         -1.1467   -1.7271    0.5175 H         1 <0>         0.0975
     16 H5         -2.0555   -0.1967    0.5344 H         1 <0>         0.0990
     17 H6         -1.8927   -0.0728   -1.9368 H         1 <0>         0.1365
     18 H7         -0.9839   -1.6032   -1.9536 H         1 <0>         0.1360
     19 H8         -2.8729   -2.6590   -0.9518 H         1 <0>         0.4357
     20 H9         -3.7141   -1.2424   -0.9362 H         1 <0>         0.4357
     21 H10         3.9367   -0.8389    0.8430 H         1 <0>         0.3958
     22 H11         3.8938    2.3101    0.8602 H         1 <0>         0.3975
     23 H12        -3.3071   -1.9430   -2.3709 H         1 <0>         0.4400
@<TRIPOS>BOND
     1    1    6 ar
     2    1    2 ar
     3    1   12 1
     4    2    3 ar
     5    2   13 1
     6    3    4 ar
     7    3   11 1
     8    4    5 ar
     9    4   10 1
    10    5    6 ar
    11    5   14 1
    12    6    7 1
    13    7    8 1
    14    7   15 1
    15    7   16 1
    16    8    9 1
    17    8   17 1
    18    8   18 1
    19    9   19 1
    20    9   20 1
    21    9   23 1
    22   10   21 1
    23   11   22 1
@<TRIPOS>MOLECULE
ZINC00020251
   41    43     0     0     0
SMALL
USER_CHARGES

@<TRIPOS>ATOM
      1 C1          0.3679    1.4948   -0.0201 C.3       1 <0>        -0.1272
      2 C2          0.2853   -0.0099   -0.0200 C.ar      1 <0>        -0.0600
      3 C3          1.4442   -0.7644   -0.0110 C.ar      1 <0>        -0.1078
      4 C4          1.3722   -2.1435   -0.0113 C.ar      1 <0>        -0.0987
      5 C5          0.1337   -2.7728   -0.0201 C.ar      1 <0>         0.1050
      6 C6         -1.0285   -2.0117   -0.0286 C.ar      1 <0>        -0.1145
      7 C7         -0.9492   -0.6330   -0.0230 C.ar      1 <0>        -0.1116
      8 N1          0.0572   -4.1678   -0.0209 N.pl3     1 <0>        -0.5735
      9 C8          0.0846   -4.9036    1.2456 C.3       1 <0>         0.1390
     10 C9         -1.3227   -5.0783    1.7557 C.cat     1 <0>         0.4891
     11 N2         -1.9005   -4.2016    2.5430 N.pl3     1 <0>        -0.6245
     12 C10        -3.2631   -4.6580    2.8611 C.3       1 <0>         0.0566
     13 C11        -3.3748   -5.9931    2.0960 C.3       1 <0>         0.0550
     14 N3         -2.0626   -6.1154    1.4407 N.pl3     1 <0>        -0.6236
     15 C12        -0.0455   -4.8611   -1.2295 C.ar      1 <0>         0.2053
     16 C13        -0.0552   -4.1650   -2.4324 C.ar      1 <0>        -0.1712
     17 C14        -0.1568   -4.8506   -3.6270 C.ar      1 <0>        -0.0509
     18 C15        -0.2489   -6.2298   -3.6298 C.ar      1 <0>        -0.1769
     19 C16        -0.2402   -6.9302   -2.4318 C.ar      1 <0>         0.1550
     20 C17        -0.1322   -6.2465   -1.2308 C.ar      1 <0>        -0.2288
     21 O1         -0.3318   -8.2861   -2.4363 O.3       1 <0>        -0.4993
     22 H1          0.3851    1.8579    1.0075 H         1 <0>         0.0791
     23 H2          1.2778    1.8087   -0.5317 H         1 <0>         0.0747
     24 H3         -0.4995    1.9063   -0.5363 H         1 <0>         0.0732
     25 H4          2.4067   -0.2745   -0.0042 H         1 <0>         0.1347
     26 H5          2.2777   -2.7321   -0.0051 H         1 <0>         0.1314
     27 H6         -1.9930   -2.4978   -0.0354 H         1 <0>         0.1179
     28 H7         -1.8524   -0.0408   -0.0255 H         1 <0>         0.1314
     29 H8          0.5378   -5.8823    1.0875 H         1 <0>         0.1364
     30 H9          0.6696   -4.3462    1.9771 H         1 <0>         0.1371
     31 H10        -3.3747   -4.8185    3.9334 H         1 <0>         0.1285
     32 H11        -4.0026   -3.9438    2.4987 H         1 <0>         0.1258
     33 H12        -3.5420   -6.8196    2.7867 H         1 <0>         0.1291
     34 H13        -4.1699   -5.9450    1.3520 H         1 <0>         0.1262
     35 H14        -1.7873   -6.8481    0.8678 H         1 <0>         0.4584
     36 H15         0.0163   -3.0874   -2.4330 H         1 <0>         0.1301
     37 H16        -0.1645   -4.3081   -4.5608 H         1 <0>         0.1363
     38 H17        -0.3282   -6.7630   -4.5656 H         1 <0>         0.1352
     39 H18        -0.1201   -6.7903   -0.2978 H         1 <0>         0.1181
     40 H19         0.5221   -8.7379   -2.4787 H         1 <0>         0.4007
     41 H20        -1.4934   -3.3821    2.8650 H         1 <0>         0.4591
@<TRIPOS>BOND
     1    1    2 1
     2    1   22 1
     3    1   23 1
     4    1   24 1
     5    2    7 ar
     6    2    3 ar
     7    3    4 ar
     8    3   25 1
     9    4    5 ar
    10    4   26 1
    11    5    6 ar
    12    5    8 1
    13    6    7 ar
    14    6   27 1
    15    7   28 1
    16    8    9 1
    17    8   15 1
    18    9   10 1
    19    9   29 1
    20    9   30 1
    21   10   14 1
    22   10   11 2
    23   11   12 1
    24   11   41 1
    25   12   13 1
    26   12   31 1
    27   12   32 1
    28   13   14 1
    29   13   33 1
    30   13   34 1
    31   14   35 1
    32   15   20 ar
    33   15   16 ar
    34   16   17 ar
    35   16   36 1
    36   17   18 ar
    37   17   37 1
    38   18   19 ar
    39   18   38 1
    40   19   20 ar
    41   19   21 1
    42   20   39 1
    43   21   40 1
@<TRIPOS>MOLECULE
ZINC00598034
   54    57     0     0     0
SMALL
USER_CHARGES

@<TRIPOS>ATOM
      1 C1         -0.0077    1.4234    0.0033 C.3       1 <0>         0.0157
      2 O1         -0.1868    0.0108    0.1242 O.3       1 <0>        -0.2898
      3 C2          0.4397   -0.6043    1.1631 C.ar      1 <0>         0.1145
      4 C3          1.1918    0.1347    2.0315 C.ar      1 <0>        -0.1165
      5 C4          1.8369   -0.4970    3.1016 C.ar      1 <0>        -0.1902
      6 C5          1.7064   -1.8964    3.2778 C.ar      1 <0>         0.2208
      7 C6          0.9306   -2.6344    2.3758 C.ar      1 <0>        -0.2297
      8 C7          0.3017   -1.9883    1.3341 C.ar      1 <0>         0.2174
      9 O2         -0.4562   -2.7011    0.4606 O.3       1 <0>        -0.2780
     10 C8         -0.5581   -4.1081    0.6882 C.3       1 <0>         0.0124
     11 N1          2.3341   -2.4792    4.3118 N.ar      1 <0>        -0.5843
     12 C9          3.0579   -1.7579    5.1457 C.ar      1 <0>         0.6807
     13 N2          3.2060   -0.4423    5.0166 N.ar      1 <0>        -0.5943
     14 C10         2.6271    0.2250    4.0289 C.ar      1 <0>         0.5615
     15 N3          2.7903    1.5892    3.9070 N.pl3     1 <0>        -0.7728
     16 N4          3.6892   -2.3962    6.1989 N.pl3     1 <0>        -0.5635
     17 C11         3.6641   -3.8615    6.3086 C.3       1 <0>         0.0868
     18 C12         5.1079   -4.3709    6.3992 C.3       1 <0>         0.0985
     19 N5          5.8157   -3.5956    7.4277 N.am      1 <0>        -0.6214
     20 C13         5.8408   -2.1303    7.3180 C.3       1 <0>         0.0870
     21 C14         4.4017   -1.6212    7.2243 C.3       1 <0>         0.1004
     22 C15         6.4305   -4.2173    8.4534 C.2       1 <0>         0.5064
     23 O3          6.4027   -5.4271    8.5336 O.2       1 <0>        -0.5026
     24 C16         7.1524   -3.4091    9.5007 C.3       1 <0>         0.0659
     25 H1          6.4722   -2.6776    9.9370 H         1 <0>         0.1088
     26 C17         8.3600   -2.6874    8.8648 C.3       1 <0>        -0.1491
     27 C18         9.4409   -2.8149    9.9727 C.3       1 <0>        -0.1554
     28 C19         9.0898   -4.2017   10.5680 C.3       1 <0>         0.0451
     29 O4          7.6541   -4.2769   10.5238 O.3       1 <0>        -0.3491
     30 H2          1.0522    1.6460   -0.1205 H         1 <0>         0.0637
     31 H3         -0.5589    1.7866   -0.8641 H         1 <0>         0.1175
     32 H4         -0.3796    1.9151    0.9021 H         1 <0>         0.0637
     33 H5          1.2887    1.2013    1.8930 H         1 <0>         0.1589
     34 H6          0.8225   -3.7020    2.4982 H         1 <0>         0.1676
     35 H7         -0.9968   -4.2865    1.6699 H         1 <0>         0.0687
     36 H8         -1.1901   -4.5555   -0.0789 H         1 <0>         0.1206
     37 H9          0.4349   -4.5557    0.6473 H         1 <0>         0.0686
     38 H10         2.3610    2.0659    3.1793 H         1 <0>         0.4288
     39 H11         3.3342    2.0720    4.5489 H         1 <0>         0.4309
     40 H12         3.1168   -4.1519    7.2054 H         1 <0>         0.1101
     41 H13         3.1810   -4.2861    5.4286 H         1 <0>         0.0922
     42 H14         5.1071   -5.4261    6.6725 H         1 <0>         0.1221
     43 H15         5.6031   -4.2401    5.4371 H         1 <0>         0.0811
     44 H16         6.3239   -1.7058    8.1980 H         1 <0>         0.1136
     45 H17         6.3881   -1.8399    6.4212 H         1 <0>         0.0855
     46 H18         4.4056   -0.5666    6.9489 H         1 <0>         0.1276
     47 H19         3.9081   -1.7484    8.1878 H         1 <0>         0.0973
     48 H20         8.6778   -3.1927    7.9528 H         1 <0>         0.0829
     49 H21         8.1271   -1.6407    8.6687 H         1 <0>         0.0945
     50 H22        10.4436   -2.8133    9.5453 H         1 <0>         0.0923
     51 H23         9.3329   -2.0281   10.7193 H         1 <0>         0.0872
     52 H24         9.5297   -4.9951    9.9637 H         1 <0>         0.0669
     53 H25         9.4400   -4.2710   11.5978 H         1 <0>         0.0978
     54 H26         2.2545   -3.4365    4.4465 H         1 <0>         0.4347
@<TRIPOS>BOND
     1    1    2 1
     2    1   30 1
     3    1   31 1
     4    1   32 1
     5    2    3 1
     6    3    8 ar
     7    3    4 ar
     8    4    5 ar
     9    4   33 1
    10    5   14 ar
    11    5    6 ar
    12    6    7 ar
    13    6   11 ar
    14    7    8 ar
    15    7   34 1
    16    8    9 1
    17    9   10 1
    18   10   35 1
    19   10   36 1
    20   10   37 1
    21   11   12 ar
    22   11   54 1
    23   12   13 ar
    24   12   16 1
    25   13   14 ar
    26   14   15 1
    27   15   38 1
    28   15   39 1
    29   16   21 1
    30   16   17 1
    31   17   18 1
    32   17   40 1
    33   17   41 1
    34   18   19 1
    35   18   42 1
    36   18   43 1
    37   19   20 1
    38   19   22 am
    39   20   21 1
    40   20   44 1
    41   20   45 1
    42   21   46 1
    43   21   47 1
    44   22   23 2
    45   22   24 1
    46   24   25 1
    47   24   29 1
    48   24   26 1
    49   26   27 1
    50   26   48 1
    51   26   49 1
    52   27   28 1
    53   27   50 1
    54   27   51 1
    55   28   29 1
    56   28   52 1
    57   28   53 1
@<TRIPOS>MOLECULE
ZINC01271441
   54    57     0     0     0
SMALL
USER_CHARGES

@<TRIPOS>ATOM
      1 C1         -0.0028    1.4296    0.0020 C.3       1 <0>         0.0156
      2 O1          0.0169    0.0008   -0.0061 O.3       1 <0>        -0.2899
      3 C2          0.6396   -0.6141    1.0353 C.ar      1 <0>         0.1143
      4 C3          1.2025    0.1394    2.0259 C.ar      1 <0>        -0.1160
      5 C4          1.8434   -0.4920    3.0987 C.ar      1 <0>        -0.1898
      6 C5          1.9045   -1.9062    3.1509 C.ar      1 <0>         0.2205
      7 C6          1.3209   -2.6590    2.1249 C.ar      1 <0>        -0.2298
      8 C7          0.6915   -2.0136    1.0829 C.ar      1 <0>         0.2171
      9 O2          0.1195   -2.7416    0.0888 O.3       1 <0>        -0.2781
     10 C8          0.2059   -4.1641    0.1943 C.3       1 <0>         0.0126
     11 N1          2.5242   -2.4885    4.1901 N.ar      1 <0>        -0.5852
     12 C9          3.0645   -1.7532    5.1424 C.ar      1 <0>         0.6810
     13 N2          3.0291   -0.4236    5.1319 N.ar      1 <0>        -0.5931
     14 C10         2.4415    0.2446    4.1500 C.ar      1 <0>         0.5615
     15 N3          2.4132    1.6237    4.1517 N.pl3     1 <0>        -0.7720
     16 N4          3.6941   -2.3916    6.1966 N.pl3     1 <0>        -0.5633
     17 C11         3.6644   -3.8566    6.3091 C.3       1 <0>         0.0849
     18 C12         5.1065   -4.3705    6.4001 C.3       1 <0>         0.0903
     19 N5          5.8173   -3.5956    7.4268 N.am      1 <0>        -0.6212
     20 C13         5.8471   -2.1306    7.3143 C.3       1 <0>         0.0960
     21 C14         4.4097   -1.6170    7.2202 C.3       1 <0>         0.1038
     22 C15         6.4305   -4.2173    8.4534 C.2       1 <0>         0.5188
     23 O3          6.9319   -3.5654    9.3448 O.2       1 <0>        -0.4957
     24 C16         6.4931   -5.7225    8.4938 C.3       1 <0>         0.0637
     25 H1          5.5000   -6.1460    8.3435 H         1 <0>         0.0961
     26 C17         7.4714   -6.2492    7.4138 C.3       1 <0>        -0.1461
     27 C18         7.8731   -7.6200    8.0233 C.3       1 <0>        -0.1544
     28 C19         7.8627   -7.3208    9.5378 C.3       1 <0>         0.0457
     29 O4          7.0398   -6.1654    9.7461 O.3       1 <0>        -0.3521
     30 H2          1.0198    1.8071   -0.0040 H         1 <0>         0.0638
     31 H3         -0.5286    1.7908   -0.8819 H         1 <0>         0.1176
     32 H4         -0.5145    1.7809    0.8980 H         1 <0>         0.0637
     33 H5          1.1537    1.2174    1.9816 H         1 <0>         0.1589
     34 H6          1.3602   -3.7379    2.1520 H         1 <0>         0.1673
     35 H7         -0.2807   -4.4904    1.1134 H         1 <0>         0.0684
     36 H8         -0.2894   -4.6226   -0.6616 H         1 <0>         0.1203
     37 H9          1.2536   -4.4642    0.2114 H         1 <0>         0.0683
     38 H10         1.9798    2.1008    3.4269 H         1 <0>         0.4289
     39 H11         2.8267    2.1164    4.8778 H         1 <0>         0.4314
     40 H12         3.1165   -4.1435    7.2066 H         1 <0>         0.1117
     41 H13         3.1795   -4.2813    5.4301 H         1 <0>         0.0929
     42 H14         5.1024   -5.4252    6.6754 H         1 <0>         0.1142
     43 H15         5.6017   -4.2431    5.4375 H         1 <0>         0.0864
     44 H16         6.3320   -1.7059    8.1933 H         1 <0>         0.1216
     45 H17         6.3950   -1.8437    6.4167 H         1 <0>         0.0806
     46 H18         4.4168   -0.5629    6.9428 H         1 <0>         0.1261
     47 H19         3.9160   -1.7407    8.1841 H         1 <0>         0.0976
     48 H20         6.9672   -6.3777    6.4561 H         1 <0>         0.0907
     49 H21         8.3372   -5.5943    7.3151 H         1 <0>         0.0867
     50 H22         7.1384   -8.3856    7.7740 H         1 <0>         0.0841
     51 H23         8.8692   -7.9145    7.6929 H         1 <0>         0.0920
     52 H24         7.4482   -8.1708   10.0798 H         1 <0>         0.0797
     53 H25         8.8773   -7.1204    9.8821 H         1 <0>         0.0783
     54 H26         2.5744   -3.4559    4.2409 H         1 <0>         0.4334
@<TRIPOS>BOND
     1    1    2 1
     2    1   30 1
     3    1   31 1
     4    1   32 1
     5    2    3 1
     6    3    8 ar
     7    3    4 ar
     8    4    5 ar
     9    4   33 1
    10    5   14 ar
    11    5    6 ar
    12    6    7 ar
    13    6   11 ar
    14    7    8 ar
    15    7   34 1
    16    8    9 1
    17    9   10 1
    18   10   35 1
    19   10   36 1
    20   10   37 1
    21   11   12 ar
    22   11   54 1
    23   12   13 ar
    24   12   16 1
    25   13   14 ar
    26   14   15 1
    27   15   38 1
    28   15   39 1
    29   16   21 1
    30   16   17 1
    31   17   18 1
    32   17   40 1
    33   17   41 1
    34   18   19 1
    35   18   42 1
    36   18   43 1
    37   19   20 1
    38   19   22 am
    39   20   21 1
    40   20   44 1
    41   20   45 1
    42   21   46 1
    43   21   47 1
    44   22   23 2
    45   22   24 1
    46   24   25 1
    47   24   29 1
    48   24   26 1
    49   26   27 1
    50   26   48 1
    51   26   49 1
    52   27   28 1
    53   27   50 1
    54   27   51 1
    55   28   29 1
    56   28   52 1
    57   28   53 1
@<TRIPOS>MOLECULE
ZINC00968257
   45    47     0     0     0
SMALL
USER_CHARGES

@<TRIPOS>ATOM
      1 C1         -0.0178    1.4648    0.0101 C.3       1 <0>        -0.0532
      2 N1          0.0021   -0.0041    0.0020 N.4       1 <0>        -0.3871
      3 C2         -1.3761   -0.5125    0.0124 C.3       1 <0>        -0.0473
      4 C3          0.6897   -0.4778   -1.2066 C.3       1 <0>        -0.0075
      5 C4          2.1588   -0.0534   -1.1571 C.3       1 <0>        -0.1202
      6 C5          2.8641   -0.5394   -2.3970 C.2       1 <0>        -0.1679
      7 C6          3.5250    0.3270   -3.1738 C.2       1 <0>         0.0063
      8 C7          3.5927    1.7771   -2.8453 C.ar      1 <0>        -0.0588
      9 C8          4.0673    2.1470   -1.5880 C.ar      1 <0>        -0.1130
     10 C9          4.1752    3.4781   -1.2462 C.ar      1 <0>        -0.1230
     11 C10         3.8096    4.4415   -2.1695 C.ar      1 <0>        -0.1074
     12 C11         3.3311    4.0773   -3.4068 C.ar      1 <0>        -0.1261
     13 C12         3.1954    2.7364   -3.7740 C.ar      1 <0>        -0.0534
     14 C13         2.5869    2.5170   -5.1377 C.3       1 <0>        -0.0764
     15 C14         2.3799    1.0595   -5.4939 C.3       1 <0>        -0.0807
     16 C15         3.6776    0.3005   -5.5991 C.ar      1 <0>        -0.0737
     17 C16         4.2334   -0.1117   -4.4047 C.ar      1 <0>        -0.0690
     18 C17         5.3905   -0.8775   -4.3777 C.ar      1 <0>        -0.0956
     19 C18         6.0025   -1.1900   -5.5806 C.ar      1 <0>        -0.1191
     20 C19         5.4694   -0.7426   -6.7762 C.ar      1 <0>        -0.1081
     21 C20         4.2868    0.0121   -6.7962 C.ar      1 <0>        -0.1083
     22 H1          1.0047    1.8421    0.0024 H         1 <0>         0.1238
     23 H2         -0.5450    1.8259   -0.8730 H         1 <0>         0.1221
     24 H3         -0.5280    1.8163    0.9069 H         1 <0>         0.1250
     25 H4         -1.9033   -0.1515   -0.8706 H         1 <0>         0.1216
     26 H5         -1.3613   -1.6024    0.0065 H         1 <0>         0.1236
     27 H6         -1.8863   -0.1610    0.9092 H         1 <0>         0.1246
     28 H7          0.6270   -1.5648   -1.2578 H         1 <0>         0.1321
     29 H8          0.2158   -0.0447   -2.0875 H         1 <0>         0.1294
     30 H9          2.2214    1.0336   -1.1059 H         1 <0>         0.0996
     31 H10         2.6326   -0.4865   -0.2761 H         1 <0>         0.0954
     32 H11         2.8363   -1.5868   -2.6585 H         1 <0>         0.1308
     33 H12         4.3519    1.3857   -0.8767 H         1 <0>         0.1233
     34 H13         4.5405    3.7651   -0.2712 H         1 <0>         0.1290
     35 H14         3.9003    5.4876   -1.9168 H         1 <0>         0.1264
     36 H15         3.0534    4.8470   -4.1116 H         1 <0>         0.1247
     37 H16         1.6223    3.0233   -5.1729 H         1 <0>         0.0854
     38 H17         3.2393    2.9678   -5.8855 H         1 <0>         0.0834
     39 H18         1.7604    0.5939   -4.7274 H         1 <0>         0.0703
     40 H19         1.8587    1.0007   -6.4494 H         1 <0>         0.0792
     41 H20         5.8038   -1.2219   -3.4413 H         1 <0>         0.1267
     42 H21         6.9025   -1.7870   -5.5850 H         1 <0>         0.1278
     43 H22         5.9677   -0.9772   -7.7052 H         1 <0>         0.1274
     44 H23         3.8663    0.3630   -7.7270 H         1 <0>         0.1314
     45 H24         0.4901   -0.3383    0.8195 H         1 <0>         0.4266
@<TRIPOS>BOND
     1    1    2 1
     2    1   22 1
     3    1   23 1
     4    1   24 1
     5    2    3 1
     6    2    4 1
     7    2   45 1
     8    3   25 1
     9    3   26 1
    10    3   27 1
    11    4    5 1
    12    4   28 1
    13    4   29 1
    14    5    6 1
    15    5   30 1
    16    5   31 1
    17    6    7 2
    18    6   32 1
    19    7   17 1
    20    7    8 1
    21    8   13 ar
    22    8    9 ar
    23    9   10 ar
    24    9   33 1
    25   10   11 ar
    26   10   34 1
    27   11   12 ar
    28   11   35 1
    29   12   13 ar
    30   12   36 1
    31   13   14 1
    32   14   15 1
    33   14   37 1
    34   14   38 1
    35   15   16 1
    36   15   39 1
    37   15   40 1
    38   16   21 ar
    39   16   17 ar
    40   17   18 ar
    41   18   19 ar
    42   18   41 1
    43   19   20 ar
    44   19   42 1
    45   20   21 ar
    46   20   43 1
    47   21   44 1
@<TRIPOS>MOLECULE
ZINC26384919
   85    89     0     0     0
SMALL
USER_CHARGES

@<TRIPOS>ATOM
      1 C1          0.5619    1.1913   -1.4119 C.3       1 <0>        -0.1207
      2 C2          0.1555   -0.0775   -0.7076 C.2       1 <0>         0.2445
      3 C3          0.2932   -0.1696    0.6264 C.2       1 <0>        -0.2596
      4 C4         -0.1064   -1.4117    1.3712 C.3       1 <0>         0.0892
      5 H1          0.6627   -1.6533    2.1048 H         1 <0>         0.1017
      6 C5         -0.2703   -2.5687    0.4269 C.2       1 <0>        -0.2446
      7 C6         -0.3854   -2.3803   -0.8991 C.2       1 <0>         0.2020
      8 N1         -0.3544   -1.1195   -1.4331 N.pl3     1 <0>        -0.6292
      9 C7         -0.5564   -3.5702   -1.8078 C.3       1 <0>        -0.1340
     10 C8         -0.3038   -3.8844    0.9442 C.2       1 <0>         0.5420
     11 O1          0.7206   -4.4091    1.3393 O.2       1 <0>        -0.4840
     12 O2         -1.4718   -4.5582    0.9996 O.3       1 <0>        -0.3471
     13 C9         -1.4318   -5.8829    1.5338 C.3       1 <0>         0.0643
     14 C10        -2.8393   -6.4826    1.5161 C.3       1 <0>        -0.1492
     15 C11        -2.7965   -7.9010    2.0881 C.3       1 <0>        -0.0075
     16 N2         -4.1478   -8.4768    2.0712 N.4       1 <0>        -0.3776
     17 C12        -5.0157   -7.7111    2.9739 C.3       1 <0>        -0.0137
     18 C13        -6.4436   -8.2559    2.8988 C.3       1 <0>        -0.1369
     19 C14        -6.4445   -9.7295    3.3154 C.3       1 <0>         0.0259
     20 C15        -5.4792  -10.5051    2.4144 C.3       1 <0>        -0.1360
     21 C16        -4.0870   -9.8770    2.5075 C.3       1 <0>        -0.0201
     22 C17        -7.8341  -10.2938    3.1689 C.ar      1 <0>        -0.0850
     23 C18        -8.8551   -9.4991    2.6822 C.ar      1 <0>        -0.1210
     24 C19       -10.1298  -10.0167    2.5478 C.ar      1 <0>        -0.1133
     25 C20       -10.3835  -11.3292    2.8997 C.ar      1 <0>        -0.1094
     26 C21        -9.3623  -12.1242    3.3856 C.ar      1 <0>        -0.1120
     27 C22        -8.0867  -11.6079    3.5160 C.ar      1 <0>        -0.1046
     28 C23        -5.9995   -9.8478    4.7504 C.ar      1 <0>        -0.0905
     29 C24        -6.6101   -9.0851    5.7284 C.ar      1 <0>        -0.1071
     30 C25        -6.2019   -9.1936    7.0446 C.ar      1 <0>        -0.1062
     31 C26        -5.1835  -10.0650    7.3829 C.ar      1 <0>        -0.1095
     32 C27        -4.5736  -10.8283    6.4051 C.ar      1 <0>        -0.1103
     33 C28        -4.9847  -10.7230    5.0894 C.ar      1 <0>        -0.1387
     34 C29        -1.4114   -1.1650    2.0834 C.ar      1 <0>        -0.0735
     35 C30        -2.5416   -0.8323    1.3600 C.ar      1 <0>        -0.0498
     36 C31        -3.7384   -0.6060    2.0133 C.ar      1 <0>        -0.1162
     37 C32        -3.8055   -0.7127    3.3901 C.ar      1 <0>        -0.0571
     38 C33        -2.6757   -1.0462    4.1132 C.ar      1 <0>        -0.0464
     39 C34        -1.4796   -1.2767    3.4594 C.ar      1 <0>        -0.0404
     40 N3         -2.7474   -1.1599    5.5873 N.pl3     1 <0>         0.0316
     41 O3         -3.7940   -0.9611    6.1588 O.2       1 <0>        -0.1572
     42 O4         -1.7592   -1.4516    6.2198 O.3       1 <0>        -0.1547
     43 C35         0.8261    0.9261    1.3441 C.2       1 <0>         0.5164
     44 O5          1.1544    1.9383    0.7539 O.2       1 <0>        -0.5131
     45 O6          0.9706    0.8492    2.6837 O.3       1 <0>        -0.3523
     46 C36         1.5154    1.9932    3.3442 C.3       1 <0>         0.0356
     47 H2          0.3769    1.0885   -2.4812 H         1 <0>         0.0674
     48 H3         -0.0198    2.0261   -1.0211 H         1 <0>         0.1057
     49 H4          1.6226    1.3769   -1.2429 H         1 <0>         0.1083
     50 H5         -0.6910   -0.9646   -2.3295 H         1 <0>         0.4271
     51 H6         -1.6141   -3.8237   -1.8795 H         1 <0>         0.0969
     52 H7         -0.1728   -3.3285   -2.7990 H         1 <0>         0.0895
     53 H8         -0.0060   -4.4192   -1.4023 H         1 <0>         0.0851
     54 H9         -0.7668   -6.4989    0.9284 H         1 <0>         0.0799
     55 H10        -1.0636   -5.8502    2.5592 H         1 <0>         0.0791
     56 H11        -3.5043   -5.8667    2.1215 H         1 <0>         0.0984
     57 H12        -3.2074   -6.5153    0.4907 H         1 <0>         0.0999
     58 H13        -2.1315   -8.5170    1.4828 H         1 <0>         0.1372
     59 H14        -2.4283   -7.8683    3.1135 H         1 <0>         0.1345
     60 H15        -4.6463   -7.8010    3.9954 H         1 <0>         0.1324
     61 H16        -5.0115   -6.6620    2.6781 H         1 <0>         0.1341
     62 H17        -7.0860   -7.6872    3.5711 H         1 <0>         0.1180
     63 H18        -6.8142   -8.1662    1.8776 H         1 <0>         0.0979
     64 H19        -5.4323  -11.5442    2.7405 H         1 <0>         0.1181
     65 H20        -5.8297  -10.4621    1.3832 H         1 <0>         0.0972
     66 H21        -3.3972  -10.4269    1.8673 H         1 <0>         0.1348
     67 H22        -3.7374   -9.9208    3.5389 H         1 <0>         0.1400
     68 H23        -8.6569   -8.4736    2.4072 H         1 <0>         0.1240
     69 H24       -10.9276   -9.3956    2.1682 H         1 <0>         0.1268
     70 H25       -11.3795  -11.7334    2.7954 H         1 <0>         0.1271
     71 H26        -9.5606  -13.1496    3.6609 H         1 <0>         0.1268
     72 H27        -7.2881  -12.2301    3.8921 H         1 <0>         0.1204
     73 H28        -7.4057   -8.4043    5.4641 H         1 <0>         0.1236
     74 H29        -6.6784   -8.5972    7.8086 H         1 <0>         0.1289
     75 H30        -4.8642  -10.1492    8.4112 H         1 <0>         0.1286
     76 H31        -3.7777  -11.5088    6.6693 H         1 <0>         0.1279
     77 H32        -4.5107  -11.3220    4.3260 H         1 <0>         0.1259
     78 H33        -2.4893   -0.7490    0.2845 H         1 <0>         0.1328
     79 H34        -4.6212   -0.3455    1.4483 H         1 <0>         0.1473
     80 H35        -4.7405   -0.5352    3.9006 H         1 <0>         0.1532
     81 H36        -0.5977   -1.5409    4.0241 H         1 <0>         0.1529
     82 H37         1.5778    1.7992    4.4149 H         1 <0>         0.1027
     83 H38         2.5121    2.1981    2.9534 H         1 <0>         0.0631
     84 H39         0.8719    2.8552    3.1681 H         1 <0>         0.0603
     85 H40        -4.5191   -8.4335    1.1339 H         1 <0>         0.4220
@<TRIPOS>BOND
     1    1    2 1
     2    1   47 1
     3    1   48 1
     4    1   49 1
     5    2    8 1
     6    2    3 2
     7    3    4 1
     8    3   43 1
     9    4    5 1
    10    4    6 1
    11    4   34 1
    12    6    7 2
    13    6   10 1
    14    7    8 1
    15    7    9 1
    16    8   50 1
    17    9   51 1
    18    9   52 1
    19    9   53 1
    20   10   11 2
    21   10   12 1
    22   12   13 1
    23   13   14 1
    24   13   54 1
    25   13   55 1
    26   14   15 1
    27   14   56 1
    28   14   57 1
    29   15   16 1
    30   15   58 1
    31   15   59 1
    32   16   21 1
    33   16   17 1
    34   16   85 1
    35   17   18 1
    36   17   60 1
    37   17   61 1
    38   18   19 1
    39   18   62 1
    40   18   63 1
    41   19   20 1
    42   19   22 1
    43   19   28 1
    44   20   21 1
    45   20   64 1
    46   20   65 1
    47   21   66 1
    48   21   67 1
    49   22   27 ar
    50   22   23 ar
    51   23   24 ar
    52   23   68 1
    53   24   25 ar
    54   24   69 1
    55   25   26 ar
    56   25   70 1
    57   26   27 ar
    58   26   71 1
    59   27   72 1
    60   28   33 ar
    61   28   29 ar
    62   29   30 ar
    63   29   73 1
    64   30   31 ar
    65   30   74 1
    66   31   32 ar
    67   31   75 1
    68   32   33 ar
    69   32   76 1
    70   33   77 1
    71   34   39 ar
    72   34   35 ar
    73   35   36 ar
    74   35   78 1
    75   36   37 ar
    76   36   79 1
    77   37   38 ar
    78   37   80 1
    79   38   39 ar
    80   38   40 1
    81   39   81 1
    82   40   41 2
    83   40   42 1
    84   43   44 2
    85   43   45 1
    86   45   46 1
    87   46   82 1
    88   46   83 1
    89   46   84 1
@<TRIPOS>MOLECULE
ZINC26384919
   84    88     0     0     0
SMALL
USER_CHARGES

@<TRIPOS>ATOM
      1 C1         -0.4058    0.6649   -0.2560 C.3       1 <0>        -0.1000
      2 C2         -0.3874   -0.8418   -0.2749 C.2       1 <0>         0.2940
      3 C3         -1.5758   -1.5141   -0.2592 C.2       1 <0>        -0.3886
      4 C4         -1.5250   -3.0308   -0.2795 C.3       1 <0>         0.1314
      5 H1         -2.0744   -3.3784   -1.1543 H         1 <0>         0.0459
      6 C5         -0.1372   -3.6462   -0.3154 C.2       1 <0>        -0.3945
      7 C6          0.0434   -5.0118   -0.3368 C.2       1 <0>         0.4744
      8 O1         -1.0167   -5.8338   -0.2081 O.3       1 <0>        -0.6402
      9 O2          1.2801   -5.5257   -0.4865 O.3       1 <0>        -0.3323
     10 C7          1.3936   -6.9501   -0.4998 C.3       1 <0>         0.0372
     11 C8          0.9476   -2.7676   -0.3264 C.2       1 <0>         0.2993
     12 N1          0.7807   -1.4648   -0.3115 N.2       1 <0>        -0.6402
     13 C9          2.3460   -3.3282   -0.3619 C.3       1 <0>        -0.1087
     14 C10        -2.2308   -3.5420    0.9500 C.ar      1 <0>        -0.0224
     15 C11        -1.7764   -3.1859    2.2062 C.ar      1 <0>        -0.0562
     16 C12        -2.4237   -3.6548    3.3338 C.ar      1 <0>        -0.1261
     17 C13        -3.5259   -4.4795    3.2055 C.ar      1 <0>        -0.0800
     18 C14        -3.9807   -4.8348    1.9496 C.ar      1 <0>        -0.0600
     19 C15        -3.3358   -4.3623    0.8216 C.ar      1 <0>        -0.0105
     20 N2         -5.1604   -5.7182    1.8122 N.pl3     1 <0>         0.0455
     21 O3         -5.7262   -6.1290    2.7985 O.2       1 <0>        -0.1828
     22 O4         -5.5582   -6.0289    0.7136 O.3       1 <0>        -0.1762
     23 C16        -2.8015   -0.8264   -0.2252 C.2       1 <0>         0.5279
     24 O5         -2.8164    0.3913   -0.2091 O.2       1 <0>        -0.5542
     25 O6         -3.9627   -1.5162   -0.2103 O.3       1 <0>        -0.3570
     26 C17        -5.1703   -0.7530   -0.1757 C.3       1 <0>         0.0758
     27 C18        -6.3719   -1.7000   -0.1633 C.3       1 <0>        -0.1510
     28 C19        -7.6649   -0.8829   -0.1262 C.3       1 <0>        -0.0042
     29 N3         -8.8187   -1.7921   -0.1144 N.4       1 <0>        -0.3790
     30 C20        -8.8604   -2.5437   -1.3745 C.3       1 <0>        -0.0140
     31 C21       -10.0124   -3.5500   -1.3347 C.3       1 <0>        -0.1379
     32 C22       -11.3329   -2.7986   -1.1427 C.3       1 <0>         0.0240
     33 C23       -11.2504   -1.9600    0.1360 C.3       1 <0>        -0.1356
     34 C24       -10.0525   -1.0126    0.0417 C.3       1 <0>        -0.0191
     35 C25       -12.4633   -3.7883   -1.0242 C.ar      1 <0>        -0.0824
     36 C26       -12.1945   -5.1439   -0.9915 C.ar      1 <0>        -0.1183
     37 C27       -13.2313   -6.0516   -0.8828 C.ar      1 <0>        -0.1128
     38 C28       -14.5369   -5.6038   -0.8064 C.ar      1 <0>        -0.1118
     39 C29       -14.8056   -4.2482   -0.8382 C.ar      1 <0>        -0.1151
     40 C30       -13.7685   -3.3403   -0.9426 C.ar      1 <0>        -0.1050
     41 C31       -11.5745   -1.8943   -2.3237 C.ar      1 <0>        -0.0855
     42 C32       -11.5075   -2.4017   -3.6078 C.ar      1 <0>        -0.1060
     43 C33       -11.7291   -1.5721   -4.6912 C.ar      1 <0>        -0.1075
     44 C34       -12.0181   -0.2353   -4.4904 C.ar      1 <0>        -0.1124
     45 C35       -12.0860    0.2718   -3.2062 C.ar      1 <0>        -0.1117
     46 C36       -11.8687   -0.5586   -2.1227 C.ar      1 <0>        -0.1378
     47 H2          0.6170    1.0411   -0.2767 H         1 <0>         0.0588
     48 H3         -0.9460    1.0327   -1.1284 H         1 <0>         0.0779
     49 H4         -0.9018    1.0109    0.6509 H         1 <0>         0.0770
     50 H5          0.8069   -7.3537   -1.3250 H         1 <0>         0.0532
     51 H6          2.4394   -7.2301   -0.6264 H         1 <0>         0.0890
     52 H7          1.0211   -7.3530    0.4420 H         1 <0>         0.0517
     53 H8          2.4984   -3.8654   -1.2980 H         1 <0>         0.0822
     54 H9          3.0661   -2.5132   -0.2892 H         1 <0>         0.0671
     55 H10         2.4849   -4.0115    0.4759 H         1 <0>         0.0793
     56 H11        -0.9154   -2.5417    2.3065 H         1 <0>         0.1295
     57 H12        -2.0684   -3.3772    4.3152 H         1 <0>         0.1366
     58 H13        -4.0313   -4.8465    4.0866 H         1 <0>         0.1402
     59 H14        -3.6934   -4.6369   -0.1598 H         1 <0>         0.1388
     60 H15        -5.1846   -0.1362    0.7229 H         1 <0>         0.0662
     61 H16        -5.2211   -0.1131   -1.0566 H         1 <0>         0.0683
     62 H17        -6.3576   -2.3169   -1.0619 H         1 <0>         0.0987
     63 H18        -6.3212   -2.3400    0.7176 H         1 <0>         0.0912
     64 H19        -7.6792   -0.2660    0.7723 H         1 <0>         0.1336
     65 H20        -7.7157   -0.2429   -1.0071 H         1 <0>         0.1330
     66 H21        -9.0105   -1.8529   -2.2042 H         1 <0>         0.1305
     67 H22        -7.9187   -3.0753   -1.5113 H         1 <0>         0.1390
     68 H23       -10.0428   -4.1058   -2.2719 H         1 <0>         0.1178
     69 H24        -9.8632   -4.2415   -0.5054 H         1 <0>         0.1004
     70 H25       -12.1657   -1.3792    0.2501 H         1 <0>         0.1156
     71 H26       -11.1269   -2.6185    0.9958 H         1 <0>         0.0974
     72 H27        -9.9910   -0.4139    0.9505 H         1 <0>         0.1327
     73 H28       -10.1772   -0.3545   -0.8182 H         1 <0>         0.1380
     74 H29       -11.1744   -5.4937   -1.0511 H         1 <0>         0.1277
     75 H30       -13.0213   -7.1107   -0.8579 H         1 <0>         0.1271
     76 H31       -15.3470   -6.3131   -0.7222 H         1 <0>         0.1252
     77 H32       -15.8256   -3.8984   -0.7789 H         1 <0>         0.1244
     78 H33       -13.9781   -2.2810   -0.9637 H         1 <0>         0.1195
     79 H34       -11.2817   -3.4461   -3.7647 H         1 <0>         0.1246
     80 H35       -11.6761   -1.9684   -5.6945 H         1 <0>         0.1274
     81 H36       -12.1906    0.4129   -5.3368 H         1 <0>         0.1265
     82 H37       -12.3115    1.3163   -3.0494 H         1 <0>         0.1264
     83 H38       -11.9254   -0.1632   -1.1193 H         1 <0>         0.1264
     84 H39        -8.7296   -2.4369    0.6566 H         1 <0>         0.4228
@<TRIPOS>BOND
     1    1    2 1
     2    1   47 1
     3    1   48 1
     4    1   49 1
     5    2   12 1
     6    2    3 2
     7    3    4 1
     8    3   23 1
     9    4    5 1
    10    4    6 1
    11    4   14 1
    12    6    7 2
    13    6   11 1
    14    7    8 1
    15    7    9 1
    16    9   10 1
    17   10   50 1
    18   10   51 1
    19   10   52 1
    20   11   12 2
    21   11   13 1
    22   13   53 1
    23   13   54 1
    24   13   55 1
    25   14   19 ar
    26   14   15 ar
    27   15   16 ar
    28   15   56 1
    29   16   17 ar
    30   16   57 1
    31   17   18 ar
    32   17   58 1
    33   18   19 ar
    34   18   20 1
    35   19   59 1
    36   20   21 2
    37   20   22 1
    38   23   24 2
    39   23   25 1
    40   25   26 1
    41   26   27 1
    42   26   60 1
    43   26   61 1
    44   27   28 1
    45   27   62 1
    46   27   63 1
    47   28   29 1
    48   28   64 1
    49   28   65 1
    50   29   34 1
    51   29   30 1
    52   29   84 1
    53   30   31 1
    54   30   66 1
    55   30   67 1
    56   31   32 1
    57   31   68 1
    58   31   69 1
    59   32   33 1
    60   32   35 1
    61   32   41 1
    62   33   34 1
    63   33   70 1
    64   33   71 1
    65   34   72 1
    66   34   73 1
    67   35   40 ar
    68   35   36 ar
    69   36   37 ar
    70   36   74 1
    71   37   38 ar
    72   37   75 1
    73   38   39 ar
    74   38   76 1
    75   39   40 ar
    76   39   77 1
    77   40   78 1
    78   41   46 ar
    79   41   42 ar
    80   42   43 ar
    81   42   79 1
    82   43   44 ar
    83   43   80 1
    84   44   45 ar
    85   44   81 1
    86   45   46 ar
    87   45   82 1
    88   46   83 1
@<TRIPOS>MOLECULE
ZINC26384924
   85    89     0     0     0
SMALL
USER_CHARGES

@<TRIPOS>ATOM
      1 C1          0.0666    1.2900    1.6655 C.3       1 <0>        -0.1206
      2 C2         -0.0872   -0.0355    0.9652 C.2       1 <0>         0.2446
      3 C3         -0.0091   -0.0909   -0.3756 C.2       1 <0>        -0.2601
      4 C4         -0.1654   -1.3886   -1.1164 C.3       1 <0>         0.0893
      5 H1          0.5943   -1.4509   -1.8955 H         1 <0>         0.1006
      6 C5         -0.0133   -2.5558   -0.1827 C.2       1 <0>        -0.2453
      7 C6         -0.0912   -2.4017    1.1504 C.2       1 <0>         0.2009
      8 N1         -0.2990   -1.1686    1.7023 N.pl3     1 <0>        -0.6273
      9 C7          0.0583   -3.6026    2.0484 C.3       1 <0>        -0.1359
     10 C8          0.2163   -3.8445   -0.7179 C.2       1 <0>         0.5431
     11 O1          1.3363   -4.1675   -1.0672 O.2       1 <0>        -0.4830
     12 O2         -0.8066   -4.7160   -0.8412 O.3       1 <0>        -0.3473
     13 C9         -0.5024   -6.0000   -1.3897 C.3       1 <0>         0.0639
     14 C10        -1.7775   -6.8434   -1.4513 C.3       1 <0>        -0.1496
     15 C11        -1.4518   -8.2181   -2.0385 C.3       1 <0>        -0.0073
     16 N2         -2.6761   -9.0279   -2.0976 N.4       1 <0>        -0.3785
     17 C12        -3.1586   -9.2828   -0.7350 C.3       1 <0>        -0.0130
     18 C13        -4.4773  -10.0567   -0.7933 C.3       1 <0>        -0.1374
     19 C14        -4.2496  -11.3889   -1.5135 C.3       1 <0>         0.0258
     20 C15        -3.6764  -11.1134   -2.9065 C.3       1 <0>        -0.1366
     21 C16        -2.3873  -10.3003   -2.7700 C.3       1 <0>        -0.0200
     22 C17        -5.5600  -12.1218   -1.6436 C.ar      1 <0>        -0.0857
     23 C18        -6.7311  -11.5252   -1.2152 C.ar      1 <0>        -0.1211
     24 C19        -7.9331  -12.1975   -1.3346 C.ar      1 <0>        -0.1133
     25 C20        -7.9640  -13.4661   -1.8829 C.ar      1 <0>        -0.1092
     26 C21        -6.7930  -14.0622   -2.3122 C.ar      1 <0>        -0.1120
     27 C22        -5.5916  -13.3883   -2.1967 C.ar      1 <0>        -0.1043
     28 C23        -3.2772  -12.2281   -0.7253 C.ar      1 <0>        -0.0893
     29 C24        -3.4932  -12.4552    0.6210 C.ar      1 <0>        -0.1072
     30 C25        -2.6013  -13.2250    1.3440 C.ar      1 <0>        -0.1073
     31 C26        -1.4934  -13.7680    0.7205 C.ar      1 <0>        -0.1103
     32 C27        -1.2779  -13.5417   -0.6260 C.ar      1 <0>        -0.1102
     33 C28        -2.1722  -12.7755   -1.3500 C.ar      1 <0>        -0.1382
     34 C29        -1.5316   -1.4365   -1.7507 C.ar      1 <0>        -0.0727
     35 C30        -2.6636   -1.3545   -0.9612 C.ar      1 <0>        -0.0491
     36 C31        -3.9165   -1.3984   -1.5429 C.ar      1 <0>        -0.1161
     37 C32        -4.0379   -1.5238   -2.9144 C.ar      1 <0>        -0.0569
     38 C33        -2.9062   -1.6049   -3.7038 C.ar      1 <0>        -0.0469
     39 C34        -1.6528   -1.5567   -3.1222 C.ar      1 <0>        -0.0401
     40 N3         -3.0362   -1.7397   -5.1721 N.pl3     1 <0>         0.0318
     41 O3         -4.1322   -1.7789   -5.6809 O.2       1 <0>        -0.1574
     42 O4         -2.0463   -1.8106   -5.8625 O.3       1 <0>        -0.1552
     43 C35         0.2247    1.0980   -1.1047 C.2       1 <0>         0.5164
     44 O5          0.3529    2.1563   -0.5179 O.2       1 <0>        -0.5131
     45 O6          0.3057    1.0589   -2.4512 O.3       1 <0>        -0.3525
     46 C36         0.5436    2.2974   -3.1231 C.3       1 <0>         0.0355
     47 H2         -0.0198    1.1443    2.7423 H         1 <0>         0.0675
     48 H3          1.0442    1.7124    1.4333 H         1 <0>         0.1088
     49 H4         -0.7136    1.9722    1.3275 H         1 <0>         0.1054
     50 H5         -0.6023   -1.0974    2.6209 H         1 <0>         0.4266
     51 H6          1.1049   -3.7172    2.3307 H         1 <0>         0.0970
     52 H7         -0.5466   -3.4638    2.9445 H         1 <0>         0.0895
     53 H8         -0.2752   -4.4955    1.5197 H         1 <0>         0.0863
     54 H9         -0.0978   -5.8792   -2.3946 H         1 <0>         0.0800
     55 H10         0.2334   -6.4993   -0.7593 H         1 <0>         0.0797
     56 H11        -2.1821   -6.9641   -0.4464 H         1 <0>         0.0993
     57 H12        -2.5133   -6.3440   -2.0816 H         1 <0>         0.0989
     58 H13        -1.0472   -8.0973   -3.0434 H         1 <0>         0.1372
     59 H14        -0.7160   -8.7174   -1.4082 H         1 <0>         0.1348
     60 H15        -2.4176   -9.8688   -0.1914 H         1 <0>         0.1320
     61 H16        -3.3171   -8.3338   -0.2227 H         1 <0>         0.1342
     62 H17        -4.8330  -10.2466    0.2194 H         1 <0>         0.1178
     63 H18        -5.2192   -9.4714   -1.3365 H         1 <0>         0.0982
     64 H19        -3.4596  -12.0585   -3.4044 H         1 <0>         0.1182
     65 H20        -4.4016  -10.5500   -3.4937 H         1 <0>         0.0977
     66 H21        -1.9764  -10.1025   -3.7600 H         1 <0>         0.1352
     67 H22        -1.6628  -10.8646   -2.1830 H         1 <0>         0.1398
     68 H23        -6.7069  -10.5341   -0.7868 H         1 <0>         0.1240
     69 H24        -8.8479  -11.7317   -0.9992 H         1 <0>         0.1269
     70 H25        -8.9030  -13.9916   -1.9755 H         1 <0>         0.1273
     71 H26        -6.8171  -15.0535   -2.7402 H         1 <0>         0.1268
     72 H27        -4.6773  -13.8526   -2.5355 H         1 <0>         0.1204
     73 H28        -4.3588  -12.0309    1.1082 H         1 <0>         0.1235
     74 H29        -2.7697  -13.4018    2.3960 H         1 <0>         0.1281
     75 H30        -0.7962  -14.3688    1.2855 H         1 <0>         0.1281
     76 H31        -0.4122  -13.9657   -1.1131 H         1 <0>         0.1280
     77 H32        -2.0058  -12.6017   -2.4028 H         1 <0>         0.1265
     78 H33        -2.5688   -1.2565    0.1102 H         1 <0>         0.1325
     79 H34        -4.8008   -1.3351   -0.9261 H         1 <0>         0.1472
     80 H35        -5.0170   -1.5588   -3.3689 H         1 <0>         0.1531
     81 H36        -0.7685   -1.6163   -3.7394 H         1 <0>         0.1525
     82 H37         0.5861    2.1251   -4.1985 H         1 <0>         0.1027
     83 H38        -0.2644    2.9937   -2.8984 H         1 <0>         0.0604
     84 H39         1.4905    2.7183   -2.7848 H         1 <0>         0.0631
     85 H40        -3.3839   -8.5283   -2.6149 H         1 <0>         0.4228
@<TRIPOS>BOND
     1    1    2 1
     2    1   47 1
     3    1   48 1
     4    1   49 1
     5    2    8 1
     6    2    3 2
     7    3    4 1
     8    3   43 1
     9    4    5 1
    10    4    6 1
    11    4   34 1
    12    6    7 2
    13    6   10 1
    14    7    8 1
    15    7    9 1
    16    8   50 1
    17    9   51 1
    18    9   52 1
    19    9   53 1
    20   10   11 2
    21   10   12 1
    22   12   13 1
    23   13   14 1
    24   13   54 1
    25   13   55 1
    26   14   15 1
    27   14   56 1
    28   14   57 1
    29   15   16 1
    30   15   58 1
    31   15   59 1
    32   16   21 1
    33   16   17 1
    34   16   85 1
    35   17   18 1
    36   17   60 1
    37   17   61 1
    38   18   19 1
    39   18   62 1
    40   18   63 1
    41   19   20 1
    42   19   22 1
    43   19   28 1
    44   20   21 1
    45   20   64 1
    46   20   65 1
    47   21   66 1
    48   21   67 1
    49   22   27 ar
    50   22   23 ar
    51   23   24 ar
    52   23   68 1
    53   24   25 ar
    54   24   69 1
    55   25   26 ar
    56   25   70 1
    57   26   27 ar
    58   26   71 1
    59   27   72 1
    60   28   33 ar
    61   28   29 ar
    62   29   30 ar
    63   29   73 1
    64   30   31 ar
    65   30   74 1
    66   31   32 ar
    67   31   75 1
    68   32   33 ar
    69   32   76 1
    70   33   77 1
    71   34   39 ar
    72   34   35 ar
    73   35   36 ar
    74   35   78 1
    75   36   37 ar
    76   36   79 1
    77   37   38 ar
    78   37   80 1
    79   38   39 ar
    80   38   40 1
    81   39   81 1
    82   40   41 2
    83   40   42 1
    84   43   44 2
    85   43   45 1
    86   45   46 1
    87   46   82 1
    88   46   83 1
    89   46   84 1
@<TRIPOS>MOLECULE
ZINC26384924
   84    88     0     0     0
SMALL
USER_CHARGES

@<TRIPOS>ATOM
      1 C1         -0.0200    1.0054    0.4352 C.3       1 <0>        -0.0999
      2 C2          0.0723   -0.4971    0.3643 C.2       1 <0>         0.2940
      3 C3         -1.0808   -1.2232    0.2772 C.2       1 <0>        -0.3885
      4 C4         -0.9556   -2.7342    0.2068 C.3       1 <0>         0.1312
      5 H1         -1.5071   -3.1610    1.0445 H         1 <0>         0.0481
      6 C5          0.4597   -3.2835    0.2413 C.2       1 <0>        -0.3941
      7 C6          0.7070   -4.6375    0.1837 C.2       1 <0>         0.4746
      8 O1         -0.3179   -5.5118    0.2197 O.3       1 <0>        -0.6405
      9 O2          1.9738   -5.0878    0.0914 O.3       1 <0>        -0.3324
     10 C7          2.1565   -6.5039    0.0359 C.3       1 <0>         0.0371
     11 C8          1.4992   -2.3562    0.3335 C.2       1 <0>         0.2992
     12 N1          1.2690   -1.0640    0.3833 N.2       1 <0>        -0.6403
     13 C9          2.9224   -2.8503    0.3712 C.3       1 <0>        -0.1087
     14 C10        -1.6070   -3.2017   -1.0692 C.ar      1 <0>        -0.0283
     15 C11        -1.1348   -2.7561   -2.2899 C.ar      1 <0>        -0.0550
     16 C12        -1.7322   -3.1848   -3.4602 C.ar      1 <0>        -0.1264
     17 C13        -2.8017   -4.0597   -3.4102 C.ar      1 <0>        -0.0789
     18 C14        -3.2731   -4.5058   -2.1899 C.ar      1 <0>        -0.0612
     19 C15        -2.6727   -4.0803   -1.0194 C.ar      1 <0>        -0.0141
     20 N2         -4.4184   -5.4420   -2.1364 N.pl3     1 <0>         0.0450
     21 O3         -4.9415   -5.8164   -3.1600 O.2       1 <0>        -0.1820
     22 O4         -4.8307   -5.8322   -1.0690 O.3       1 <0>        -0.1749
     23 C16        -2.3379   -0.5943    0.2541 C.2       1 <0>         0.5279
     24 O5         -2.4126    0.6199    0.3122 O.2       1 <0>        -0.5544
     25 O6         -3.4630   -1.3367    0.1674 O.3       1 <0>        -0.3569
     26 C17        -4.7057   -0.6316    0.1487 C.3       1 <0>         0.0758
     27 C18        -5.8585   -1.6325    0.0478 C.3       1 <0>        -0.1509
     28 C19        -7.1891   -0.8775    0.0278 C.3       1 <0>        -0.0042
     29 N3         -8.2960   -1.8385   -0.0691 N.4       1 <0>        -0.3789
     30 C20        -8.3289   -2.6683    1.1411 C.3       1 <0>        -0.0141
     31 C21        -9.4286   -3.7243    1.0104 C.3       1 <0>        -0.1379
     32 C22       -10.7800   -3.0265    0.8311 C.3       1 <0>         0.0240
     33 C23       -10.7102   -2.1067   -0.3913 C.3       1 <0>        -0.1356
     34 C24        -9.5630   -1.1107   -0.2086 C.3       1 <0>        -0.0189
     35 C25       -11.0924   -2.2103    2.0588 C.ar      1 <0>        -0.0856
     36 C26       -11.4521   -0.8815    1.9322 C.ar      1 <0>        -0.1377
     37 C27       -11.7387   -0.1328    3.0583 C.ar      1 <0>        -0.1116
     38 C28       -11.6661   -0.7129    4.3110 C.ar      1 <0>        -0.1124
     39 C29       -11.3073   -2.0419    4.4374 C.ar      1 <0>        -0.1075
     40 C30       -11.0249   -2.7918    3.3110 C.ar      1 <0>        -0.1060
     41 C31       -11.8570   -4.0598    0.6234 C.ar      1 <0>        -0.0825
     42 C32       -11.5218   -5.3973    0.5240 C.ar      1 <0>        -0.1182
     43 C33       -12.5098   -6.3451    0.3336 C.ar      1 <0>        -0.1128
     44 C34       -13.8331   -5.9556    0.2429 C.ar      1 <0>        -0.1117
     45 C35       -14.1684   -4.6183    0.3433 C.ar      1 <0>        -0.1152
     46 C36       -13.1808   -3.6709    0.5380 C.ar      1 <0>        -0.1050
     47 H2          0.9826    1.4286    0.4957 H         1 <0>         0.0588
     48 H3         -0.5198    1.3812   -0.4576 H         1 <0>         0.0772
     49 H4         -0.5897    1.2931    1.3188 H         1 <0>         0.0776
     50 H5          1.6395   -6.9030   -0.8368 H         1 <0>         0.0512
     51 H6          3.2202   -6.7304   -0.0369 H         1 <0>         0.0891
     52 H7          1.7492   -6.9586    0.9389 H         1 <0>         0.0536
     53 H8          3.1625   -3.3389   -0.5731 H         1 <0>         0.0811
     54 H9          3.5958   -2.0072    0.5255 H         1 <0>         0.0671
     55 H10         3.0383   -3.5623    1.1884 H         1 <0>         0.0803
     56 H11        -0.2994   -2.0727   -2.3289 H         1 <0>         0.1309
     57 H12        -1.3639   -2.8362   -4.4137 H         1 <0>         0.1375
     58 H13        -3.2689   -4.3941   -4.3246 H         1 <0>         0.1410
     59 H14        -3.0387   -4.4318   -0.0661 H         1 <0>         0.1412
     60 H15        -4.8079   -0.0510    1.0656 H         1 <0>         0.0683
     61 H16        -4.7303    0.0388   -0.7104 H         1 <0>         0.0661
     62 H17        -5.7564   -2.2130   -0.8691 H         1 <0>         0.0910
     63 H18        -5.8340   -2.3028    0.9069 H         1 <0>         0.0989
     64 H19        -7.2913   -0.2969    0.9447 H         1 <0>         0.1330
     65 H20        -7.2137   -0.2072   -0.8313 H         1 <0>         0.1336
     66 H21        -7.3654   -3.1618    1.2691 H         1 <0>         0.1391
     67 H22        -8.5315   -2.0387    2.0075 H         1 <0>         0.1306
     68 H23        -9.2268   -4.3547    0.1444 H         1 <0>         0.1004
     69 H24        -9.4526   -4.3382    1.9107 H         1 <0>         0.1179
     70 H25       -10.5350   -2.7036   -1.2864 H         1 <0>         0.0974
     71 H26       -11.6503   -1.5645   -0.4929 H         1 <0>         0.1156
     72 H27        -9.7394   -0.5143    0.6865 H         1 <0>         0.1379
     73 H28        -9.5107   -0.4542   -1.0771 H         1 <0>         0.1327
     74 H29       -11.5088   -0.4283    0.9536 H         1 <0>         0.1263
     75 H30       -12.0190    0.9055    2.9595 H         1 <0>         0.1264
     76 H31       -11.8893   -0.1278    5.1908 H         1 <0>         0.1265
     77 H32       -11.2503   -2.4950    5.4161 H         1 <0>         0.1274
     78 H33       -10.7482   -3.8311    3.4096 H         1 <0>         0.1246
     79 H34       -10.4880   -5.7015    0.5948 H         1 <0>         0.1277
     80 H35       -12.2479   -7.3899    0.2552 H         1 <0>         0.1271
     81 H36       -14.6049   -6.6961    0.0934 H         1 <0>         0.1252
     82 H37       -15.2022   -4.3140    0.2721 H         1 <0>         0.1244
     83 H38       -13.4431   -2.6264    0.6201 H         1 <0>         0.1195
     84 H39        -8.1578   -2.4288   -0.8756 H         1 <0>         0.4228
@<TRIPOS>BOND
     1    1    2 1
     2    1   47 1
     3    1   48 1
     4    1   49 1
     5    2   12 1
     6    2    3 2
     7    3    4 1
     8    3   23 1
     9    4    5 1
    10    4    6 1
    11    4   14 1
    12    6    7 2
    13    6   11 1
    14    7    8 1
    15    7    9 1
    16    9   10 1
    17   10   50 1
    18   10   51 1
    19   10   52 1
    20   11   12 2
    21   11   13 1
    22   13   53 1
    23   13   54 1
    24   13   55 1
    25   14   19 ar
    26   14   15 ar
    27   15   16 ar
    28   15   56 1
    29   16   17 ar
    30   16   57 1
    31   17   18 ar
    32   17   58 1
    33   18   19 ar
    34   18   20 1
    35   19   59 1
    36   20   21 2
    37   20   22 1
    38   23   24 2
    39   23   25 1
    40   25   26 1
    41   26   27 1
    42   26   60 1
    43   26   61 1
    44   27   28 1
    45   27   62 1
    46   27   63 1
    47   28   29 1
    48   28   64 1
    49   28   65 1
    50   29   34 1
    51   29   30 1
    52   29   84 1
    53   30   31 1
    54   30   66 1
    55   30   67 1
    56   31   32 1
    57   31   68 1
    58   31   69 1
    59   32   33 1
    60   32   35 1
    61   32   41 1
    62   33   34 1
    63   33   70 1
    64   33   71 1
    65   34   72 1
    66   34   73 1
    67   35   40 ar
    68   35   36 ar
    69   36   37 ar
    70   36   74 1
    71   37   38 ar
    72   37   75 1
    73   38   39 ar
    74   38   76 1
    75   39   40 ar
    76   39   77 1
    77   40   78 1
    78   41   46 ar
    79   41   42 ar
    80   42   43 ar
    81   42   79 1
    82   43   44 ar
    83   43   80 1
    84   44   45 ar
    85   44   81 1
    86   45   46 ar
    87   45   82 1
    88   46   83 1
@<TRIPOS>MOLECULE
ZINC00039089
   27    27     0     0     0
SMALL
USER_CHARGES

@<TRIPOS>ATOM
      1 C1         -0.0178    1.4648    0.0101 C.3       1 <0>        -0.0480
      2 N1          0.0021   -0.0041    0.0020 N.4       1 <0>        -0.5055
      3 C2          0.7126   -0.4907    1.1921 C.3       1 <0>        -0.0449
      4 C3          0.7333   -2.0205    1.1837 C.3       1 <0>         0.1366
      5 H1          1.2435   -2.3721    0.2869 H         1 <0>         0.1333
      6 C4          1.4622   -2.5197    2.4046 C.ar      1 <0>        -0.1383
      7 C5          0.7829   -2.6724    3.5990 C.ar      1 <0>        -0.0980
      8 C6          1.4470   -3.1300    4.7218 C.ar      1 <0>        -0.1235
      9 C7          2.7964   -3.4372    4.6515 C.ar      1 <0>         0.1051
     10 C8          3.4799   -3.2840    3.4492 C.ar      1 <0>         0.0898
     11 C9          2.8072   -2.8295    2.3263 C.ar      1 <0>        -0.1136
     12 O1          4.8043   -3.5842    3.3751 O.3       1 <0>        -0.4846
     13 O2          3.4513   -3.8871    5.7552 O.3       1 <0>        -0.4850
     14 O3         -0.6073   -2.5152    1.1939 O.3       1 <0>        -0.5473
     15 H2          1.0047    1.8421    0.0024 H         1 <0>         0.1243
     16 H3         -0.5450    1.8259   -0.8730 H         1 <0>         0.1289
     17 H4         -0.5280    1.8163    0.9069 H         1 <0>         0.1236
     18 H5         -0.9445   -0.3533    0.0092 H         1 <0>         0.4339
     19 H6          1.7352   -0.1134    1.1844 H         1 <0>         0.1453
     20 H7          0.2024   -0.1392    2.0889 H         1 <0>         0.1376
     21 H8         -0.2688   -2.4333    3.6552 H         1 <0>         0.1307
     22 H9          0.9143   -3.2477    5.6539 H         1 <0>         0.1435
     23 H10         3.3345   -2.7132    1.3910 H         1 <0>         0.1388
     24 H11         4.9865   -4.5027    3.1336 H         1 <0>         0.3971
     25 H12         3.4399   -4.8489    5.8546 H         1 <0>         0.3991
     26 H13        -1.1219   -2.2410    1.9653 H         1 <0>         0.3892
     27 H14         0.4744   -0.3295   -0.8281 H         1 <0>         0.4317
@<TRIPOS>BOND
     1    1    2 1
     2    1   15 1
     3    1   16 1
     4    1   17 1
     5    2    3 1
     6    2   18 1
     7    2   27 1
     8    3    4 1
     9    3   19 1
    10    3   20 1
    11    4    5 1
    12    4    6 1
    13    4   14 1
    14    6   11 ar
    15    6    7 ar
    16    7    8 ar
    17    7   21 1
    18    8    9 ar
    19    8   22 1
    20    9   10 ar
    21    9   13 1
    22   10   11 ar
    23   10   12 1
    24   11   23 1
    25   12   24 1
    26   13   25 1
    27   14   26 1
@<TRIPOS>MOLECULE
ZINC21763183
   51    54     0     0     0
SMALL
USER_CHARGES

@<TRIPOS>ATOM
      1 C1         -0.0167    1.3780    0.0096 C.ar      1 <0>        -0.1190
      2 C2          1.1736    2.0822    0.0020 C.ar      1 <0>        -0.0831
      3 C3          2.3771    1.4104   -0.0135 C.ar      1 <0>        -0.1597
      4 C4          2.4042    0.0143   -0.0217 C.ar      1 <0>         0.1063
      5 C5          1.2062   -0.6818   -0.0136 C.ar      1 <0>        -0.1109
      6 C6          0.0021   -0.0041    0.0020 C.ar      1 <0>        -0.0673
      7 C7          1.5102   -2.1630   -0.0246 C.3       1 <0>        -0.0948
      8 C8          3.0455   -2.2430   -0.0403 C.3       1 <0>         0.1064
      9 N1          3.5027   -0.8508   -0.0373 N.am      1 <0>        -0.5256
     10 C9          4.7929   -0.4612   -0.0488 C.2       1 <0>         0.5123
     11 O1          5.6769   -1.2914   -0.0624 O.2       1 <0>        -0.5110
     12 C10         5.1370    1.0060   -0.0446 C.3       1 <0>        -0.0343
     13 N2          6.5972    1.1665   -0.0590 N.4       1 <0>        -0.3749
     14 C11         7.1607    0.6299    1.1868 C.3       1 <0>        -0.0135
     15 C12         8.6835    0.7797    1.1641 C.3       1 <0>         0.0309
     16 N3          9.0310    2.2006    1.0211 N.3       1 <0>        -0.5348
     17 C13         8.4524    2.7581   -0.2096 C.3       1 <0>         0.0207
     18 C14         6.9316    2.5920   -0.1756 C.3       1 <0>        -0.0026
     19 C15        10.4871    2.3922    1.0521 C.3       1 <0>         0.0968
     20 C16        10.7982    3.8634    1.1506 C.ar      1 <0>        -0.0921
     21 C17        10.9506    4.6159    0.0010 C.ar      1 <0>        -0.1062
     22 C18        11.2359    5.9653    0.0907 C.ar      1 <0>        -0.1090
     23 C19        11.3691    6.5629    1.3313 C.ar      1 <0>        -0.0273
     24 C20        11.2164    5.8093    2.4815 C.ar      1 <0>        -0.1076
     25 C21        10.9255    4.4612    2.3906 C.ar      1 <0>        -0.0811
     26 Cl1        11.7280    8.2576    1.4448 Cl        1 <0>        -0.0568
     27 H1         -0.9583    1.9066    0.0259 H         1 <0>         0.1385
     28 H2          1.1601    3.1621    0.0080 H         1 <0>         0.1382
     29 H3          3.3031    1.9662   -0.0197 H         1 <0>         0.1219
     30 H4         -0.9265   -0.5555    0.0079 H         1 <0>         0.1371
     31 H5          1.1139   -2.6392    0.8722 H         1 <0>         0.1032
     32 H6          1.0961   -2.6295   -0.9184 H         1 <0>         0.1030
     33 H7          3.4062   -2.7613    0.8481 H         1 <0>         0.0958
     34 H8          3.3884   -2.7517   -0.9412 H         1 <0>         0.0956
     35 H9          4.7105    1.4818   -0.9276 H         1 <0>         0.1660
     36 H10         4.7291    1.4723    0.8522 H         1 <0>         0.1663
     37 H11         6.7542    1.1794    2.0358 H         1 <0>         0.1356
     38 H12         6.9008   -0.4247    1.2785 H         1 <0>         0.1507
     39 H13         9.1007    0.3952    2.0948 H         1 <0>         0.1260
     40 H14         9.0916    0.2191    0.3231 H         1 <0>         0.0642
     41 H15         8.7011    3.8170   -0.2812 H         1 <0>         0.1290
     42 H16         8.8568    2.2301   -1.0732 H         1 <0>         0.0635
     43 H17         6.5018    2.9920   -1.0940 H         1 <0>         0.1383
     44 H18         6.5262    3.1315    0.6803 H         1 <0>         0.1413
     45 H19        10.9034    1.8741    1.9160 H         1 <0>         0.1001
     46 H20        10.9262    1.9883    0.1399 H         1 <0>         0.0591
     47 H21        10.8470    4.1492   -0.9675 H         1 <0>         0.1281
     48 H22        11.3553    6.5530   -0.8075 H         1 <0>         0.1369
     49 H23        11.3205    6.2752    3.4503 H         1 <0>         0.1381
     50 H24        10.8016    3.8738    3.2884 H         1 <0>         0.1344
     51 H25         6.9826    0.6653   -0.8453 H         1 <0>         0.4272
@<TRIPOS>BOND
     1    1    6 ar
     2    1    2 ar
     3    1   27 1
     4    2    3 ar
     5    2   28 1
     6    3    4 ar
     7    3   29 1
     8    4    9 1
     9    4    5 ar
    10    5    6 ar
    11    5    7 1
    12    6   30 1
    13    7    8 1
    14    7   31 1
    15    7   32 1
    16    8    9 1
    17    8   33 1
    18    8   34 1
    19    9   10 am
    20   10   11 2
    21   10   12 1
    22   12   13 1
    23   12   35 1
    24   12   36 1
    25   13   18 1
    26   13   14 1
    27   13   51 1
    28   14   15 1
    29   14   37 1
    30   14   38 1
    31   15   16 1
    32   15   39 1
    33   15   40 1
    34   16   17 1
    35   16   19 1
    36   17   18 1
    37   17   41 1
    38   17   42 1
    39   18   43 1
    40   18   44 1
    41   19   20 1
    42   19   45 1
    43   19   46 1
    44   20   25 ar
    45   20   21 ar
    46   21   22 ar
    47   21   47 1
    48   22   23 ar
    49   22   48 1
    50   23   24 ar
    51   23   26 1
    52   24   25 ar
    53   24   49 1
    54   25   50 1
@<TRIPOS>MOLECULE
ZINC21763183
   50    53     0     0     0
SMALL
USER_CHARGES

@<TRIPOS>ATOM
      1 C1         -0.0167    1.3780    0.0096 C.ar      1 <0>        -0.1406
      2 C2          1.1736    2.0822    0.0020 C.ar      1 <0>        -0.0844
      3 C3          2.3771    1.4104   -0.0135 C.ar      1 <0>        -0.1631
      4 C4          2.4042    0.0143   -0.0217 C.ar      1 <0>         0.1429
      5 C5          1.2062   -0.6818   -0.0136 C.ar      1 <0>        -0.1340
      6 C6          0.0021   -0.0041    0.0020 C.ar      1 <0>        -0.0716
      7 C7          1.5102   -2.1630   -0.0246 C.3       1 <0>        -0.0880
      8 C8          3.0455   -2.2430   -0.0403 C.3       1 <0>         0.1075
      9 N1          3.5027   -0.8508   -0.0373 N.am      1 <0>        -0.5551
     10 C9          4.7929   -0.4612   -0.0488 C.2       1 <0>         0.5265
     11 O1          5.6769   -1.2914   -0.0624 O.2       1 <0>        -0.4966
     12 C10         5.1370    1.0060   -0.0446 C.3       1 <0>         0.0351
     13 N2          6.5972    1.1665   -0.0590 N.3       1 <0>        -0.5248
     14 C11         7.1942    0.6670    1.1875 C.3       1 <0>         0.0521
     15 C12         8.7182    0.7785    1.1005 C.3       1 <0>         0.0607
     16 N3          9.0916    2.1803    0.8658 N.3       1 <0>        -0.5352
     17 C13         8.4946    2.6797   -0.3807 C.3       1 <0>         0.0542
     18 C14         6.9706    2.5683   -0.2937 C.3       1 <0>         0.0581
     19 C15        10.5517    2.3408    0.8513 C.3       1 <0>         0.0924
     20 C16        10.8959    3.8079    0.8555 C.ar      1 <0>        -0.0734
     21 C17        11.0356    4.4883   -0.3397 C.ar      1 <0>        -0.1025
     22 C18        11.3512    5.8339   -0.3365 C.ar      1 <0>        -0.1105
     23 C19        11.5274    6.5000    0.8632 C.ar      1 <0>        -0.0343
     24 C20        11.3874    5.8186    2.0591 C.ar      1 <0>        -0.1106
     25 C21        11.0662    4.4743    2.0547 C.ar      1 <0>        -0.0854
     26 Cl1        11.9244    8.1900    0.8680 Cl        1 <0>        -0.0705
     27 H1         -0.9583    1.9066    0.0259 H         1 <0>         0.1292
     28 H2          1.1601    3.1621    0.0080 H         1 <0>         0.1307
     29 H3          3.3031    1.9662   -0.0197 H         1 <0>         0.1321
     30 H4         -0.9265   -0.5555    0.0079 H         1 <0>         0.1278
     31 H5          1.1139   -2.6392    0.8722 H         1 <0>         0.0933
     32 H6          1.0961   -2.6295   -0.9184 H         1 <0>         0.0935
     33 H7          3.4062   -2.7613    0.8481 H         1 <0>         0.0841
     34 H8          3.3884   -2.7517   -0.9412 H         1 <0>         0.0848
     35 H9          4.7105    1.4818   -0.9276 H         1 <0>         0.1124
     36 H10         4.7291    1.4723    0.8522 H         1 <0>         0.0738
     37 H11         6.8335    1.2612    2.0271 H         1 <0>         0.0402
     38 H12         6.9136   -0.3762    1.3326 H         1 <0>         0.0963
     39 H13         9.1618    0.4356    2.0352 H         1 <0>         0.0818
     40 H14         9.0814    0.1627    0.2777 H         1 <0>         0.0473
     41 H15         8.7752    3.7229   -0.5259 H         1 <0>         0.0858
     42 H16         8.8553    2.0856   -1.2203 H         1 <0>         0.0453
     43 H17         6.5269    2.9112   -1.2284 H         1 <0>         0.0822
     44 H18         6.6073    3.1840    0.5291 H         1 <0>         0.0465
     45 H19        10.9783    1.8650    1.7344 H         1 <0>         0.0873
     46 H20        10.9597    1.8745   -0.0454 H         1 <0>         0.0483
     47 H21        10.8984    3.9681   -1.2762 H         1 <0>         0.1291
     48 H22        11.4607    6.3652   -1.2704 H         1 <0>         0.1333
     49 H23        11.5251    6.3379    2.9960 H         1 <0>         0.1335
     50 H24        10.9523    3.9433    2.9883 H         1 <0>         0.1325
@<TRIPOS>BOND
     1    1    6 ar
     2    1    2 ar
     3    1   27 1
     4    2    3 ar
     5    2   28 1
     6    3    4 ar
     7    3   29 1
     8    4    9 1
     9    4    5 ar
    10    5    6 ar
    11    5    7 1
    12    6   30 1
    13    7    8 1
    14    7   31 1
    15    7   32 1
    16    8    9 1
    17    8   33 1
    18    8   34 1
    19    9   10 am
    20   10   11 2
    21   10   12 1
    22   12   13 1
    23   12   35 1
    24   12   36 1
    25   13   18 1
    26   13   14 1
    27   14   15 1
    28   14   37 1
    29   14   38 1
    30   15   16 1
    31   15   39 1
    32   15   40 1
    33   16   17 1
    34   16   19 1
    35   17   18 1
    36   17   41 1
    37   17   42 1
    38   18   43 1
    39   18   44 1
    40   19   20 1
    41   19   45 1
    42   19   46 1
    43   20   25 ar
    44   20   21 ar
    45   21   22 ar
    46   21   47 1
    47   22   23 ar
    48   22   48 1
    49   23   24 ar
    50   23   26 1
    51   24   25 ar
    52   24   49 1
    53   25   50 1
@<TRIPOS>MOLECULE
ZINC21763183
   51    54     0     0     0
SMALL
USER_CHARGES

@<TRIPOS>ATOM
      1 C1         -0.0167    1.3780    0.0096 C.ar      1 <0>        -0.1317
      2 C2          1.1736    2.0822    0.0020 C.ar      1 <0>        -0.0857
      3 C3          2.3771    1.4104   -0.0135 C.ar      1 <0>        -0.1631
      4 C4          2.4042    0.0143   -0.0217 C.ar      1 <0>         0.1295
      5 C5          1.2062   -0.6818   -0.0136 C.ar      1 <0>        -0.1249
      6 C6          0.0021   -0.0041    0.0020 C.ar      1 <0>        -0.0690
      7 C7          1.5102   -2.1630   -0.0246 C.3       1 <0>        -0.0919
      8 C8          3.0455   -2.2430   -0.0403 C.3       1 <0>         0.1078
      9 N1          3.5027   -0.8508   -0.0373 N.am      1 <0>        -0.5477
     10 C9          4.7929   -0.4612   -0.0488 C.2       1 <0>         0.5261
     11 O1          5.6769   -1.2914   -0.0624 O.2       1 <0>        -0.5050
     12 C10         5.1370    1.0060   -0.0446 C.3       1 <0>         0.0328
     13 N2          6.5972    1.1665   -0.0590 N.3       1 <0>        -0.5241
     14 C11         7.1940    0.6691    1.1886 C.3       1 <0>         0.0186
     15 C12         8.7167    0.7990    1.1093 C.3       1 <0>         0.0015
     16 N3          9.0779    2.2074    0.9009 N.4       1 <0>        -0.3863
     17 C13         8.4952    2.6827   -0.3608 C.3       1 <0>        -0.0059
     18 C14         6.9706    2.5684   -0.2937 C.3       1 <0>         0.0278
     19 C15        10.5403    2.3342    0.8429 C.3       1 <0>         0.0454
     20 C16        10.9151    3.7910    0.7524 C.ar      1 <0>        -0.1600
     21 C17        11.0395    4.3970   -0.4839 C.ar      1 <0>        -0.0832
     22 C18        11.3832    5.7331   -0.5675 C.ar      1 <0>        -0.1064
     23 C19        11.6027    6.4641    0.5864 C.ar      1 <0>        -0.0069
     24 C20        11.4781    5.8571    1.8234 C.ar      1 <0>        -0.1061
     25 C21        11.1288    4.5224    1.9059 C.ar      1 <0>        -0.0794
     26 Cl1        12.0350    8.1422    0.4822 Cl        1 <0>        -0.0373
     27 H1         -0.9583    1.9066    0.0259 H         1 <0>         0.1333
     28 H2          1.1601    3.1621    0.0080 H         1 <0>         0.1324
     29 H3          3.3031    1.9662   -0.0197 H         1 <0>         0.1262
     30 H4         -0.9265   -0.5555    0.0079 H         1 <0>         0.1322
     31 H5          1.1139   -2.6392    0.8722 H         1 <0>         0.0972
     32 H6          1.0961   -2.6295   -0.9184 H         1 <0>         0.0978
     33 H7          3.4062   -2.7613    0.8481 H         1 <0>         0.0871
     34 H8          3.3884   -2.7517   -0.9412 H         1 <0>         0.0883
     35 H9          4.7105    1.4818   -0.9276 H         1 <0>         0.1252
     36 H10         4.7291    1.4723    0.8522 H         1 <0>         0.0850
     37 H11         6.8223    1.2557    2.0287 H         1 <0>         0.0585
     38 H12         6.9252   -0.3779    1.3283 H         1 <0>         0.1387
     39 H13         9.1606    0.4439    2.0393 H         1 <0>         0.1377
     40 H14         9.0895    0.2015    0.2774 H         1 <0>         0.1416
     41 H15         8.7748    3.7240   -0.5207 H         1 <0>         0.1369
     42 H16         8.8691    2.0754   -1.1852 H         1 <0>         0.1403
     43 H17         6.5388    2.9071   -1.2355 H         1 <0>         0.1259
     44 H18         6.5952    3.1863    0.5220 H         1 <0>         0.0633
     45 H19        10.9785    1.9015    1.7423 H         1 <0>         0.1403
     46 H20        10.9162    1.8072   -0.0341 H         1 <0>         0.1398
     47 H21        10.8684    3.8261   -1.3846 H         1 <0>         0.1419
     48 H22        11.4807    6.2063   -1.5334 H         1 <0>         0.1476
     49 H23        11.6497    6.4272    2.7245 H         1 <0>         0.1472
     50 H24        11.0268    4.0497    2.8716 H         1 <0>         0.1412
     51 H25         8.7227    2.7622    1.6652 H         1 <0>         0.4195
@<TRIPOS>BOND
     1    1    6 ar
     2    1    2 ar
     3    1   27 1
     4    2    3 ar
     5    2   28 1
     6    3    4 ar
     7    3   29 1
     8    4    9 1
     9    4    5 ar
    10    5    6 ar
    11    5    7 1
    12    6   30 1
    13    7    8 1
    14    7   31 1
    15    7   32 1
    16    8    9 1
    17    8   33 1
    18    8   34 1
    19    9   10 am
    20   10   11 2
    21   10   12 1
    22   12   13 1
    23   12   35 1
    24   12   36 1
    25   13   18 1
    26   13   14 1
    27   14   15 1
    28   14   37 1
    29   14   38 1
    30   15   16 1
    31   15   39 1
    32   15   40 1
    33   16   17 1
    34   16   19 1
    35   16   51 1
    36   17   18 1
    37   17   41 1
    38   17   42 1
    39   18   43 1
    40   18   44 1
    41   19   20 1
    42   19   45 1
    43   19   46 1
    44   20   25 ar
    45   20   21 ar
    46   21   22 ar
    47   21   47 1
    48   22   23 ar
    49   22   48 1
    50   23   24 ar
    51   23   26 1
    52   24   25 ar
    53   24   49 1
    54   25   50 1
@<TRIPOS>MOLECULE
ZINC01530611
   43    45     0     0     0
SMALL
USER_CHARGES

@<TRIPOS>ATOM
      1 C1         -5.6811    1.3607   -0.3895 C.3       1 <0>        -0.0475
      2 N1         -5.6577   -0.0983   -0.2206 N.4       1 <0>        -0.5096
      3 C2         -4.2653   -0.5656   -0.1914 C.3       1 <0>        -0.0084
      4 C3         -4.2409   -2.0853   -0.0155 C.3       1 <0>        -0.1794
      5 C4         -2.7907   -2.5720    0.0149 C.3       1 <0>         0.1487
      6 N2         -2.7680   -4.0325    0.1272 N.pl3     1 <0>        -0.6107
      7 C5         -2.6913   -4.8424   -1.0108 C.ar      1 <0>         0.1751
      8 C6         -1.6220   -4.6466   -1.8788 C.ar      1 <0>        -0.1410
      9 C7         -1.4736   -5.4397   -2.9971 C.ar      1 <0>        -0.1023
     10 C8         -2.4002   -6.4363   -3.2444 C.ar      1 <0>        -0.1264
     11 C9         -3.4660   -6.6200   -2.3938 C.ar      1 <0>        -0.1102
     12 C10        -3.6460   -5.8156   -1.2664 C.ar      1 <0>        -0.0994
     13 C11        -4.9119   -6.0915   -0.4880 C.3       1 <0>        -0.0689
     14 C12        -5.1138   -5.1475    0.6844 C.3       1 <0>        -0.0774
     15 C13        -4.0023   -5.2798    1.6948 C.ar      1 <0>        -0.0996
     16 C14        -2.8165   -4.6605    1.3756 C.ar      1 <0>         0.1518
     17 C15        -1.7436   -4.6795    2.2507 C.ar      1 <0>        -0.1184
     18 C16        -1.8773   -5.3599    3.4502 C.ar      1 <0>        -0.1095
     19 C17        -3.0600   -6.0057    3.7614 C.ar      1 <0>        -0.1164
     20 C18        -4.1454   -5.9689    2.8764 C.ar      1 <0>        -0.1028
     21 H1         -6.7143    1.7075   -0.4111 H         1 <0>         0.1266
     22 H2         -5.1573    1.8313    0.4426 H         1 <0>         0.1238
     23 H3         -5.1891    1.6261   -1.3252 H         1 <0>         0.1238
     24 H4         -6.1131   -0.3440    0.6456 H         1 <0>         0.4303
     25 H5         -3.7733   -0.3002   -1.1272 H         1 <0>         0.1329
     26 H6         -3.7415   -0.0951    0.6406 H         1 <0>         0.1330
     27 H7         -4.7329   -2.3506    0.9203 H         1 <0>         0.0915
     28 H8         -4.7647   -2.5558   -0.8475 H         1 <0>         0.0913
     29 H9         -2.2869   -2.2703   -0.9034 H         1 <0>         0.0828
     30 H10        -2.2782   -2.1337    0.8713 H         1 <0>         0.0803
     31 H11        -0.9026   -3.8672   -1.6754 H         1 <0>         0.1215
     32 H12        -0.6444   -5.2844   -3.6715 H         1 <0>         0.1277
     33 H13        -2.2869   -7.0730   -4.1093 H         1 <0>         0.1251
     34 H14        -4.1790   -7.4039   -2.6024 H         1 <0>         0.1223
     35 H15        -5.7638   -5.9997   -1.1617 H         1 <0>         0.0796
     36 H16        -4.8754   -7.1138   -0.1117 H         1 <0>         0.0764
     37 H17        -5.1407   -4.1220    0.3160 H         1 <0>         0.0728
     38 H18        -6.0638   -5.3767    1.1673 H         1 <0>         0.0709
     39 H19        -0.8216   -4.1746    2.0032 H         1 <0>         0.1257
     40 H20        -1.0526   -5.3858    4.1470 H         1 <0>         0.1276
     41 H21        -3.1485   -6.5434    4.6939 H         1 <0>         0.1270
     42 H22        -5.0720   -6.4709    3.1123 H         1 <0>         0.1291
     43 H23        -6.1426   -0.5339   -0.9908 H         1 <0>         0.4303
@<TRIPOS>BOND
     1    1    2 1
     2    1   21 1
     3    1   22 1
     4    1   23 1
     5    2    3 1
     6    2   24 1
     7    2   43 1
     8    3    4 1
     9    3   25 1
    10    3   26 1
    11    4    5 1
    12    4   27 1
    13    4   28 1
    14    5    6 1
    15    5   29 1
    16    5   30 1
    17    6   16 1
    18    6    7 1
    19    7   12 ar
    20    7    8 ar
    21    8    9 ar
    22    8   31 1
    23    9   10 ar
    24    9   32 1
    25   10   11 ar
    26   10   33 1
    27   11   12 ar
    28   11   34 1
    29   12   13 1
    30   13   14 1
    31   13   35 1
    32   13   36 1
    33   14   15 1
    34   14   37 1
    35   14   38 1
    36   15   20 ar
    37   15   16 ar
    38   16   17 ar
    39   17   18 ar
    40   17   39 1
    41   18   19 ar
    42   18   40 1
    43   19   20 ar
    44   19   41 1
    45   20   42 1
