@<TRIPOS>MOLECULE
ZINC08581203
   34    36     0     0     0
SMALL
USER_CHARGES
8-benzyl-1,3-dimethyl-9H-purine-2,6-dione
@<TRIPOS>ATOM
      1 C1          3.9297    7.5406   -4.0293 C.3       1 <0>         0.0757
      2 N1          3.8489    6.0987   -4.2754 N.am      1 <0>        -0.5181
      3 C2          3.4808    5.2543   -3.2533 C.2       1 <0>         0.2737
      4 C3          3.4071    3.8880   -3.4966 C.2       1 <0>        -0.0922
      5 C4          3.7274    3.4039   -4.8405 C.2       1 <0>         0.5947
      6 O1          3.6768    2.2162   -5.1027 O.2       1 <0>        -0.4805
      7 N2          4.0798    4.3049   -5.7829 N.am      1 <0>        -0.5547
      8 C5          4.1362    5.6163   -5.4973 C.2       1 <0>         0.7144
      9 O2          4.4584    6.3945   -6.3744 O.2       1 <0>        -0.5289
     10 C6          4.4055    3.8455   -7.1354 C.3       1 <0>         0.0824
     11 N3          3.0328    3.2905   -2.3400 N.2       1 <0>        -0.3932
     12 C7          2.8692    4.2009   -1.4241 C.2       1 <0>         0.2349
     13 N4          3.1404    5.4307   -1.9494 N.pl3     1 <0>        -0.5574
     14 H1          3.0966    6.3034   -1.4632 H         1 <0>         0.4343
     15 C8          2.4510    3.9366   -0.0006 C.3       1 <0>         0.0107
     16 C9          1.1563    3.1654    0.0076 C.ar      1 <0>        -0.0874
     17 C10         1.1750    1.7832    0.0004 C.ar      1 <0>        -0.0891
     18 C11        -0.0126    1.0758    0.0080 C.ar      1 <0>        -0.1189
     19 C12        -1.2190    1.7506    0.0173 C.ar      1 <0>        -0.1151
     20 C13        -1.2377    3.1328    0.0299 C.ar      1 <0>        -0.1229
     21 C14        -0.0501    3.8402    0.0228 C.ar      1 <0>        -0.1120
     22 H2          4.9357    7.7967   -3.6970 H         1 <0>         0.0786
     23 H3          3.7026    8.0795   -4.9491 H         1 <0>         0.1039
     24 H4          3.2107    7.8185   -3.2585 H         1 <0>         0.0791
     25 H5          4.3075    2.7610   -7.1842 H         1 <0>         0.1050
     26 H6          3.7219    4.3046   -7.8495 H         1 <0>         0.0826
     27 H7          5.4294    4.1292   -7.3787 H         1 <0>         0.0827
     28 H8          2.3126    4.8845    0.5194 H         1 <0>         0.0957
     29 H9          3.2233    3.3553    0.5031 H         1 <0>         0.1095
     30 H10         2.1175    1.2560   -0.0115 H         1 <0>         0.1270
     31 H11         0.0021   -0.0041    0.0020 H         1 <0>         0.1242
     32 H12        -2.1469    1.1980    0.0188 H         1 <0>         0.1219
     33 H13        -2.1802    3.6600    0.0414 H         1 <0>         0.1215
     34 H14        -0.0647    4.9201    0.0288 H         1 <0>         0.1179
@<TRIPOS>BOND
     1    1    2 1
     2    1   22 1
     3    1   23 1
     4    1   24 1
     5    2    8 am
     6    2    3 1
     7    3   13 1
     8    3    4 2
     9    4    5 1
    10    4   11 1
    11    5    6 2
    12    5    7 am
    13    7    8 am
    14    7   10 1
    15    8    9 2
    16   10   25 1
    17   10   26 1
    18   10   27 1
    19   11   12 2
    20   12   13 1
    21   12   15 1
    22   13   14 1
    23   15   16 1
    24   15   28 1
    25   15   29 1
    26   16   21 ar
    27   16   17 ar
    28   17   18 ar
    29   17   30 1
    30   18   19 ar
    31   18   31 1
    32   19   20 ar
    33   19   32 1
    34   20   21 ar
    35   20   33 1
    36   21   34 1
@<TRIPOS>MOLECULE
ZINC15880093
   34    36     0     0     0
SMALL
USER_CHARGES

@<TRIPOS>ATOM
      1 C1         -0.0178    1.4608    0.0101 C.3       1 <0>         0.0854
      2 N1          0.0021   -0.0041    0.0020 N.am      1 <0>        -0.5106
      3 C2         -1.1889   -0.7120    0.0039 C.2       1 <0>         0.3238
      4 C3         -1.1437   -2.1005   -0.0039 C.2       1 <0>        -0.1540
      5 C4          0.1107   -2.7476   -0.0134 C.2       1 <0>         0.5938
      6 O1          0.1765   -3.9638   -0.0207 O.2       1 <0>        -0.5125
      7 N2          1.2361   -2.0032   -0.0148 N.am      1 <0>        -0.5511
      8 C5          1.1776   -0.6603   -0.0127 C.2       1 <0>         0.7080
      9 O2          2.2126   -0.0219   -0.0196 O.2       1 <0>        -0.5321
     10 C6          2.5413   -2.6685   -0.0246 C.3       1 <0>         0.0833
     11 N3         -2.4557   -2.5297    0.0001 N.pl3     1 <0>        -0.5129
     12 H1         -2.7618   -3.4502   -0.0030 H         1 <0>         0.4351
     13 C7         -3.2306   -1.4275    0.0098 C.2       1 <0>         0.3086
     14 N4         -2.4766   -0.3579    0.0120 N.2       1 <0>        -0.4911
     15 C8         -4.7376   -1.4266    0.0162 C.3       1 <0>        -0.0169
     16 C9         -5.2635   -2.6576    0.7829 C.3       1 <0>        -0.1247
     17 C10        -6.5224   -3.0893   -0.0094 C.3       1 <0>        -0.1243
     18 C11        -6.1023   -2.8421   -1.4796 C.3       1 <0>        -0.1289
     19 C12        -5.2709   -1.5439   -1.4224 C.3       1 <0>        -0.1171
     20 H2          1.0048    1.8381    0.0023 H         1 <0>         0.1034
     21 H3         -0.5450    1.8219   -0.8730 H         1 <0>         0.0796
     22 H4         -0.5280    1.8123    0.9069 H         1 <0>         0.0799
     23 H5          2.8601   -2.8279   -1.0547 H         1 <0>         0.0772
     24 H6          3.2716   -2.0434    0.4891 H         1 <0>         0.0972
     25 H7          2.4632   -3.6292    0.4844 H         1 <0>         0.0953
     26 H8         -5.1081   -0.5116    0.4783 H         1 <0>         0.1182
     27 H9         -4.5198   -3.4544    0.7812 H         1 <0>         0.0624
     28 H10        -5.5302   -2.3856    1.8042 H         1 <0>         0.0826
     29 H11        -6.7412   -4.1439    0.1577 H         1 <0>         0.0739
     30 H12        -7.3782   -2.4691    0.2573 H         1 <0>         0.0763
     31 H13        -5.4941   -3.6687   -1.8467 H         1 <0>         0.0666
     32 H14        -6.9812   -2.7047   -2.1096 H         1 <0>         0.0745
     33 H15        -5.9010   -0.6863   -1.6581 H         1 <0>         0.0826
     34 H16        -4.4397   -1.6015   -2.1252 H         1 <0>         0.0685
@<TRIPOS>BOND
     1    1    2 1
     2    1   20 1
     3    1   21 1
     4    1   22 1
     5    2    8 am
     6    2    3 1
     7    3   14 1
     8    3    4 2
     9    4    5 1
    10    4   11 1
    11    5    6 2
    12    5    7 am
    13    7    8 am
    14    7   10 1
    15    8    9 2
    16   10   23 1
    17   10   24 1
    18   10   25 1
    19   11   12 1
    20   11   13 1
    21   13   14 2
    22   13   15 1
    23   15   19 1
    24   15   16 1
    25   15   26 1
    26   16   17 1
    27   16   27 1
    28   16   28 1
    29   17   18 1
    30   17   29 1
    31   17   30 1
    32   18   19 1
    33   18   31 1
    34   18   32 1
    35   19   33 1
    36   19   34 1
@<TRIPOS>MOLECULE
ZINC06585598
   31    33     0     0     0
SMALL
USER_CHARGES
(2R,3S,5R)-5-(6-amino-2-fluoro-purin-9-yl)-2-(hydroxymethyl)tetrahydrofuran-3-ol
@<TRIPOS>ATOM
      1 C1         -0.9027    5.1860    0.0346 C.2       1 <0>         0.2850
      2 N1         -0.3175    4.0239    0.0254 N.2       1 <0>        -0.4602
      3 C2         -1.2561    3.0463    0.0305 C.ar      1 <0>        -0.1061
      4 C3         -1.2187    1.6413    0.0168 C.ar      1 <0>         0.4925
      5 N2         -2.3690    0.9764    0.0186 N.ar      1 <0>        -0.5618
      6 C4         -3.5283    1.6138    0.0280 C.ar      1 <0>         0.5540
      7 N3         -3.6106    2.9298    0.0360 N.ar      1 <0>        -0.5577
      8 C5         -2.5110    3.6772    0.0349 C.ar      1 <0>         0.3270
      9 N4         -2.2569    5.0253    0.0408 N.pl3     1 <0>        -0.4714
     10 C6         -3.2569    6.0959    0.0521 C.3       1 <0>         0.3065
     11 H1         -4.1214    5.8016   -0.5430 H         1 <0>         0.1183
     12 C7         -3.6932    6.3900    1.5004 C.3       1 <0>        -0.1973
     13 C8         -3.3558    7.8875    1.7016 C.3       1 <0>         0.0812
     14 H2         -2.3949    8.0058    2.2023 H         1 <0>         0.0850
     15 C9         -3.2862    8.4036    0.2418 C.3       1 <0>         0.0890
     16 H3         -4.2856    8.6131   -0.1393 H         1 <0>         0.1015
     17 O1         -2.6861    7.3035   -0.4791 O.3       1 <0>        -0.3519
     18 C10        -2.4050    9.6512    0.1529 C.3       1 <0>         0.0856
     19 O2         -2.4510   10.1732   -1.1765 O.3       1 <0>        -0.5659
     20 O3         -4.3920    8.5505    2.4288 O.3       1 <0>        -0.5490
     21 F1         -4.6691    0.8902    0.0290 F         1 <0>        -0.0662
     22 N5         -0.0111    0.9658    0.0074 N.pl3     1 <0>        -0.7434
     23 H4         -0.3915    6.1374    0.0367 H         1 <0>         0.2292
     24 H5         -4.7635    6.2210    1.6182 H         1 <0>         0.1102
     25 H6         -3.1293    5.7744    2.2013 H         1 <0>         0.0935
     26 H7         -2.7697   10.4042    0.8517 H         1 <0>         0.0737
     27 H8         -1.3775    9.3890    0.4050 H         1 <0>         0.0582
     28 H9         -1.9139   10.9668   -1.3063 H         1 <0>         0.3869
     29 H10        -4.5339    8.2002    3.3189 H         1 <0>         0.3910
     30 H11         0.0555    0.3907    0.8227 H         1 <0>         0.3731
     31 H12         0.8223    1.4622    0.0021 H         1 <0>         0.3896
@<TRIPOS>BOND
     1    1    9 1
     2    1    2 2
     3    1   23 1
     4    2    3 1
     5    3    8 ar
     6    3    4 ar
     7    4    5 ar
     8    4   22 1
     9    5    6 ar
    10    6    7 ar
    11    6   21 1
    12    7    8 ar
    13    8    9 1
    14    9   10 1
    15   10   11 1
    16   10   17 1
    17   10   12 1
    18   12   13 1
    19   12   24 1
    20   12   25 1
    21   13   14 1
    22   13   15 1
    23   13   20 1
    24   15   16 1
    25   15   17 1
    26   15   18 1
    27   18   19 1
    28   18   26 1
    29   18   27 1
    30   19   28 1
    31   20   29 1
    32   22   30 1
    33   22   31 1
@<TRIPOS>MOLECULE
ZINC33848576
   53    57     0     0     0
SMALL
USER_CHARGES

@<TRIPOS>ATOM
      1 C1          2.7182   -2.2000   -4.0738 C.ar      1 <0>        -0.1158
      2 C2          3.9146   -1.5080   -3.9011 C.ar      1 <0>        -0.1066
      3 C3          4.2599   -0.9987   -2.6847 C.ar      1 <0>        -0.1088
      4 C4          3.4009   -1.1725   -1.5929 C.ar      1 <0>        -0.0248
      5 C5          2.1832   -1.8754   -1.7651 C.ar      1 <0>        -0.0540
      6 C6          1.8599   -2.3872   -3.0337 C.ar      1 <0>        -0.1018
      7 C7          1.3237   -2.0472   -0.6672 C.ar      1 <0>        -0.0896
      8 C8          1.6503   -1.5453    0.5555 C.ar      1 <0>        -0.1192
      9 C9          2.8326   -0.8503    0.7697 C.ar      1 <0>        -0.0751
     10 C10         3.7294   -0.6437   -0.2710 C.ar      1 <0>        -0.1341
     11 C11         4.9865    0.0939   -0.0463 C.2       1 <0>         0.4748
     12 O1          4.9701    1.3065    0.0606 O.2       1 <0>        -0.4475
     13 C12         6.2581   -0.6342    0.0486 C.2       1 <0>        -0.2576
     14 C13         6.4263   -1.9897    0.0489 C.2       1 <0>         0.1379
     15 N1          7.7433   -2.2873    0.1511 N.pl3     1 <0>        -0.4633
     16 C14         8.4947   -1.1320    0.2223 C.ar      1 <0>         0.0855
     17 C15         7.6063   -0.0465    0.1560 C.ar      1 <0>        -0.0632
     18 C16         8.0921    1.2574    0.2009 C.ar      1 <0>        -0.0708
     19 C17         9.4485    1.4767    0.3073 C.ar      1 <0>        -0.1345
     20 C18        10.3277    0.4059    0.3696 C.ar      1 <0>        -0.0994
     21 C19         9.8596   -0.8900    0.3343 C.ar      1 <0>        -0.1214
     22 C20         8.2932   -3.6449    0.1823 C.3       1 <0>         0.1072
     23 C21         8.4859   -4.0839    1.6352 C.3       1 <0>         0.0386
     24 N2          9.0372   -5.4451    1.6665 N.3       1 <0>        -0.5335
     25 C22         8.0690   -6.4179    1.1396 C.3       1 <0>         0.0104
     26 C23         8.7045   -7.8108    1.1347 C.3       1 <0>         0.0632
     27 O2          9.1345   -8.1377    2.4589 O.3       1 <0>        -0.3836
     28 C24        10.0786   -7.2113    3.0028 C.3       1 <0>         0.0633
     29 C25         9.4571   -5.8124    3.0266 C.3       1 <0>         0.0187
     30 H1          2.4656   -2.5903   -5.0486 H         1 <0>         0.1259
     31 H2          4.5781   -1.3733   -4.7426 H         1 <0>         0.1256
     32 H3          5.1908   -0.4647   -2.5638 H         1 <0>         0.1255
     33 H4          0.9356   -2.9257   -3.1825 H         1 <0>         0.1303
     34 H5          0.3944   -2.5825   -0.7944 H         1 <0>         0.1301
     35 H6          0.9704   -1.6916    1.3817 H         1 <0>         0.1291
     36 H7          3.0571   -0.4666    1.7539 H         1 <0>         0.1291
     37 H8          5.6290   -2.7148   -0.0215 H         1 <0>         0.1760
     38 H9          7.4094    2.0928    0.1522 H         1 <0>         0.1313
     39 H10         9.8286    2.4870    0.3421 H         1 <0>         0.1266
     40 H11        11.3887    0.5891    0.4529 H         1 <0>         0.1281
     41 H12        10.5529   -1.7167    0.3819 H         1 <0>         0.1219
     42 H13         7.6041   -4.3275   -0.3152 H         1 <0>         0.0948
     43 H14         9.2540   -3.6596   -0.3322 H         1 <0>         0.1025
     44 H15         9.1749   -3.4013    2.1326 H         1 <0>         0.0863
     45 H16         7.5251   -4.0691    2.1497 H         1 <0>         0.0451
     46 H17         7.1805   -6.4254    1.7709 H         1 <0>         0.0473
     47 H18         7.7914   -6.1409    0.1226 H         1 <0>         0.0875
     48 H19         7.9714   -8.5441    0.7987 H         1 <0>         0.1007
     49 H20         9.5617   -7.8174    0.4616 H         1 <0>         0.0620
     50 H21        10.3394   -7.5111    4.0178 H         1 <0>         0.1014
     51 H22        10.9759   -7.2005    2.3840 H         1 <0>         0.0622
     52 H23        10.1928   -5.0934    3.3871 H         1 <0>         0.0894
     53 H24         8.5907   -5.8102    3.6881 H         1 <0>         0.0464
@<TRIPOS>BOND
     1    1    6 ar
     2    1    2 ar
     3    1   30 1
     4    2    3 ar
     5    2   31 1
     6    3    4 ar
     7    3   32 1
     8    4   10 ar
     9    4    5 ar
    10    5    6 ar
    11    5    7 ar
    12    6   33 1
    13    7    8 ar
    14    7   34 1
    15    8    9 ar
    16    8   35 1
    17    9   10 ar
    18    9   36 1
    19   10   11 1
    20   11   12 2
    21   11   13 1
    22   13   17 1
    23   13   14 2
    24   14   15 1
    25   14   37 1
    26   15   16 1
    27   15   22 1
    28   16   21 ar
    29   16   17 ar
    30   17   18 ar
    31   18   19 ar
    32   18   38 1
    33   19   20 ar
    34   19   39 1
    35   20   21 ar
    36   20   40 1
    37   21   41 1
    38   22   23 1
    39   22   42 1
    40   22   43 1
    41   23   24 1
    42   23   44 1
    43   23   45 1
    44   24   29 1
    45   24   25 1
    46   25   26 1
    47   25   46 1
    48   25   47 1
    49   26   27 1
    50   26   48 1
    51   26   49 1
    52   27   28 1
    53   28   29 1
    54   28   50 1
    55   28   51 1
    56   29   52 1
    57   29   53 1
@<TRIPOS>MOLECULE
ZINC13739903
   32    34     0     0     0
SMALL
USER_CHARGES
(1R)-6-chloro-1-phenyl-1,2,3,4-tetrahydroisoquinolin-7-ol
@<TRIPOS>ATOM
      1 C1         -3.9731   -1.4712    0.5427 C.ar      1 <0>        -0.1164
      2 C2         -3.1232   -2.0919   -0.3535 C.ar      1 <0>        -0.1216
      3 C3         -1.8367   -1.6173   -0.5283 C.ar      1 <0>        -0.1157
      4 C4         -1.4004   -0.5215    0.1926 C.ar      1 <0>        -0.0803
      5 C5         -2.2488    0.0963    1.0924 C.ar      1 <0>        -0.0829
      6 C6         -3.5367   -0.3757    1.2639 C.ar      1 <0>        -0.1242
      7 C7          0.0021   -0.0041    0.0020 C.3       1 <0>         0.1613
      8 H1          0.4077   -0.3215   -0.9700 H         1 <0>         0.0647
      9 C8          0.8793   -0.5261    1.1098 C.ar      1 <0>        -0.0244
     10 C9          0.7395   -1.8520    1.4914 C.ar      1 <0>        -0.1422
     11 C10         1.5265   -2.3756    2.5032 C.ar      1 <0>         0.1689
     12 C11         2.4607   -1.5675    3.1375 C.ar      1 <0>        -0.1294
     13 C12         2.5966   -0.2481    2.7556 C.ar      1 <0>        -0.0704
     14 C13         1.8056    0.2750    1.7431 C.ar      1 <0>        -0.0979
     15 C14         1.9880    1.7231    1.3661 C.3       1 <0>        -0.0744
     16 C15         1.3557    1.9902   -0.0002 C.3       1 <0>         0.0442
     17 N1         -0.0178    1.4620    0.0101 N.3       1 <0>        -0.6627
     18 Cl1         3.4544   -2.2143    4.4055 Cl        1 <0>        -0.0629
     19 O1          1.3854   -3.6757    2.8738 O.3       1 <0>        -0.5004
     20 H2         -4.9783   -1.8420    0.6793 H         1 <0>         0.1210
     21 H3         -3.4642   -2.9479   -0.9170 H         1 <0>         0.1222
     22 H4         -1.1726   -2.1025   -1.2283 H         1 <0>         0.1199
     23 H5         -1.9064    0.9497    1.6588 H         1 <0>         0.1303
     24 H6         -4.2008    0.1095    1.9639 H         1 <0>         0.1218
     25 H7          0.0122   -2.4793    0.9975 H         1 <0>         0.1391
     26 H8          3.3230    0.3811    3.2484 H         1 <0>         0.1358
     27 H9          1.5048    2.3619    2.1201 H         1 <0>         0.0860
     28 H10         3.0617    1.9577    1.3205 H         1 <0>         0.0799
     29 H11         1.3401    3.0733   -0.1916 H         1 <0>         0.0874
     30 H12         1.9453    1.4883   -0.7815 H         1 <0>         0.0388
     31 H13        -0.5499    1.8264   -0.8810 H         1 <0>         0.3526
     32 H14         2.0117   -4.0895    3.6779 H         1 <0>         0.4318
@<TRIPOS>BOND
     1    1    6 ar
     2    1    2 ar
     3    1   20 1
     4    2    3 ar
     5    2   21 1
     6    3    4 ar
     7    3   22 1
     8    4    5 ar
     9    4    7 1
    10    5    6 ar
    11    5   23 1
    12    6   24 1
    13    7    8 1
    14    7   17 1
    15    7    9 1
    16    9   14 ar
    17    9   10 ar
    18   10   11 ar
    19   10   25 1
    20   11   12 ar
    21   11   19 1
    22   12   13 ar
    23   12   18 1
    24   13   14 ar
    25   13   26 1
    26   14   15 1
    27   15   16 1
    28   15   27 1
    29   15   28 1
    30   16   17 1
    31   16   29 1
    32   16   30 1
    33   17   31 1
    34   19   32 1
@<TRIPOS>MOLECULE
ZINC18043251
   21    22     0     0     0
SMALL
USER_CHARGES

@<TRIPOS>ATOM
      1 C1         -0.0178    1.4608    0.0101 C.3       1 <0>         0.0852
      2 N1          0.0021   -0.0041    0.0020 N.am      1 <0>        -0.5114
      3 C2         -1.1889   -0.7120    0.0039 C.2       1 <0>         0.3216
      4 C3         -1.1437   -2.1005   -0.0039 C.2       1 <0>        -0.1538
      5 C4          0.1107   -2.7476   -0.0134 C.2       1 <0>         0.5936
      6 O1          0.1765   -3.9638   -0.0207 O.2       1 <0>        -0.5134
      7 N2          1.2361   -2.0032   -0.0148 N.am      1 <0>        -0.5513
      8 C5          1.1776   -0.6603   -0.0127 C.2       1 <0>         0.7076
      9 O2          2.2126   -0.0219   -0.0196 O.2       1 <0>        -0.5305
     10 C6          2.5413   -2.6685   -0.0246 C.3       1 <0>         0.0826
     11 N3         -2.4557   -2.5297    0.0001 N.pl3     1 <0>        -0.5179
     12 H1         -2.7618   -3.4502   -0.0030 H         1 <0>         0.4389
     13 C7         -3.2306   -1.4275    0.0098 C.2       1 <0>         0.2785
     14 N4         -2.4766   -0.3579    0.0120 N.2       1 <0>        -0.4991
     15 H2          1.0048    1.8381    0.0023 H         1 <0>         0.1033
     16 H3         -0.5450    1.8219   -0.8730 H         1 <0>         0.0800
     17 H4         -0.5280    1.8123    0.9069 H         1 <0>         0.0801
     18 H5          2.3982   -3.7491   -0.0298 H         1 <0>         0.1039
     19 H6          3.0941   -2.3709   -0.9157 H         1 <0>         0.0832
     20 H7          3.1026   -2.3806    0.8643 H         1 <0>         0.0832
     21 H8         -4.3106   -1.4268    0.0144 H         1 <0>         0.2358
@<TRIPOS>BOND
     1    1    2 1
     2    1   15 1
     3    1   16 1
     4    1   17 1
     5    2    8 am
     6    2    3 1
     7    3   14 1
     8    3    4 2
     9    4    5 1
    10    4   11 1
    11    5    6 2
    12    5    7 am
    13    7    8 am
    14    7   10 1
    15    8    9 2
    16   10   18 1
    17   10   19 1
    18   10   20 1
    19   11   12 1
    20   11   13 1
    21   13   14 2
    22   13   21 1
@<TRIPOS>MOLECULE
ZINC01996374
   37    39     0     0     0
SMALL
USER_CHARGES

@<TRIPOS>ATOM
      1 C1         -0.0167    1.3781    0.0096 C.ar      1 <0>        -0.1015
      2 C2          1.1709    2.0855    0.0021 C.ar      1 <0>        -0.1129
      3 C3          2.3773    1.4107   -0.0130 C.ar      1 <0>        -0.1085
      4 C4          2.3960    0.0285   -0.0201 C.ar      1 <0>        -0.1079
      5 C5          1.2084   -0.6789   -0.0117 C.ar      1 <0>        -0.1046
      6 C6          0.0021   -0.0041    0.0020 C.ar      1 <0>        -0.1114
      7 C7          3.7112   -0.7071   -0.0376 C.3       1 <0>        -0.0099
      8 H1          4.5257    0.0172   -0.0425 H         1 <0>         0.1065
      9 C8          3.8179   -1.5729    1.2175 C.3       1 <0>        -0.0152
     10 N1          5.2268   -1.6333    1.6211 N.4       1 <0>        -0.5063
     11 C9          6.0321   -2.2539    0.5690 C.3       1 <0>        -0.0080
     12 C10         5.1671   -3.3122   -0.1228 C.3       1 <0>        -0.1081
     13 C11         4.4887   -2.7354   -1.3383 C.ar      1 <0>        -0.0931
     14 C12         3.7905   -1.5495   -1.2871 C.ar      1 <0>        -0.0848
     15 C13         3.1351   -1.0876   -2.4209 C.ar      1 <0>        -0.1103
     16 C14         3.2017   -1.7951   -3.6074 C.ar      1 <0>         0.0976
     17 C15         3.9339   -2.9771   -3.6650 C.ar      1 <0>         0.0992
     18 C16         4.5731   -3.4399   -2.5308 C.ar      1 <0>        -0.1195
     19 O1          4.0217   -3.6712   -4.8311 O.3       1 <0>        -0.4837
     20 O2          2.5544   -1.3380   -4.7126 O.3       1 <0>        -0.4829
     21 H2         -0.9591    1.9053    0.0259 H         1 <0>         0.1303
     22 H3          1.1563    3.1654    0.0076 H         1 <0>         0.1303
     23 H4          3.3051    1.9634   -0.0196 H         1 <0>         0.1248
     24 H5          1.2231   -1.7588   -0.0176 H         1 <0>         0.1221
     25 H6         -0.9258   -0.5567    0.0082 H         1 <0>         0.1298
     26 H7          3.2258   -1.1310    2.0188 H         1 <0>         0.1448
     27 H8          3.4553   -2.5778    1.0012 H         1 <0>         0.1462
     28 H9          5.5652   -0.6983    1.7928 H         1 <0>         0.4310
     29 H10         6.3395   -1.4985   -0.1542 H         1 <0>         0.1347
     30 H11         6.9116   -2.7254    1.0074 H         1 <0>         0.1430
     31 H12         5.7971   -4.1483   -0.4262 H         1 <0>         0.1175
     32 H13         4.4099   -3.6692    0.5753 H         1 <0>         0.1026
     33 H14         2.5688   -0.1691   -2.3758 H         1 <0>         0.1411
     34 H15         5.1405   -4.3579   -2.5725 H         1 <0>         0.1414
     35 H16         4.7700   -3.4136   -5.3869 H         1 <0>         0.3970
     36 H17         3.0865   -0.7486   -5.2645 H         1 <0>         0.3962
     37 H18         5.3085   -2.1759    2.4679 H         1 <0>         0.4322
@<TRIPOS>BOND
     1    1    6 ar
     2    1    2 ar
     3    1   21 1
     4    2    3 ar
     5    2   22 1
     6    3    4 ar
     7    3   23 1
     8    4    5 ar
     9    4    7 1
    10    5    6 ar
    11    5   24 1
    12    6   25 1
    13    7    8 1
    14    7   14 1
    15    7    9 1
    16    9   10 1
    17    9   26 1
    18    9   27 1
    19   10   11 1
    20   10   28 1
    21   10   37 1
    22   11   12 1
    23   11   29 1
    24   11   30 1
    25   12   13 1
    26   12   31 1
    27   12   32 1
    28   13   18 ar
    29   13   14 ar
    30   14   15 ar
    31   15   16 ar
    32   15   33 1
    33   16   17 ar
    34   16   20 1
    35   17   18 ar
    36   17   19 1
    37   18   34 1
    38   19   35 1
    39   20   36 1
@<TRIPOS>MOLECULE
ZINC25758512
   37    40     0     0     0
SMALL
USER_CHARGES

@<TRIPOS>ATOM
      1 C1         -0.0166    1.3758    0.0096 C.ar      1 <0>        -0.1157
      2 C2          1.1763    2.0743    0.0020 C.ar      1 <0>        -0.1192
      3 C3          2.3733    1.3896   -0.0385 C.ar      1 <0>        -0.1176
      4 C4          2.4009    0.0034   -0.0861 C.ar      1 <0>        -0.0687
      5 C5          1.2046   -0.6903   -0.0209 C.ar      1 <0>        -0.1153
      6 C6          0.0021   -0.0041    0.0020 C.ar      1 <0>        -0.1124
      7 C7          1.1747   -2.1927    0.1001 C.3       1 <0>         0.0903
      8 N1          2.4687   -2.6697    0.6185 N.3       1 <0>        -0.6611
      9 C8          3.5248   -2.2256   -0.2859 C.3       1 <0>         0.0873
     10 H1          3.2495   -2.4784   -1.3135 H         1 <0>         0.0869
     11 C9          3.7062   -0.7101   -0.1807 C.3       1 <0>        -0.0427
     12 H2          4.2639   -0.5125    0.7432 H         1 <0>         0.0912
     13 C10         4.5908   -0.3033   -1.3255 C.ar      1 <0>        -0.0537
     14 C11         4.3958    0.8864   -1.9965 C.ar      1 <0>        -0.1327
     15 C12         5.2340    1.2611   -3.0353 C.ar      1 <0>         0.0776
     16 C13         6.2733    0.4178   -3.4135 C.ar      1 <0>         0.0830
     17 C14         6.4491   -0.7850   -2.7594 C.ar      1 <0>        -0.1337
     18 C15         5.6055   -1.1624   -1.7191 C.ar      1 <0>        -0.0657
     19 C16         5.8510   -2.5104   -1.0979 C.3       1 <0>        -0.0803
     20 C17         4.8823   -2.8512    0.0309 C.3       1 <0>        -0.1091
     21 O1          7.1132    0.7761   -4.4215 O.3       1 <0>        -0.4882
     22 O2          5.0382    2.4433   -3.6773 O.3       1 <0>        -0.4862
     23 H3         -0.9564    1.9057    0.0259 H         1 <0>         0.1245
     24 H4          1.1697    3.1547    0.0285 H         1 <0>         0.1242
     25 H5          3.3025    1.9411   -0.0098 H         1 <0>         0.1225
     26 H6         -0.9296   -0.5512    0.0145 H         1 <0>         0.1248
     27 H7          0.3852   -2.4841    0.7865 H         1 <0>         0.0925
     28 H8          1.0003   -2.6301   -0.8788 H         1 <0>         0.0889
     29 H9          2.6220   -2.3300    1.5564 H         1 <0>         0.3432
     30 H10         3.5793    1.5447   -1.7458 H         1 <0>         0.1418
     31 H11         7.2519   -1.4441   -3.0565 H         1 <0>         0.1336
     32 H12         5.7665   -3.2743   -1.8756 H         1 <0>         0.0813
     33 H13         6.8713   -2.5358   -0.7070 H         1 <0>         0.0819
     34 H14         5.2573   -2.4506    0.9741 H         1 <0>         0.0674
     35 H15         4.7745   -3.9334    0.1136 H         1 <0>         0.0849
     36 H16         7.8888    1.2742   -4.1290 H         1 <0>         0.3876
     37 H17         5.5166    3.1871   -3.2864 H         1 <0>         0.3869
@<TRIPOS>BOND
     1    1    6 ar
     2    1    2 ar
     3    1   23 1
     4    2    3 ar
     5    2   24 1
     6    3    4 ar
     7    3   25 1
     8    4   11 1
     9    4    5 ar
    10    5    6 ar
    11    5    7 1
    12    6   26 1
    13    7    8 1
    14    7   27 1
    15    7   28 1
    16    8    9 1
    17    8   29 1
    18    9   10 1
    19    9   20 1
    20    9   11 1
    21   11   12 1
    22   11   13 1
    23   13   18 ar
    24   13   14 ar
    25   14   15 ar
    26   14   30 1
    27   15   16 ar
    28   15   22 1
    29   16   17 ar
    30   16   21 1
    31   17   18 ar
    32   17   31 1
    33   18   19 1
    34   19   20 1
    35   19   32 1
    36   19   33 1
    37   20   34 1
    38   20   35 1
    39   21   36 1
    40   22   37 1
@<TRIPOS>MOLECULE
ZINC00040150
   30    32     0     0     0
SMALL
USER_CHARGES
(2R,3S,5R)-5-(6-aminopurin-9-yl)-2-methyl-tetrahydrofuran-3-ol
@<TRIPOS>ATOM
      1 C1         -5.1047   -3.2317    0.1460 C.3       1 <0>        -0.1461
      2 C2         -4.4334   -1.8581    0.0880 C.3       1 <0>         0.0845
      3 H1         -4.9972   -1.1358    0.6783 H         1 <0>         0.0921
      4 C3         -4.3109   -1.3781   -1.3752 C.3       1 <0>         0.0784
      5 H2         -4.3143   -2.2281   -2.0576 H         1 <0>         0.0828
      6 C4         -2.9469   -0.6537   -1.4197 C.3       1 <0>        -0.1965
      7 C5         -2.4067   -0.7817    0.0219 C.3       1 <0>         0.3102
      8 H3         -2.6581    0.1054    0.6032 H         1 <0>         0.1141
      9 O1         -3.0724   -1.9432    0.5636 O.3       1 <0>        -0.3644
     10 N1         -0.9561   -0.9860    0.0066 N.pl3     1 <0>        -0.4728
     11 C6         -0.3107   -2.1867   -0.0056 C.2       1 <0>         0.2772
     12 N2          0.9770   -1.9993   -0.0173 N.2       1 <0>        -0.4566
     13 C7          1.2393   -0.6702   -0.0134 C.ar      1 <0>        -0.0660
     14 C8          0.0021   -0.0041    0.0020 C.ar      1 <0>         0.2952
     15 N3         -0.0159    1.3247    0.0093 N.ar      1 <0>        -0.5386
     16 C9          1.1074    2.0110    0.0023 C.ar      1 <0>         0.3476
     17 N4          2.2930    1.4298   -0.0135 N.ar      1 <0>        -0.5738
     18 C10         2.4106    0.1059   -0.0211 C.ar      1 <0>         0.4488
     19 N5          3.6576   -0.4941   -0.0358 N.pl3     1 <0>        -0.7433
     20 O2         -5.3692   -0.4730   -1.6956 O.3       1 <0>        -0.5546
     21 H4         -5.1331   -3.5790    1.1788 H         1 <0>         0.0727
     22 H5         -6.1213   -3.1558   -0.2399 H         1 <0>         0.0817
     23 H6         -4.5381   -3.9389   -0.4597 H         1 <0>         0.0675
     24 H7         -3.0798    0.3949   -1.6861 H         1 <0>         0.1030
     25 H8         -2.2760   -1.1455   -2.1241 H         1 <0>         0.0903
     26 H9         -0.7965   -3.1513   -0.0055 H         1 <0>         0.2264
     27 H10         1.0575    3.0898    0.0082 H         1 <0>         0.2076
     28 H11         3.7614   -1.0671    0.7771 H         1 <0>         0.3706
     29 H12         4.4588    0.0526   -0.0410 H         1 <0>         0.3743
     30 H13        -5.3410   -0.1401   -2.6030 H         1 <0>         0.3879
@<TRIPOS>BOND
     1    1    2 1
     2    1   21 1
     3    1   22 1
     4    1   23 1
     5    2    3 1
     6    2    9 1
     7    2    4 1
     8    4    5 1
     9    4    6 1
    10    4   20 1
    11    6    7 1
    12    6   24 1
    13    6   25 1
    14    7    8 1
    15    7    9 1
    16    7   10 1
    17   10   14 1
    18   10   11 1
    19   11   12 2
    20   11   26 1
    21   12   13 1
    22   13   18 ar
    23   13   14 ar
    24   14   15 ar
    25   15   16 ar
    26   16   17 ar
    27   16   27 1
    28   17   18 ar
    29   18   19 1
    30   19   28 1
    31   19   29 1
    32   20   30 1
@<TRIPOS>MOLECULE
ZINC03872285
   30    32     0     0     0
SMALL
USER_CHARGES
(2R,3R,5R)-5-(6-aminopurin-9-yl)-2-methyl-tetrahydrofuran-3-ol
@<TRIPOS>ATOM
      1 C1          5.6801    3.8141    0.0759 C.3       1 <0>        -0.1382
      2 C2          5.3074    2.3315    0.0161 C.3       1 <0>         0.0839
      3 H1          6.0202    1.7383    0.5890 H         1 <0>         0.0921
      4 C3          5.2577    1.8481   -1.4503 C.3       1 <0>         0.0776
      5 H2          6.1853    1.3417   -1.7171 H         1 <0>         0.0831
      6 C4          4.0724    0.8574   -1.4791 C.3       1 <0>        -0.1967
      7 C5          3.5461    0.8594   -0.0268 C.3       1 <0>         0.3089
      8 H3          3.9871    0.0390    0.5395 H         1 <0>         0.1124
      9 O1          3.9679    2.1292    0.5168 O.3       1 <0>        -0.3645
     10 N1          2.0846    0.7592   -0.0138 N.pl3     1 <0>        -0.4715
     11 C6          1.2049    1.8003    0.0002 C.2       1 <0>         0.2811
     12 N2         -0.0163    1.3505    0.0095 N.2       1 <0>        -0.4579
     13 C7          0.0021   -0.0041    0.0020 C.ar      1 <0>        -0.0655
     14 C8          1.3504   -0.3998   -0.0130 C.ar      1 <0>         0.2937
     15 N3          1.6429   -1.6961   -0.0227 N.ar      1 <0>        -0.5391
     16 C9          0.6859   -2.6000   -0.0185 C.ar      1 <0>         0.3466
     17 N4         -0.5943   -2.2767   -0.0041 N.ar      1 <0>        -0.5741
     18 C10        -0.9832   -1.0058    0.0065 C.ar      1 <0>         0.4485
     19 N5         -2.3273   -0.6767    0.0214 N.pl3     1 <0>        -0.7432
     20 O2          5.0139    2.9463   -2.3315 O.3       1 <0>        -0.5492
     21 H4          5.6560    4.1534    1.1114 H         1 <0>         0.0641
     22 H5          6.6826    3.9534   -0.3288 H         1 <0>         0.0762
     23 H6          4.9673    4.3920   -0.5124 H         1 <0>         0.0768
     24 H7          4.4141   -0.1388   -1.7602 H         1 <0>         0.0989
     25 H8          3.3005    1.2053   -2.1656 H         1 <0>         0.0946
     26 H9          1.4806    2.8445    0.0025 H         1 <0>         0.2263
     27 H10         0.9579   -3.6451   -0.0267 H         1 <0>         0.2072
     28 H11        -2.5309   -0.1438    0.8427 H         1 <0>         0.3705
     29 H12        -2.9982   -1.3774    0.0243 H         1 <0>         0.3741
     30 H13         4.9729    2.6995   -3.2656 H         1 <0>         0.3833
@<TRIPOS>BOND
     1    1    2 1
     2    1   21 1
     3    1   22 1
     4    1   23 1
     5    2    3 1
     6    2    9 1
     7    2    4 1
     8    4    5 1
     9    4    6 1
    10    4   20 1
    11    6    7 1
    12    6   24 1
    13    6   25 1
    14    7    8 1
    15    7    9 1
    16    7   10 1
    17   10   14 1
    18   10   11 1
    19   11   12 2
    20   11   26 1
    21   12   13 1
    22   13   18 ar
    23   13   14 ar
    24   14   15 ar
    25   15   16 ar
    26   16   17 ar
    27   16   27 1
    28   17   18 ar
    29   18   19 1
    30   19   28 1
    31   19   29 1
    32   20   30 1
@<TRIPOS>MOLECULE
ZINC03872286
   30    32     0     0     0
SMALL
USER_CHARGES
(2S,3R,5R)-5-(6-aminopurin-9-yl)-2-methyl-tetrahydrofuran-3-ol
@<TRIPOS>ATOM
      1 C1          8.0257    2.8874    0.6988 C.3       1 <0>        -0.1622
      2 C2          6.8421    3.0829   -0.2508 C.3       1 <0>         0.0865
      3 H1          6.8994    4.0674   -0.7151 H         1 <0>         0.1029
      4 C3          6.8556    1.9887   -1.3398 C.3       1 <0>         0.0797
      5 H2          7.4162    1.1157   -1.0056 H         1 <0>         0.0860
      6 C4          5.3455    1.6541   -1.4919 C.3       1 <0>        -0.1977
      7 C5          4.8542    1.8490   -0.0354 C.3       1 <0>         0.3119
      8 H3          5.0520    0.9535    0.5536 H         1 <0>         0.1169
      9 O1          5.6125    2.9580    0.4732 O.3       1 <0>        -0.3668
     10 N1          3.4230    2.1615   -0.0191 N.pl3     1 <0>        -0.4743
     11 C6          2.8695    3.4072   -0.0065 C.2       1 <0>         0.2813
     12 N2          1.5713    3.3168    0.0055 N.2       1 <0>        -0.4687
     13 C7          1.2102    2.0111    0.0013 C.ar      1 <0>        -0.1000
     14 C8          2.3940    1.2541   -0.0145 C.ar      1 <0>         0.2982
     15 N3          2.3124   -0.0723   -0.0208 N.ar      1 <0>        -0.5417
     16 C9          1.1408   -0.6725   -0.0124 C.ar      1 <0>         0.3498
     17 N4          0.0021   -0.0041    0.0020 N.ar      1 <0>        -0.5481
     18 C10        -0.0159    1.3249    0.0093 C.ar      1 <0>         0.4572
     19 N5         -1.2145    2.0167    0.0188 N.pl3     1 <0>        -0.7505
     20 O2          7.3908    2.4960   -2.5638 O.3       1 <0>        -0.5500
     21 H4          7.9573    1.9056    1.1673 H         1 <0>         0.0635
     22 H5          8.9574    2.9580    0.1375 H         1 <0>         0.0783
     23 H6          8.0057    3.6593    1.4681 H         1 <0>         0.0722
     24 H7          5.2008    0.6250   -1.8209 H         1 <0>         0.1016
     25 H8          4.8551    2.3536   -2.1689 H         1 <0>         0.0971
     26 H9          3.4262    4.3327   -0.0068 H         1 <0>         0.2259
     27 H10         1.1097   -1.7520   -0.0179 H         1 <0>         0.2104
     28 H11        -1.7427    1.7795   -0.7965 H         1 <0>         0.3679
     29 H12        -1.2145    2.9867    0.0241 H         1 <0>         0.3837
     30 H13         7.4203    1.8462   -3.2794 H         1 <0>         0.3893
@<TRIPOS>BOND
     1    1    2 1
     2    1   21 1
     3    1   22 1
     4    1   23 1
     5    2    3 1
     6    2    9 1
     7    2    4 1
     8    4    5 1
     9    4    6 1
    10    4   20 1
    11    6    7 1
    12    6   24 1
    13    6   25 1
    14    7    8 1
    15    7    9 1
    16    7   10 1
    17   10   14 1
    18   10   11 1
    19   11   12 2
    20   11   26 1
    21   12   13 1
    22   13   18 ar
    23   13   14 ar
    24   14   15 ar
    25   15   16 ar
    26   16   17 ar
    27   16   27 1
    28   17   18 ar
    29   18   19 1
    30   19   28 1
    31   19   29 1
    32   20   30 1
@<TRIPOS>MOLECULE
ZINC03872287
   30    32     0     0     0
SMALL
USER_CHARGES
(2S,3S,5R)-5-(6-aminopurin-9-yl)-2-methyl-tetrahydrofuran-3-ol
@<TRIPOS>ATOM
      1 C1         -0.8640    1.5872   -1.1812 C.3       1 <0>        -0.1361
      2 C2         -0.0783    1.0721    0.0264 C.3       1 <0>         0.0626
      3 H1         -0.0770   -0.0179    0.0300 H         1 <0>         0.0850
      4 C3          1.3693    1.5976   -0.0274 C.3       1 <0>         0.0761
      5 H2          2.0749    0.7681   -0.0728 H         1 <0>         0.0757
      6 C4          1.5382    2.3806    1.2974 C.3       1 <0>        -0.1882
      7 C5          0.4130    1.7778    2.1766 C.3       1 <0>         0.2996
      8 H3          0.1145    2.4814    2.9536 H         1 <0>         0.1447
      9 O1         -0.6667    1.5641    1.2421 O.3       1 <0>        -0.3432
     10 N1          0.8450    0.5097    2.7694 N.pl3     1 <0>        -0.4843
     11 C6          0.5554   -0.7384    2.3039 C.2       1 <0>         0.2576
     12 N2          1.1012   -1.6368    3.0711 N.2       1 <0>        -0.4513
     13 C7          1.7667   -1.0244    4.0797 C.ar      1 <0>        -0.0690
     14 C8          1.6103    0.3603    3.8982 C.ar      1 <0>         0.2967
     15 N3          2.1756    1.1933    4.7657 N.ar      1 <0>        -0.5387
     16 C9          2.8727    0.7317    5.7826 C.ar      1 <0>         0.3489
     17 N4          3.0471   -0.5599    5.9942 N.ar      1 <0>        -0.5744
     18 C10         2.5198   -1.4683    5.1797 C.ar      1 <0>         0.4501
     19 N5          2.7086   -2.8198    5.4095 N.pl3     1 <0>        -0.7434
     20 O2          1.5454    2.4644   -1.1497 O.3       1 <0>        -0.5469
     21 H4         -0.3922    1.2352   -2.0986 H         1 <0>         0.0784
     22 H5         -1.8878    1.2162   -1.1337 H         1 <0>         0.0629
     23 H6         -0.8717    2.6771   -1.1716 H         1 <0>         0.0716
     24 H7          2.5178    2.1940    1.7374 H         1 <0>         0.0935
     25 H8          1.3803    3.4478    1.1413 H         1 <0>         0.1125
     26 H9         -0.0378   -0.9504    1.4266 H         1 <0>         0.2221
     27 H10         3.3187    1.4358    6.4693 H         1 <0>         0.2076
     28 H11         1.8215   -3.2631    5.5384 H         1 <0>         0.3707
     29 H12         3.2305   -3.1139    6.1724 H         1 <0>         0.3744
     30 H13         2.4391    2.8244   -1.2323 H         1 <0>         0.3846
@<TRIPOS>BOND
     1    1    2 1
     2    1   21 1
     3    1   22 1
     4    1   23 1
     5    2    3 1
     6    2    9 1
     7    2    4 1
     8    4    5 1
     9    4    6 1
    10    4   20 1
    11    6    7 1
    12    6   24 1
    13    6   25 1
    14    7    8 1
    15    7    9 1
    16    7   10 1
    17   10   14 1
    18   10   11 1
    19   11   12 2
    20   11   26 1
    21   12   13 1
    22   13   18 ar
    23   13   14 ar
    24   14   15 ar
    25   15   16 ar
    26   16   17 ar
    27   16   27 1
    28   17   18 ar
    29   18   19 1
    30   19   28 1
    31   19   29 1
    32   20   30 1
@<TRIPOS>MOLECULE
ZINC02516058
   36    38     0     0     0
SMALL
USER_CHARGES
10-chloro-6-phenyl-4-azabicyclo[5.4.0]undeca-7,9,11-trien-9-ol
@<TRIPOS>ATOM
      1 C1          6.6758   -0.2307    1.8253 C.ar      1 <0>        -0.1008
      2 C2          6.8162    0.1032    0.4912 C.ar      1 <0>        -0.1125
      3 C3          5.8538    0.8743   -0.1333 C.ar      1 <0>        -0.1078
      4 C4          4.7510    1.3115    0.5763 C.ar      1 <0>        -0.1089
      5 C5          4.6132    0.9821    1.9117 C.ar      1 <0>        -0.1047
      6 C6          5.5730    0.2066    2.5349 C.ar      1 <0>        -0.1111
      7 C7          3.7020    2.1526   -0.1044 C.3       1 <0>        -0.0111
      8 H1          3.9808    2.2948   -1.1485 H         1 <0>         0.1084
      9 C8          3.6292    3.5151    0.5831 C.3       1 <0>        -0.0086
     10 C9          1.9516    4.2460   -1.0046 C.3       1 <0>        -0.0041
     11 C10         1.0800    3.5989    0.0753 C.3       1 <0>        -0.1059
     12 C11         1.1701    2.0973    0.0022 C.ar      1 <0>        -0.0991
     13 C12         2.3756    1.4360   -0.0401 C.ar      1 <0>        -0.0709
     14 C13         2.3983    0.0473   -0.0421 C.ar      1 <0>        -0.1147
     15 C14         1.2176   -0.6745   -0.0173 C.ar      1 <0>         0.1347
     16 C15         0.0021   -0.0041    0.0020 C.ar      1 <0>        -0.0565
     17 C16        -0.0166    1.3758    0.0096 C.ar      1 <0>        -0.0837
     18 Cl1        -1.4867   -0.8969    0.0159 Cl        1 <0>        -0.0332
     19 O1          1.2480   -2.0334   -0.0122 O.3       1 <0>        -0.4820
     20 H2          7.4279   -0.8328    2.3133 H         1 <0>         0.1305
     21 H3          7.6780   -0.2382   -0.0630 H         1 <0>         0.1307
     22 H4          5.9636    1.1354   -1.1755 H         1 <0>         0.1251
     23 H5          3.7538    1.3274    2.4672 H         1 <0>         0.1220
     24 H6          5.4635   -0.0539    3.5772 H         1 <0>         0.1300
     25 H7          2.8748    3.4883    1.3693 H         1 <0>         0.1439
     26 H8          4.6004    3.7605    1.0127 H         1 <0>         0.1437
     27 H9          1.4922    5.1755   -1.3411 H         1 <0>         0.1421
     28 H10         2.0630    3.5630   -1.8467 H         1 <0>         0.1340
     29 H11         1.4183    3.9313    1.0567 H         1 <0>         0.1029
     30 H12         0.0436    3.9041   -0.0690 H         1 <0>         0.1190
     31 H13         3.3443   -0.4732   -0.0636 H         1 <0>         0.1458
     32 H14        -0.9616    1.8987    0.0169 H         1 <0>         0.1452
     33 H15         1.2408   -2.4303   -0.8939 H         1 <0>         0.4022
     34 N1          3.2708    4.5367   -0.4206 N.4       1 <0>        -0.5183
     35 H16         3.9768    4.5401   -1.1660 H         1 <0>         0.4361
     36 H17         3.2447    5.4587    0.0304 H         1 <0>         0.4375
@<TRIPOS>BOND
     1    1    6 ar
     2    1    2 ar
     3    1   20 1
     4    2    3 ar
     5    2   21 1
     6    3    4 ar
     7    3   22 1
     8    4    5 ar
     9    4    7 1
    10    5    6 ar
    11    5   23 1
    12    6   24 1
    13    7    8 1
    14    7   13 1
    15    7    9 1
    16    9   25 1
    17    9   26 1
    18    9   34 1
    19   10   11 1
    20   10   27 1
    21   10   28 1
    22   10   34 1
    23   11   12 1
    24   11   29 1
    25   11   30 1
    26   12   17 ar
    27   12   13 ar
    28   13   14 ar
    29   14   15 ar
    30   14   31 1
    31   15   16 ar
    32   15   19 1
    33   16   17 ar
    34   16   18 1
    35   17   32 1
    36   19   33 1
    37   34   35 1
    38   34   36 1
@<TRIPOS>MOLECULE
ZINC02539831
   36    38     0     0     0
SMALL
USER_CHARGES
10-chloro-6-phenyl-4-azabicyclo[5.4.0]undeca-7,9,11-trien-9-ol
@<TRIPOS>ATOM
      1 C1          0.6642    3.4549   -5.4278 C.ar      1 <0>        -0.1007
      2 C2          1.5138    2.3792   -5.6068 C.ar      1 <0>        -0.1126
      3 C3          2.5078    2.1221   -4.6812 C.ar      1 <0>        -0.1076
      4 C4          2.6522    2.9407   -3.5767 C.ar      1 <0>        -0.1092
      5 C5          1.7992    4.0132   -3.3950 C.ar      1 <0>        -0.1044
      6 C6          0.8085    4.2734   -4.3233 C.ar      1 <0>        -0.1113
      7 C7          3.7356    2.6601   -2.5674 C.3       1 <0>        -0.0110
      8 H1          4.2852    1.7698   -2.8730 H         1 <0>         0.1086
      9 C8          4.6947    3.8485   -2.5190 C.3       1 <0>        -0.0086
     10 C9          6.0743    2.6935   -0.8968 C.3       1 <0>        -0.0042
     11 C10         5.0696    3.4019    0.0160 C.3       1 <0>        -0.1058
     12 C11         3.7307    2.7140   -0.0332 C.ar      1 <0>        -0.0991
     13 C12         3.1037    2.4128   -1.2196 C.ar      1 <0>        -0.0709
     14 C13         1.8429    1.8304   -1.2026 C.ar      1 <0>        -0.1150
     15 C14         1.2230    1.5325   -0.0014 C.ar      1 <0>         0.1347
     16 C15         1.8652    1.8236    1.1945 C.ar      1 <0>        -0.0564
     17 C16         3.1159    2.4062    1.1737 C.ar      1 <0>        -0.0838
     18 Cl1         1.1018    1.4499    2.7082 Cl        1 <0>        -0.0331
     19 O1         -0.0110    0.9628    0.0073 O.3       1 <0>        -0.4820
     20 H2         -0.1127    3.6555   -6.1508 H         1 <0>         0.1305
     21 H3          1.4008    1.7395   -6.4696 H         1 <0>         0.1307
     22 H4          3.1714    1.2816   -4.8209 H         1 <0>         0.1251
     23 H5          1.9093    4.6501   -2.5297 H         1 <0>         0.1220
     24 H6          0.1445    5.1135   -4.1832 H         1 <0>         0.1300
     25 H7          4.3718    4.5478   -1.7477 H         1 <0>         0.1438
     26 H8          4.7067    4.3484   -3.4875 H         1 <0>         0.1436
     27 H9          7.0751    2.7684   -0.4716 H         1 <0>         0.1420
     28 H10         5.7977    1.6448   -1.0057 H         1 <0>         0.1340
     29 H11         4.9545    4.4356   -0.3102 H         1 <0>         0.1029
     30 H12         5.4430    3.3885    1.0399 H         1 <0>         0.1190
     31 H13         1.3423    1.6086   -2.1335 H         1 <0>         0.1458
     32 H14         3.6185    2.6295    2.1032 H         1 <0>         0.1452
     33 H15         0.0021   -0.0041    0.0020 H         1 <0>         0.4024
     34 N1          6.0515    3.3551   -2.2113 N.4       1 <0>        -0.5182
     35 H16         6.7049    4.1470   -2.2022 H         1 <0>         0.4375
     36 H17         6.3382    2.6830   -2.9327 H         1 <0>         0.4361
@<TRIPOS>BOND
     1    1    6 ar
     2    1    2 ar
     3    1   20 1
     4    2    3 ar
     5    2   21 1
     6    3    4 ar
     7    3   22 1
     8    4    5 ar
     9    4    7 1
    10    5    6 ar
    11    5   23 1
    12    6   24 1
    13    7    8 1
    14    7   13 1
    15    7    9 1
    16    9   25 1
    17    9   26 1
    18    9   34 1
    19   10   11 1
    20   10   27 1
    21   10   28 1
    22   10   34 1
    23   11   12 1
    24   11   29 1
    25   11   30 1
    26   12   17 ar
    27   12   13 ar
    28   13   14 ar
    29   14   15 ar
    30   14   31 1
    31   15   16 ar
    32   15   19 1
    33   16   17 ar
    34   16   18 1
    35   17   32 1
    36   19   33 1
    37   34   35 1
    38   34   36 1
@<TRIPOS>MOLECULE
ZINC08581223
   37    39     0     0     0
SMALL
USER_CHARGES
8-cyclohexyl-1,3-dimethyl-7H-purine-2,6-dione
@<TRIPOS>ATOM
      1 C1          3.0658   -2.1400   -0.0391 C.3       1 <0>         0.0873
      2 N1          1.6616   -1.7224   -0.0235 N.am      1 <0>        -0.5100
      3 C2          1.3409   -0.3746   -0.0128 C.2       1 <0>         0.3177
      4 C3          0.0021   -0.0041    0.0020 C.2       1 <0>        -0.1631
      5 C4         -0.9895   -1.0086    0.0057 C.2       1 <0>         0.5945
      6 O1         -2.1700   -0.7090    0.0189 O.2       1 <0>        -0.5146
      7 N2         -0.6144   -2.3047   -0.0052 N.am      1 <0>        -0.5514
      8 C5          0.6848   -2.6490   -0.0190 C.2       1 <0>         0.7064
      9 O2          0.9856   -3.8272   -0.0282 O.2       1 <0>        -0.5327
     10 C6         -1.6385   -3.3523   -0.0015 C.3       1 <0>         0.0785
     11 N3         -0.0166    1.3763    0.0096 N.pl3     1 <0>        -0.5247
     12 H1         -0.9765    1.9133    0.0216 H         1 <0>         0.4665
     13 C7          1.2663    1.7875   -0.0004 C.2       1 <0>         0.3157
     14 N4          2.0626    0.7490   -0.0136 N.2       1 <0>        -0.4961
     15 C8          1.7164    3.2257    0.0030 C.3       1 <0>        -0.0088
     16 C9          0.7489    4.0608    0.8441 C.3       1 <0>        -0.1199
     17 C10         1.2058    5.5210    0.8476 C.3       1 <0>        -0.1185
     18 C11         1.2244    6.0530   -0.5868 C.3       1 <0>        -0.1250
     19 C12         2.1919    5.2179   -1.4279 C.3       1 <0>        -0.1196
     20 C13         1.7350    3.7577   -1.4314 C.3       1 <0>        -0.1122
     21 H2          3.7129   -1.2504   -0.0406 H         1 <0>         0.1004
     22 H3          3.2608   -2.7369   -0.9423 H         1 <0>         0.0800
     23 H4          3.2780   -2.7462    0.8539 H         1 <0>         0.0799
     24 H5         -1.1533   -4.3394   -0.0117 H         1 <0>         0.1073
     25 H6         -2.2740   -3.2469   -0.8931 H         1 <0>         0.0826
     26 H7         -2.2571   -3.2571    0.9031 H         1 <0>         0.0826
     27 H8          2.7271    3.2771    0.4341 H         1 <0>         0.1145
     28 H9         -0.2617    3.9938    0.4150 H         1 <0>         0.0644
     29 H10         0.7354    3.6783    1.8754 H         1 <0>         0.0721
     30 H11         0.5102    6.1214    1.4524 H         1 <0>         0.0694
     31 H12         2.2165    5.5880    1.2767 H         1 <0>         0.0692
     32 H13         0.2137    5.9860   -1.0158 H         1 <0>         0.0633
     33 H14         1.5528    7.1028   -0.5843 H         1 <0>         0.0669
     34 H15         2.2053    5.6004   -2.4592 H         1 <0>         0.0692
     35 H16         3.2026    5.2848   -0.9988 H         1 <0>         0.0687
     36 H17         2.4306    3.1573   -2.0361 H         1 <0>         0.0742
     37 H18         0.7243    3.6908   -1.8605 H         1 <0>         0.0654
@<TRIPOS>BOND
     1    1    2 1
     2    1   21 1
     3    1   22 1
     4    1   23 1
     5    2    8 am
     6    2    3 1
     7    3   14 1
     8    3    4 2
     9    4    5 1
    10    4   11 1
    11    5    6 2
    12    5    7 am
    13    7    8 am
    14    7   10 1
    15    8    9 2
    16   10   24 1
    17   10   25 1
    18   10   26 1
    19   11   12 1
    20   11   13 1
    21   13   14 2
    22   13   15 1
    23   15   20 1
    24   15   16 1
    25   15   27 1
    26   16   17 1
    27   16   28 1
    28   16   29 1
    29   17   18 1
    30   17   30 1
    31   17   31 1
    32   18   19 1
    33   18   32 1
    34   18   33 1
    35   19   20 1
    36   19   34 1
    37   19   35 1
    38   20   36 1
    39   20   37 1
@<TRIPOS>MOLECULE
ZINC01318428
   45    48     0     0     0
SMALL
USER_CHARGES

@<TRIPOS>ATOM
      1 C1         -0.0167    1.3781    0.0096 C.ar      1 <0>        -0.1100
      2 C2          1.1709    2.0855    0.0021 C.ar      1 <0>        -0.1223
      3 C3          2.3773    1.4107   -0.0130 C.ar      1 <0>        -0.0985
      4 C4          2.3960    0.0285   -0.0201 C.ar      1 <0>        -0.1141
      5 C5          1.2084   -0.6789   -0.0117 C.ar      1 <0>        -0.0982
      6 C6          0.0021   -0.0041    0.0020 C.ar      1 <0>        -0.1220
      7 C7          3.7112   -0.7071   -0.0376 C.3       1 <0>         0.1698
      8 N1          4.1518   -0.9524    1.3379 N.pl3     1 <0>        -0.6895
      9 C8          5.3418   -1.6178    1.5750 C.ar      1 <0>         0.5064
     10 C9          5.7772   -1.8669    2.8879 C.ar      1 <0>        -0.1066
     11 C10         6.9937   -2.5468    3.0655 C.ar      1 <0>         0.3136
     12 N2          7.6834   -2.9273    1.9949 N.ar      1 <0>        -0.5504
     13 C11         7.2363   -2.6726    0.7834 C.ar      1 <0>         0.3651
     14 N3          6.0968   -2.0410    0.5666 N.ar      1 <0>        -0.5883
     15 N4          7.1733   -2.6528    4.4215 N.pl3     1 <0>        -0.4716
     16 C12         6.1042   -2.0585    5.0231 C.2       1 <0>         0.2618
     17 N5          5.2862   -1.5981    4.1215 N.2       1 <0>        -0.4599
     18 C13         8.3061   -3.2886    5.0988 C.3       1 <0>         0.3140
     19 H1          8.6443   -4.1585    4.5358 H         1 <0>         0.1230
     20 C14         9.4624   -2.2795    5.2754 C.3       1 <0>         0.0797
     21 H2          9.0821   -1.2580    5.2693 H         1 <0>         0.0851
     22 C15        10.0566   -2.6277    6.6586 C.3       1 <0>         0.0473
     23 H3          9.9700   -1.7783    7.3362 H         1 <0>         0.0869
     24 C16         9.1890   -3.8059    7.1540 C.3       1 <0>         0.0504
     25 H4          9.6632   -4.7560    6.9078 H         1 <0>         0.1001
     26 O1          7.9385   -3.6711    6.4422 O.3       1 <0>        -0.3469
     27 C17         8.9603   -3.7013    8.6632 C.3       1 <0>         0.0821
     28 O2          8.2565   -4.8582    9.1197 O.3       1 <0>        -0.5634
     29 O3         11.4226   -3.0273    6.5305 O.3       1 <0>        -0.5387
     30 O4         10.4408   -2.4544    4.2487 O.3       1 <0>        -0.5252
     31 H5         -0.9591    1.9053    0.0259 H         1 <0>         0.1239
     32 H6          1.1563    3.1654    0.0076 H         1 <0>         0.1246
     33 H7          3.3051    1.9634   -0.0196 H         1 <0>         0.1239
     34 H8          1.2231   -1.7588   -0.0176 H         1 <0>         0.1241
     35 H9         -0.9258   -0.5567    0.0082 H         1 <0>         0.1248
     36 H10         3.5884   -1.6586   -0.5549 H         1 <0>         0.0799
     37 H11         4.4573   -0.1052   -0.5563 H         1 <0>         0.0799
     38 H12         3.6095   -0.6484    2.0824 H         1 <0>         0.4188
     39 H13         7.8213   -2.9952   -0.0651 H         1 <0>         0.2052
     40 H14         5.9575   -1.9811    6.0902 H         1 <0>         0.2226
     41 H15         9.9216   -3.6362    9.1727 H         1 <0>         0.0671
     42 H16         8.3727   -2.8093    8.8806 H         1 <0>         0.0609
     43 H17         8.0765   -4.8596   10.0698 H         1 <0>         0.3868
     44 H18        11.8453   -3.2574    7.3692 H         1 <0>         0.3873
     45 H19        11.1897   -1.8460    4.3114 H         1 <0>         0.3905
@<TRIPOS>BOND
     1    1    6 ar
     2    1    2 ar
     3    1   31 1
     4    2    3 ar
     5    2   32 1
     6    3    4 ar
     7    3   33 1
     8    4    5 ar
     9    4    7 1
    10    5    6 ar
    11    5   34 1
    12    6   35 1
    13    7    8 1
    14    7   36 1
    15    7   37 1
    16    8    9 1
    17    8   38 1
    18    9   14 ar
    19    9   10 ar
    20   10   17 1
    21   10   11 ar
    22   11   12 ar
    23   11   15 1
    24   12   13 ar
    25   13   14 ar
    26   13   39 1
    27   15   16 1
    28   15   18 1
    29   16   17 2
    30   16   40 1
    31   18   19 1
    32   18   26 1
    33   18   20 1
    34   20   21 1
    35   20   22 1
    36   20   30 1
    37   22   23 1
    38   22   24 1
    39   22   29 1
    40   24   25 1
    41   24   26 1
    42   24   27 1
    43   27   28 1
    44   27   41 1
    45   27   42 1
    46   28   43 1
    47   29   44 1
    48   30   45 1
@<TRIPOS>MOLECULE
ZINC25758070
   30    32     0     0     0
SMALL
USER_CHARGES

@<TRIPOS>ATOM
      1 C1         -0.0167    1.3779    0.0096 C.ar      1 <0>        -0.0976
      2 C2          1.1696    2.0886    0.0021 C.ar      1 <0>        -0.1278
      3 C3          2.3802    1.4154   -0.0130 C.ar      1 <0>         0.0797
      4 C4          2.3990    0.0236   -0.0206 C.ar      1 <0>         0.0829
      5 C5          1.2071   -0.6822   -0.0130 C.ar      1 <0>        -0.1227
      6 C6          0.0021   -0.0041    0.0020 C.ar      1 <0>        -0.0665
      7 C7         -1.2936   -0.7736    0.0102 C.3       1 <0>         0.0189
      8 H1         -1.0859   -1.8436    0.0025 H         1 <0>         0.0985
      9 C8         -2.1241   -0.3998   -1.2202 C.3       1 <0>         0.0621
     10 N1         -3.4669   -0.9893   -1.1257 N.3       1 <0>        -0.6817
     11 C9         -4.2657   -0.3009   -0.0931 C.3       1 <0>         0.1349
     12 C10        -3.4414   -0.2086    1.1485 C.2       1 <0>        -0.1584
     13 C11        -2.0983   -0.4141    1.2566 C.2       1 <0>        -0.1051
     14 C12        -1.5451   -0.2775    2.5270 C.2       1 <0>        -0.1424
     15 C13        -2.3352    0.0471    3.5771 C.2       1 <0>        -0.1749
     16 S1         -3.9418    0.1818    2.8019 S.3       1 <0>         0.0555
     17 O1          3.5850   -0.6417   -0.0359 O.3       1 <0>        -0.4873
     18 O2          3.5476    2.1129   -0.0209 O.3       1 <0>        -0.4882
     19 H2         -0.9598    1.9038    0.0259 H         1 <0>         0.1259
     20 H3          1.1522    3.1684    0.0077 H         1 <0>         0.1337
     21 H4          1.2190   -1.7621   -0.0189 H         1 <0>         0.1348
     22 H5         -2.2097    0.6851   -1.2821 H         1 <0>         0.0415
     23 H6         -1.6287   -0.7722   -2.1169 H         1 <0>         0.0844
     24 H7         -3.9351   -0.9675   -2.0193 H         1 <0>         0.3553
     25 H8         -4.5267    0.7001   -0.4366 H         1 <0>         0.0562
     26 H9         -5.1734   -0.8693    0.1094 H         1 <0>         0.0969
     27 H10        -0.4862   -0.4306    2.6745 H         1 <0>         0.1291
     28 H11        -2.0653    0.1896    4.6131 H         1 <0>         0.1868
     29 H12         3.9367   -0.8389    0.8430 H         1 <0>         0.3880
     30 H13         3.8938    2.3101    0.8602 H         1 <0>         0.3877
@<TRIPOS>BOND
     1    1    6 ar
     2    1    2 ar
     3    1   19 1
     4    2    3 ar
     5    2   20 1
     6    3    4 ar
     7    3   18 1
     8    4    5 ar
     9    4   17 1
    10    5    6 ar
    11    5   21 1
    12    6    7 1
    13    7    8 1
    14    7   13 1
    15    7    9 1
    16    9   10 1
    17    9   22 1
    18    9   23 1
    19   10   11 1
    20   10   24 1
    21   11   12 1
    22   11   25 1
    23   11   26 1
    24   12   16 1
    25   12   13 2
    26   13   14 1
    27   14   15 2
    28   14   27 1
    29   15   16 1
    30   15   28 1
    31   17   29 1
    32   18   30 1
@<TRIPOS>MOLECULE
ZINC01572556
   37    39     0     0     0
SMALL
USER_CHARGES

@<TRIPOS>ATOM
      1 C1         -0.0167    1.3781    0.0096 C.ar      1 <0>        -0.1021
      2 C2          1.1709    2.0855    0.0021 C.ar      1 <0>        -0.1116
      3 C3          2.3773    1.4107   -0.0130 C.ar      1 <0>        -0.1074
      4 C4          2.3960    0.0285   -0.0201 C.ar      1 <0>        -0.1062
      5 C5          1.2084   -0.6789   -0.0117 C.ar      1 <0>        -0.1069
      6 C6          0.0021   -0.0041    0.0020 C.ar      1 <0>        -0.1130
      7 C7          3.7112   -0.7071   -0.0376 C.3       1 <0>        -0.0112
      8 H1          4.5257    0.0172   -0.0425 H         1 <0>         0.1069
      9 C8          3.7915   -1.5603   -1.3031 C.3       1 <0>        -0.0144
     10 N1          5.1916   -1.6165   -1.7368 N.4       1 <0>        -0.5063
     11 C9          6.0187   -2.2475   -0.7081 C.3       1 <0>        -0.0089
     12 C10         5.1683   -3.3128   -0.0089 C.3       1 <0>        -0.1074
     13 C11         4.5156   -2.7482    1.2263 C.ar      1 <0>        -0.0936
     14 C12         3.8165   -1.5619    1.2015 C.ar      1 <0>        -0.0841
     15 C13         3.1852   -1.1114    2.3534 C.ar      1 <0>        -0.1103
     16 C14         3.2766   -1.8307    3.5311 C.ar      1 <0>         0.0980
     17 C15         4.0097   -3.0132    3.5615 C.ar      1 <0>         0.0987
     18 C16         4.6249   -3.4646    2.4096 C.ar      1 <0>        -0.1190
     19 O1          4.1218   -3.7189    4.7186 O.3       1 <0>        -0.4834
     20 O2          2.6533   -1.3843    4.6544 O.3       1 <0>        -0.4835
     21 H2         -0.9591    1.9053    0.0259 H         1 <0>         0.1302
     22 H3          1.1563    3.1654    0.0076 H         1 <0>         0.1307
     23 H4          3.3051    1.9634   -0.0196 H         1 <0>         0.1253
     24 H5          1.2231   -1.7588   -0.0176 H         1 <0>         0.1218
     25 H6         -0.9258   -0.5567    0.0082 H         1 <0>         0.1293
     26 H7          3.4334   -2.5674   -1.0894 H         1 <0>         0.1460
     27 H8          3.1827   -1.1105   -2.0875 H         1 <0>         0.1444
     28 H9          5.2555   -2.1506   -2.5905 H         1 <0>         0.4320
     29 H10         6.8888   -2.7145   -1.1695 H         1 <0>         0.1435
     30 H11         6.3413   -1.4994    0.0160 H         1 <0>         0.1353
     31 H12         4.3966   -3.6628   -0.6945 H         1 <0>         0.1021
     32 H13         5.8044   -4.1518    0.2729 H         1 <0>         0.1175
     33 H14         2.6187   -0.1922    2.3295 H         1 <0>         0.1410
     34 H15         5.1924   -4.3832    2.4301 H         1 <0>         0.1414
     35 H16         3.4269   -4.3793    4.8454 H         1 <0>         0.3971
     36 H17         1.7486   -1.7097    4.7579 H         1 <0>         0.3966
     37 H18         5.5265   -0.6799   -1.9063 H         1 <0>         0.4313
@<TRIPOS>BOND
     1    1    6 ar
     2    1    2 ar
     3    1   21 1
     4    2    3 ar
     5    2   22 1
     6    3    4 ar
     7    3   23 1
     8    4    5 ar
     9    4    7 1
    10    5    6 ar
    11    5   24 1
    12    6   25 1
    13    7    8 1
    14    7   14 1
    15    7    9 1
    16    9   10 1
    17    9   26 1
    18    9   27 1
    19   10   11 1
    20   10   28 1
    21   10   37 1
    22   11   12 1
    23   11   29 1
    24   11   30 1
    25   12   13 1
    26   12   31 1
    27   12   32 1
    28   13   18 ar
    29   13   14 ar
    30   14   15 ar
    31   15   16 ar
    32   15   33 1
    33   16   17 ar
    34   16   20 1
    35   17   18 ar
    36   17   19 1
    37   18   34 1
    38   19   35 1
    39   20   36 1
@<TRIPOS>MOLECULE
ZINC13675869
   33    35     0     0     0
SMALL
USER_CHARGES

@<TRIPOS>ATOM
      1 C1         -0.0167    1.3781    0.0096 C.ar      1 <0>        -0.0998
      2 C2          1.1709    2.0855    0.0021 C.ar      1 <0>        -0.1119
      3 C3          2.3773    1.4107   -0.0130 C.ar      1 <0>        -0.1037
      4 C4          2.3960    0.0285   -0.0201 C.ar      1 <0>        -0.1059
      5 C5          1.2084   -0.6789   -0.0117 C.ar      1 <0>        -0.1062
      6 C6          0.0021   -0.0041    0.0020 C.ar      1 <0>        -0.1120
      7 C7          3.7112   -0.7071   -0.0376 C.3       1 <0>        -0.0187
      8 C8          3.8194   -1.5846    1.2101 C.3       1 <0>        -0.0017
      9 N1          4.9981   -2.4536    1.0715 N.4       1 <0>        -0.5040
     10 C9          4.7135   -3.4868    0.0716 C.3       1 <0>         0.0485
     11 C10         4.2585   -2.8620   -1.2211 C.ar      1 <0>        -0.1349
     12 C11         3.7886   -1.5661   -1.2741 C.ar      1 <0>        -0.0639
     13 C12         3.3763   -1.0283   -2.4822 C.ar      1 <0>        -0.1099
     14 C13         3.4347   -1.7861   -3.6405 C.ar      1 <0>         0.1491
     15 C14         3.9095   -3.0894   -3.5866 C.ar      1 <0>        -0.0584
     16 C15         4.3189   -3.6215   -2.3802 C.ar      1 <0>        -0.0710
     17 Cl1         3.9879   -4.0478   -5.0320 Cl        1 <0>        -0.0256
     18 O1          3.0284   -1.2560   -4.8244 O.3       1 <0>        -0.4801
     19 H1         -0.9591    1.9053    0.0259 H         1 <0>         0.1309
     20 H2          1.1563    3.1654    0.0076 H         1 <0>         0.1315
     21 H3          3.3051    1.9634   -0.0196 H         1 <0>         0.1274
     22 H4          1.2231   -1.7588   -0.0176 H         1 <0>         0.1196
     23 H5         -0.9258   -0.5567    0.0082 H         1 <0>         0.1296
     24 H6          4.5292    0.0132   -0.0449 H         1 <0>         0.1191
     25 H7          3.9312   -0.9543    2.0923 H         1 <0>         0.1459
     26 H8          2.9227   -2.1968    1.3058 H         1 <0>         0.1380
     27 H9          5.7898   -1.9038    0.7730 H         1 <0>         0.4328
     28 H10         5.6162   -4.0702   -0.1093 H         1 <0>         0.1462
     29 H11         3.9303   -4.1450    0.4479 H         1 <0>         0.1441
     30 H12         3.0073   -0.0140   -2.5213 H         1 <0>         0.1493
     31 H13         4.6881   -4.6356   -2.3387 H         1 <0>         0.1504
     32 H14         3.7306   -0.8098   -5.3172 H         1 <0>         0.4060
     33 H15         5.2027   -2.8891    1.9584 H         1 <0>         0.4395
@<TRIPOS>BOND
     1    1    6 ar
     2    1    2 ar
     3    1   19 1
     4    2    3 ar
     5    2   20 1
     6    3    4 ar
     7    3   21 1
     8    4    5 ar
     9    4    7 1
    10    5    6 ar
    11    5   22 1
    12    6   23 1
    13    7   12 1
    14    7    8 1
    15    7   24 1
    16    8    9 1
    17    8   25 1
    18    8   26 1
    19    9   10 1
    20    9   27 1
    21    9   33 1
    22   10   11 1
    23   10   28 1
    24   10   29 1
    25   11   16 ar
    26   11   12 ar
    27   12   13 ar
    28   13   14 ar
    29   13   30 1
    30   14   15 ar
    31   14   18 1
    32   15   16 ar
    33   15   17 1
    34   16   31 1
    35   18   32 1
@<TRIPOS>MOLECULE
ZINC13675869
   32    34     0     0     0
SMALL
USER_CHARGES
(4R)-7-chloro-4-phenyl-1,2,3,4-tetrahydroisoquinolin-6-ol
@<TRIPOS>ATOM
      1 C1         -2.7144    4.7491   -4.4210 C.ar      1 <0>        -0.1125
      2 C2         -3.4520    4.7366   -3.2520 C.ar      1 <0>        -0.1172
      3 C3         -2.9223    4.1723   -2.1066 C.ar      1 <0>        -0.1091
      4 C4         -1.6550    3.6206   -2.1302 C.ar      1 <0>        -0.0802
      5 C5         -0.9154    3.6379   -3.2979 C.ar      1 <0>        -0.1005
      6 C6         -1.4471    4.1974   -4.4447 C.ar      1 <0>        -0.1163
      7 C7         -1.0774    3.0059   -0.8814 C.3       1 <0>        -0.0204
      8 H1         -1.7998    3.1066   -0.0580 H         1 <0>         0.1026
      9 C8         -0.7778    1.5281   -1.1347 C.3       1 <0>         0.0107
     10 N1         -0.0116    1.0048    0.0076 N.4       1 <0>        -0.5283
     11 C9          1.3500    1.5489   -0.0025 C.3       1 <0>         0.0798
     12 C10         1.3168    3.0522   -0.0931 C.ar      1 <0>        -0.2923
     13 C11         0.1898    3.7311   -0.5067 C.ar      1 <0>        -0.0353
     14 C12         0.2047    5.1148   -0.5811 C.ar      1 <0>        -0.2285
     15 C13         1.3454    5.8215   -0.2373 C.ar      1 <0>         0.2886
     16 C14         2.4780    5.1372    0.1822 C.ar      1 <0>        -0.1610
     17 C15         2.4599    3.7587    0.2521 C.ar      1 <0>        -0.0376
     18 Cl1         3.9126    6.0124    0.6180 Cl        1 <0>        -0.0909
     19 O1          1.3558    7.1787   -0.3109 O.3       1 <0>        -0.6682
     20 H2         -3.1280    5.1902   -5.3158 H         1 <0>         0.1237
     21 H3         -4.4419    5.1679   -3.2334 H         1 <0>         0.1246
     22 H4         -3.4984    4.1629   -1.1931 H         1 <0>         0.1225
     23 H5          0.0764    3.2108   -3.3152 H         1 <0>         0.1200
     24 H6         -0.8707    4.2075   -5.3579 H         1 <0>         0.1239
     25 H7         -1.7229    0.9749   -1.2380 H         1 <0>         0.1287
     26 H8         -0.1904    1.4262   -2.0591 H         1 <0>         0.1273
     27 H9         -0.5077    1.2948    0.9456 H         1 <0>         0.4492
     28 H10         1.8679    1.2581    0.9234 H         1 <0>         0.1188
     29 H11         1.8976    1.1507   -0.8695 H         1 <0>         0.1120
     30 H12        -0.6777    5.6449   -0.9080 H         1 <0>         0.1106
     31 H13         3.3413    3.2265    0.5781 H         1 <0>         0.1102
     32 H14         0.0391   -0.0922   -0.0565 H         1 <0>         0.4451
@<TRIPOS>BOND
     1    1    6 ar
     2    1    2 ar
     3    1   20 1
     4    2    3 ar
     5    2   21 1
     6    3    4 ar
     7    3   22 1
     8    4    5 ar
     9    4    7 1
    10    5    6 ar
    11    5   23 1
    12    6   24 1
    13    7    8 1
    14    7   13 1
    15    7    9 1
    16    9   10 1
    17    9   25 1
    18    9   26 1
    19   10   11 1
    20   10   27 1
    21   10   32 1
    22   11   12 1
    23   11   28 1
    24   11   29 1
    25   12   17 ar
    26   12   13 ar
    27   13   14 ar
    28   14   15 ar
    29   14   30 1
    30   15   16 ar
    31   15   19 1
    32   16   17 ar
    33   16   18 1
    34   17   31 1
@<TRIPOS>MOLECULE
ZINC13675870
   32    34     0     0     0
SMALL
USER_CHARGES
(4S)-7-chloro-4-phenyl-1,2,3,4-tetrahydroisoquinolin-6-ol
@<TRIPOS>ATOM
      1 C1          1.1750    1.7832    0.0004 C.ar      1 <0>        -0.1193
      2 C2         -0.0126    1.0758    0.0080 C.ar      1 <0>        -0.1177
      3 C3         -1.2190    1.7507    0.0173 C.ar      1 <0>        -0.1071
      4 C4         -1.2377    3.1328    0.0290 C.ar      1 <0>        -0.0788
      5 C5         -0.0501    3.8402    0.0223 C.ar      1 <0>        -0.1126
      6 C6          1.1563    3.1654    0.0081 C.ar      1 <0>        -0.1173
      7 C7         -2.5529    3.8685    0.0441 C.3       1 <0>        -0.0049
      8 H1         -2.3639    4.9521    0.0351 H         1 <0>         0.1033
      9 C8         -3.3350    3.4843    1.3004 C.3       1 <0>         0.0530
     10 N1         -4.6974    4.0289    1.1866 N.3       1 <0>        -0.6669
     11 C9         -5.4572    3.2883    0.1747 C.3       1 <0>         0.0906
     12 C10        -4.6959    3.2374   -1.1243 C.ar      1 <0>        -0.1113
     13 C11        -3.3452    3.5024   -1.1848 C.ar      1 <0>        -0.0135
     14 C12        -2.6839    3.4371   -2.4009 C.ar      1 <0>        -0.1442
     15 C13        -3.3743    3.1078   -3.5557 C.ar      1 <0>         0.1717
     16 C14        -4.7354    2.8426   -3.4913 C.ar      1 <0>        -0.1315
     17 C15        -5.3881    2.9107   -2.2814 C.ar      1 <0>        -0.0658
     18 Cl1        -5.6114    2.4304   -4.9323 Cl        1 <0>        -0.0628
     19 O1         -2.7221    3.0449   -4.7466 O.3       1 <0>        -0.5001
     20 H2          2.1175    1.2560   -0.0111 H         1 <0>         0.1220
     21 H3          0.0021   -0.0041    0.0020 H         1 <0>         0.1217
     22 H4         -2.1469    1.1980    0.0188 H         1 <0>         0.1169
     23 H5         -0.0647    4.9201    0.0280 H         1 <0>         0.1237
     24 H6          2.0841    3.7181    0.0025 H         1 <0>         0.1235
     25 H7         -3.3746    2.3884    1.3868 H         1 <0>         0.0429
     26 H8         -2.8355    3.9041    2.1860 H         1 <0>         0.0870
     27 H9         -5.2095    3.9413    2.1562 H         1 <0>         0.3525
     28 H10        -5.6322    2.2609    0.5267 H         1 <0>         0.0480
     29 H11        -6.4228    3.7867    0.0036 H         1 <0>         0.0925
     30 H12        -1.6249    3.6437   -2.4484 H         1 <0>         0.1374
     31 H13        -6.4470    2.7038   -2.2327 H         1 <0>         0.1356
     32 H14        -3.2728    2.7831   -5.6621 H         1 <0>         0.4317
@<TRIPOS>BOND
     1    1    6 ar
     2    1    2 ar
     3    1   20 1
     4    2    3 ar
     5    2   21 1
     6    3    4 ar
     7    3   22 1
     8    4    5 ar
     9    4    7 1
    10    5    6 ar
    11    5   23 1
    12    6   24 1
    13    7    8 1
    14    7   13 1
    15    7    9 1
    16    9   10 1
    17    9   25 1
    18    9   26 1
    19   10   11 1
    20   10   27 1
    21   11   12 1
    22   11   28 1
    23   11   29 1
    24   12   17 ar
    25   12   13 ar
    26   13   14 ar
    27   14   15 ar
    28   14   30 1
    29   15   16 ar
    30   15   19 1
    31   16   17 ar
    32   16   18 1
    33   17   31 1
    34   19   32 1
@<TRIPOS>MOLECULE
ZINC13675870
   32    34     0     0     0
SMALL
USER_CHARGES
(4S)-7-chloro-4-phenyl-1,2,3,4-tetrahydroisoquinolin-6-ol
@<TRIPOS>ATOM
      1 C1          1.1750    1.7832    0.0004 C.ar      1 <0>        -0.1126
      2 C2         -0.0126    1.0758    0.0080 C.ar      1 <0>        -0.1163
      3 C3         -1.2190    1.7507    0.0173 C.ar      1 <0>        -0.1007
      4 C4         -1.2377    3.1328    0.0290 C.ar      1 <0>        -0.0801
      5 C5         -0.0501    3.8402    0.0223 C.ar      1 <0>        -0.1090
      6 C6          1.1563    3.1654    0.0081 C.ar      1 <0>        -0.1172
      7 C7         -2.5529    3.8685    0.0441 C.3       1 <0>        -0.0203
      8 H1         -2.3639    4.9521    0.0351 H         1 <0>         0.1027
      9 C8         -3.3350    3.4843    1.3004 C.3       1 <0>         0.0106
     10 N1         -4.6974    4.0289    1.1866 N.4       1 <0>        -0.5282
     11 C9         -5.4572    3.2883    0.1747 C.3       1 <0>         0.0796
     12 C10        -4.6959    3.2374   -1.1243 C.ar      1 <0>        -0.2925
     13 C11        -3.3452    3.5024   -1.1848 C.ar      1 <0>        -0.0347
     14 C12        -2.6839    3.4371   -2.4009 C.ar      1 <0>        -0.2300
     15 C13        -3.3743    3.1078   -3.5557 C.ar      1 <0>         0.2886
     16 C14        -4.7354    2.8426   -3.4913 C.ar      1 <0>        -0.1597
     17 C15        -5.3881    2.9107   -2.2814 C.ar      1 <0>        -0.0379
     18 Cl1        -5.6114    2.4304   -4.9323 Cl        1 <0>        -0.0908
     19 O1         -2.7221    3.0449   -4.7466 O.3       1 <0>        -0.6680
     20 H2          2.1175    1.2560   -0.0111 H         1 <0>         0.1237
     21 H3          0.0021   -0.0041    0.0020 H         1 <0>         0.1239
     22 H4         -2.1469    1.1980    0.0188 H         1 <0>         0.1199
     23 H5         -0.0647    4.9201    0.0280 H         1 <0>         0.1225
     24 H6          2.0841    3.7181    0.0025 H         1 <0>         0.1246
     25 H7         -3.3746    2.3884    1.3868 H         1 <0>         0.1274
     26 H8         -2.8355    3.9041    2.1860 H         1 <0>         0.1287
     27 H9         -5.2095    3.9413    2.1562 H         1 <0>         0.4451
     28 H10        -5.6322    2.2609    0.5267 H         1 <0>         0.1120
     29 H11        -6.4228    3.7867    0.0036 H         1 <0>         0.1188
     30 H12        -1.6249    3.6437   -2.4484 H         1 <0>         0.1104
     31 H13        -6.4470    2.7038   -2.2327 H         1 <0>         0.1099
     32 H14        -4.6457    5.0879    0.8937 H         1 <0>         0.4492
@<TRIPOS>BOND
     1    1    6 ar
     2    1    2 ar
     3    1   20 1
     4    2    3 ar
     5    2   21 1
     6    3    4 ar
     7    3   22 1
     8    4    5 ar
     9    4    7 1
    10    5    6 ar
    11    5   23 1
    12    6   24 1
    13    7    8 1
    14    7   13 1
    15    7    9 1
    16    9   10 1
    17    9   25 1
    18    9   26 1
    19   10   11 1
    20   10   27 1
    21   10   32 1
    22   11   12 1
    23   11   28 1
    24   11   29 1
    25   12   17 ar
    26   12   13 ar
    27   13   14 ar
    28   14   15 ar
    29   14   30 1
    30   15   16 ar
    31   15   19 1
    32   16   17 ar
    33   16   18 1
    34   17   31 1
@<TRIPOS>MOLECULE
ZINC00033882
   23    23     0     0     0
SMALL
USER_CHARGES

@<TRIPOS>ATOM
      1 C1         -0.0167    1.3779    0.0096 C.ar      1 <0>        -0.1006
      2 C2          1.1696    2.0886    0.0021 C.ar      1 <0>        -0.1264
      3 C3          2.3802    1.4154   -0.0130 C.ar      1 <0>         0.0999
      4 C4          2.3990    0.0236   -0.0206 C.ar      1 <0>         0.0875
      5 C5          1.2071   -0.6822   -0.0130 C.ar      1 <0>        -0.1216
      6 C6          0.0021   -0.0041    0.0020 C.ar      1 <0>        -0.1052
      7 C7         -1.2936   -0.7736    0.0102 C.3       1 <0>        -0.1010
      8 C8         -1.7458   -1.0263   -1.4294 C.3       1 <0>        -0.0078
      9 N1         -3.0088   -1.7764   -1.4215 N.4       1 <0>        -0.6379
     10 O1          3.5850   -0.6417   -0.0359 O.3       1 <0>        -0.4857
     11 O2          3.5476    2.1129   -0.0209 O.3       1 <0>        -0.4857
     12 H1         -0.9598    1.9038    0.0259 H         1 <0>         0.1332
     13 H2          1.1522    3.1684    0.0077 H         1 <0>         0.1416
     14 H3          1.2190   -1.7621   -0.0189 H         1 <0>         0.1358
     15 H4         -1.1467   -1.7271    0.5175 H         1 <0>         0.0975
     16 H5         -2.0555   -0.1967    0.5344 H         1 <0>         0.0990
     17 H6         -1.8927   -0.0728   -1.9368 H         1 <0>         0.1365
     18 H7         -0.9839   -1.6032   -1.9536 H         1 <0>         0.1360
     19 H8         -2.8729   -2.6590   -0.9518 H         1 <0>         0.4357
     20 H9         -3.7141   -1.2424   -0.9362 H         1 <0>         0.4357
     21 H10         3.9367   -0.8389    0.8430 H         1 <0>         0.3958
     22 H11         3.8938    2.3101    0.8602 H         1 <0>         0.3975
     23 H12        -3.3071   -1.9430   -2.3709 H         1 <0>         0.4400
@<TRIPOS>BOND
     1    1    6 ar
     2    1    2 ar
     3    1   12 1
     4    2    3 ar
     5    2   13 1
     6    3    4 ar
     7    3   11 1
     8    4    5 ar
     9    4   10 1
    10    5    6 ar
    11    5   14 1
    12    6    7 1
    13    7    8 1
    14    7   15 1
    15    7   16 1
    16    8    9 1
    17    8   17 1
    18    8   18 1
    19    9   19 1
    20    9   20 1
    21    9   23 1
    22   10   21 1
    23   11   22 1
@<TRIPOS>MOLECULE
ZINC02017838
   39    41     0     0     0
SMALL
USER_CHARGES

@<TRIPOS>ATOM
      1 C1         -0.6937    1.1592   -0.0446 C.3       1 <0>        -0.0565
      2 N1         -0.3969   -0.2790   -0.0054 N.4       1 <0>        -0.3850
      3 C2         -1.6538   -1.0043   -0.0501 C.3       1 <0>        -0.0076
      4 C3         -1.4199   -2.4952   -0.3132 C.3       1 <0>        -0.1241
      5 C4         -1.1505   -3.1735    1.0151 C.ar      1 <0>        -0.0918
      6 C5         -2.0820   -4.0505    1.5403 C.ar      1 <0>        -0.0811
      7 C6         -1.8332   -4.6676    2.7530 C.ar      1 <0>        -0.0563
      8 C7         -0.6533   -4.4051    3.4363 C.ar      1 <0>         0.1329
      9 C8          0.2760   -3.5241    2.9016 C.ar      1 <0>        -0.1156
     10 C9          0.0175   -2.9133    1.6891 C.ar      1 <0>        -0.0810
     11 C10         1.0293   -1.9515    1.0995 C.3       1 <0>        -0.0159
     12 H1          1.9511   -1.9857    1.6803 H         1 <0>         0.1371
     13 C11         0.4364   -0.5401    1.1546 C.3       1 <0>        -0.0043
     14 C12         1.3158   -2.3287   -0.3312 C.ar      1 <0>        -0.1097
     15 C13         1.8000   -1.3802   -1.2124 C.ar      1 <0>        -0.1733
     16 C14         2.0628   -1.7262   -2.5247 C.ar      1 <0>        -0.0962
     17 C15         1.8417   -3.0209   -2.9556 C.ar      1 <0>        -0.1047
     18 C16         1.3582   -3.9697   -2.0742 C.ar      1 <0>        -0.0974
     19 C17         1.0996   -3.6247   -0.7608 C.ar      1 <0>        -0.0998
     20 O1         -0.4084   -5.0112    4.6281 O.3       1 <0>        -0.4829
     21 Cl1        -2.9964   -5.7696    3.4209 Cl        1 <0>        -0.0327
     22 H2          0.2376    1.7205   -0.1192 H         1 <0>         0.1249
     23 H3         -1.3197    1.3775   -0.9098 H         1 <0>         0.1261
     24 H4         -1.2194    1.4467    0.8659 H         1 <0>         0.1243
     25 H5         -2.1695   -0.8858    0.9029 H         1 <0>         0.1287
     26 H6         -2.2756   -0.5939   -0.8458 H         1 <0>         0.1374
     27 H7         -2.3059   -2.9306   -0.7754 H         1 <0>         0.1178
     28 H8         -0.5608   -2.6221   -0.9718 H         1 <0>         0.1192
     29 H9         -2.9990   -4.2523    1.0065 H         1 <0>         0.1469
     30 H10         1.1951   -3.3169    3.4296 H         1 <0>         0.1482
     31 H11         1.2473    0.1878    1.1838 H         1 <0>         0.1401
     32 H12        -0.1658   -0.4399    2.0576 H         1 <0>         0.1368
     33 H13         1.9728   -0.3686   -0.8757 H         1 <0>         0.1276
     34 H14         2.4405   -0.9849   -3.2133 H         1 <0>         0.1374
     35 H15         2.0463   -3.2910   -3.9811 H         1 <0>         0.1370
     36 H16         1.1852   -4.9811   -2.4110 H         1 <0>         0.1371
     37 H17         0.7254   -4.3669   -0.0712 H         1 <0>         0.1352
     38 H18         0.0553   -5.8562    4.5517 H         1 <0>         0.4036
     39 H19         0.1305   -0.5139   -0.8329 H         1 <0>         0.4177
@<TRIPOS>BOND
     1    1    2 1
     2    1   22 1
     3    1   23 1
     4    1   24 1
     5    2   13 1
     6    2    3 1
     7    2   39 1
     8    3    4 1
     9    3   25 1
    10    3   26 1
    11    4    5 1
    12    4   27 1
    13    4   28 1
    14    5   10 ar
    15    5    6 ar
    16    6    7 ar
    17    6   29 1
    18    7    8 ar
    19    7   21 1
    20    8    9 ar
    21    8   20 1
    22    9   10 ar
    23    9   30 1
    24   10   11 1
    25   11   12 1
    26   11   13 1
    27   11   14 1
    28   13   31 1
    29   13   32 1
    30   14   19 ar
    31   14   15 ar
    32   15   16 ar
    33   15   33 1
    34   16   17 ar
    35   16   34 1
    36   17   18 ar
    37   17   35 1
    38   18   19 ar
    39   18   36 1
    40   19   37 1
    41   20   38 1
@<TRIPOS>MOLECULE
ZINC06530699
   31    33     0     0     0
SMALL
USER_CHARGES

@<TRIPOS>ATOM
      1 C1         -0.0178    1.4608    0.0101 C.3       1 <0>         0.0850
      2 N1          0.0021   -0.0041    0.0020 N.am      1 <0>        -0.5111
      3 C2         -1.1897   -0.7124    0.0038 C.2       1 <0>         0.3278
      4 C3         -1.1428   -2.1029   -0.0044 C.2       1 <0>        -0.1445
      5 C4          0.1120   -2.7482   -0.0141 C.2       1 <0>         0.5940
      6 O1          0.1791   -3.9644   -0.0218 O.2       1 <0>        -0.5118
      7 N2          1.2366   -2.0029   -0.0150 N.am      1 <0>        -0.5508
      8 C5          1.1775   -0.6601   -0.0127 C.2       1 <0>         0.7084
      9 O2          2.2123   -0.0215   -0.0188 O.2       1 <0>        -0.5295
     10 C6          2.5422   -2.6674   -0.0245 C.3       1 <0>         0.0827
     11 N3         -2.4535   -2.5389   -0.0001 N.pl3     1 <0>        -0.5140
     12 H1         -2.7564   -3.4603   -0.0033 H         1 <0>         0.4370
     13 C7         -3.2382   -1.4264    0.0105 C.2       1 <0>         0.3432
     14 N4         -2.4728   -0.3531    0.0126 N.2       1 <0>        -0.4818
     15 C8         -4.7165   -1.4227    0.0178 C.ar      1 <0>        -0.0394
     16 C9         -5.4205   -2.6279    0.0200 C.ar      1 <0>        -0.0979
     17 C10        -6.8000   -2.6174    0.0273 C.ar      1 <0>        -0.1167
     18 C11        -7.4857   -1.4156    0.0321 C.ar      1 <0>        -0.0955
     19 C12        -6.7939   -0.2174    0.0300 C.ar      1 <0>        -0.1189
     20 C13        -5.4143   -0.2138    0.0285 C.ar      1 <0>        -0.0634
     21 H2          1.0048    1.8381    0.0023 H         1 <0>         0.1040
     22 H3         -0.5450    1.8219   -0.8730 H         1 <0>         0.0801
     23 H4         -0.5280    1.8123    0.9069 H         1 <0>         0.0802
     24 H5          2.3999   -3.7480   -0.0298 H         1 <0>         0.1040
     25 H6          3.0951   -2.3694   -0.9154 H         1 <0>         0.0835
     26 H7          3.1031   -2.3791    0.8645 H         1 <0>         0.0835
     27 H8         -4.8865   -3.5666    0.0155 H         1 <0>         0.1227
     28 H9         -7.3460   -3.5492    0.0290 H         1 <0>         0.1327
     29 H10        -8.5657   -1.4129    0.0371 H         1 <0>         0.1306
     30 H11        -7.3351    0.7173    0.0338 H         1 <0>         0.1342
     31 H12        -4.8755    0.7221    0.0310 H         1 <0>         0.1417
@<TRIPOS>BOND
     1    1    2 1
     2    1   21 1
     3    1   22 1
     4    1   23 1
     5    2    8 am
     6    2    3 1
     7    3   14 1
     8    3    4 2
     9    4    5 1
    10    4   11 1
    11    5    6 2
    12    5    7 am
    13    7    8 am
    14    7   10 1
    15    8    9 2
    16   10   24 1
    17   10   25 1
    18   10   26 1
    19   11   12 1
    20   11   13 1
    21   13   14 2
    22   13   15 1
    23   15   20 ar
    24   15   16 ar
    25   16   17 ar
    26   16   27 1
    27   17   18 ar
    28   17   28 1
    29   18   19 ar
    30   18   29 1
    31   19   20 ar
    32   19   30 1
    33   20   31 1
@<TRIPOS>MOLECULE
ZINC13739904
   32    34     0     0     0
SMALL
USER_CHARGES
(1S)-6-chloro-1-phenyl-1,2,3,4-tetrahydroisoquinolin-7-ol
@<TRIPOS>ATOM
      1 C1          2.1738   -2.2967    2.6734 C.ar      1 <0>        -0.1190
      2 C2          1.9960   -2.4933    1.3167 C.ar      1 <0>        -0.1158
      3 C3          2.0925   -1.4249    0.4449 C.ar      1 <0>        -0.1125
      4 C4          2.3664   -0.1597    0.9299 C.ar      1 <0>        -0.0696
      5 C5          2.5494    0.0360    2.2861 C.ar      1 <0>        -0.1042
      6 C6          2.4485   -1.0317    3.1583 C.ar      1 <0>        -0.1158
      7 C7          2.4716    1.0051   -0.0204 C.3       1 <0>         0.1586
      8 H1          2.6764    0.6578   -1.0438 H         1 <0>         0.1064
      9 C8          1.1811    1.7818    0.0004 C.ar      1 <0>        -0.0612
     10 C9         -0.0126    1.0758    0.0080 C.ar      1 <0>        -0.1384
     11 C10        -1.2230    1.7480    0.0173 C.ar      1 <0>         0.1705
     12 C11        -1.2398    3.1365    0.0284 C.ar      1 <0>        -0.1298
     13 C12        -0.0499    3.8358    0.0210 C.ar      1 <0>        -0.0667
     14 C13         1.1618    3.1604    0.0085 C.ar      1 <0>        -0.1099
     15 C14         2.4339    3.9690    0.0070 C.3       1 <0>        -0.1149
     16 C15         3.6100    3.0912   -0.4218 C.3       1 <0>         0.0431
     17 N1          3.5920    1.8601    0.3842 N.3       1 <0>        -0.6538
     18 Cl1        -2.7517    3.9894    0.0449 Cl        1 <0>        -0.0617
     19 O1         -2.3902    1.0514    0.0205 O.3       1 <0>        -0.4997
     20 H2          2.0976   -3.1314    3.3545 H         1 <0>         0.1223
     21 H3          1.7813   -3.4817    0.9378 H         1 <0>         0.1237
     22 H4          1.9536   -1.5785   -0.6150 H         1 <0>         0.1227
     23 H5          2.7677    1.0237    2.6645 H         1 <0>         0.1189
     24 H6          2.5871   -0.8781    4.2183 H         1 <0>         0.1229
     25 H7          0.0021   -0.0041    0.0020 H         1 <0>         0.1402
     26 H8         -0.0622    4.9157    0.0245 H         1 <0>         0.1355
     27 H9          2.3336    4.8089   -0.6962 H         1 <0>         0.0841
     28 H10         2.6223    4.3581    1.0185 H         1 <0>         0.0810
     29 H11         3.5122    2.8428   -1.4889 H         1 <0>         0.0780
     30 H12         4.5522    3.6343   -0.2567 H         1 <0>         0.0905
     31 H13         3.4848    2.1269    1.4460 H         1 <0>         0.3425
     32 H14        -3.3507    1.5875    0.0279 H         1 <0>         0.4322
@<TRIPOS>BOND
     1    1    6 ar
     2    1    2 ar
     3    1   20 1
     4    2    3 ar
     5    2   21 1
     6    3    4 ar
     7    3   22 1
     8    4    5 ar
     9    4    7 1
    10    5    6 ar
    11    5   23 1
    12    6   24 1
    13    7    8 1
    14    7   17 1
    15    7    9 1
    16    9   14 ar
    17    9   10 ar
    18   10   11 ar
    19   10   25 1
    20   11   12 ar
    21   11   19 1
    22   12   13 ar
    23   12   18 1
    24   13   14 ar
    25   13   26 1
    26   14   15 1
    27   15   16 1
    28   15   27 1
    29   15   28 1
    30   16   17 1
    31   16   29 1
    32   16   30 1
    33   17   31 1
    34   19   32 1
@<TRIPOS>MOLECULE
ZINC03995996
   45    48     0     0     0
SMALL
USER_CHARGES

@<TRIPOS>ATOM
      1 C1         -0.0158    1.3119    0.0093 C.ar      1 <0>         0.3644
      2 N1          1.0888    2.0360    0.0026 N.ar      1 <0>        -0.5872
      3 C2          2.2875    1.4625   -0.0119 C.ar      1 <0>         0.5077
      4 C3          2.3582    0.0588   -0.0202 C.ar      1 <0>        -0.1088
      5 C4          1.1547   -0.6659   -0.0126 C.ar      1 <0>         0.3137
      6 N2          0.0021   -0.0041    0.0020 N.ar      1 <0>        -0.5515
      7 N3          1.5110   -1.9908   -0.0227 N.pl3     1 <0>        -0.4718
      8 C5          2.8729   -2.0476   -0.0358 C.2       1 <0>         0.2611
      9 N4          3.3680   -0.8441   -0.0343 N.2       1 <0>        -0.4603
     10 C6          0.5956   -3.1347   -0.0195 C.3       1 <0>         0.3142
     11 H1         -0.2832   -2.9148    0.5866 H         1 <0>         0.1228
     12 C7          0.1775   -3.4928   -1.4629 C.3       1 <0>         0.0798
     13 H2          0.9267   -3.1463   -2.1747 H         1 <0>         0.0850
     14 C8          0.1056   -5.0362   -1.4608 C.3       1 <0>         0.0473
     15 H3          0.8193   -5.4528   -2.1716 H         1 <0>         0.0869
     16 C9          0.4888   -5.4280   -0.0165 C.3       1 <0>         0.0504
     17 H4         -0.4066   -5.5617    0.5906 H         1 <0>         0.1001
     18 O1          1.2661   -4.3138    0.4763 O.3       1 <0>        -0.3470
     19 C10         1.3272   -6.7078   -0.0164 C.3       1 <0>         0.0821
     20 O2          1.5723   -7.1166    1.3308 O.3       1 <0>        -0.5634
     21 O3         -1.2191   -5.4762   -1.7672 O.3       1 <0>        -0.5387
     22 O4         -1.0998   -2.9297   -1.7685 O.3       1 <0>        -0.5252
     23 N5          3.4393    2.2295   -0.0193 N.pl3     1 <0>        -0.6872
     24 C11         3.3458    3.6915   -0.0110 C.3       1 <0>         0.1462
     25 C12         3.2434    4.2227   -1.4557 C.3       1 <0>        -0.1335
     26 C13         4.0688    5.5332   -1.4380 C.3       1 <0>        -0.1249
     27 C14         5.2562    5.1767   -0.5095 C.3       1 <0>        -0.1248
     28 C15         4.6256    4.2981    0.5906 C.3       1 <0>        -0.1339
     29 H5         -0.9693    1.8187    0.0257 H         1 <0>         0.2043
     30 H6          3.4551   -2.9572   -0.0459 H         1 <0>         0.2223
     31 H7          0.7880   -7.4954   -0.5427 H         1 <0>         0.0671
     32 H8          2.2767   -6.5201   -0.5176 H         1 <0>         0.0609
     33 H9          2.0996   -7.9235    1.4072 H         1 <0>         0.3867
     34 H10        -1.3212   -6.4377   -1.7794 H         1 <0>         0.3873
     35 H11        -1.4113   -3.1237   -2.6632 H         1 <0>         0.3905
     36 H12         4.3085    1.7992   -0.0299 H         1 <0>         0.4159
     37 H13         2.4764    4.0065    0.5660 H         1 <0>         0.0983
     38 H14         3.6762    3.5086   -2.1563 H         1 <0>         0.0673
     39 H15         2.2046    4.4296   -1.7133 H         1 <0>         0.0735
     40 H16         4.4221    5.7807   -2.4391 H         1 <0>         0.0683
     41 H17         3.4840    6.3525   -1.0200 H         1 <0>         0.0706
     42 H18         6.0141    4.6167   -1.0573 H         1 <0>         0.0665
     43 H19         5.6864    6.0798   -0.0766 H         1 <0>         0.0690
     44 H20         4.3771    4.9082    1.4590 H         1 <0>         0.0768
     45 H21         5.3162    3.5047    0.8764 H         1 <0>         0.0709
@<TRIPOS>BOND
     1    1    6 ar
     2    1    2 ar
     3    1   29 1
     4    2    3 ar
     5    3    4 ar
     6    3   23 1
     7    4    9 1
     8    4    5 ar
     9    5    6 ar
    10    5    7 1
    11    7    8 1
    12    7   10 1
    13    8    9 2
    14    8   30 1
    15   10   11 1
    16   10   18 1
    17   10   12 1
    18   12   13 1
    19   12   14 1
    20   12   22 1
    21   14   15 1
    22   14   16 1
    23   14   21 1
    24   16   17 1
    25   16   18 1
    26   16   19 1
    27   19   20 1
    28   19   31 1
    29   19   32 1
    30   20   33 1
    31   21   34 1
    32   22   35 1
    33   23   24 1
    34   23   36 1
    35   24   28 1
    36   24   25 1
    37   24   37 1
    38   25   26 1
    39   25   38 1
    40   25   39 1
    41   26   27 1
    42   26   40 1
    43   26   41 1
    44   27   28 1
    45   27   42 1
    46   27   43 1
    47   28   44 1
    48   28   45 1
@<TRIPOS>MOLECULE
ZINC00044027
   41    43     0     0     0
SMALL
USER_CHARGES

@<TRIPOS>ATOM
      1 C1         -4.8538   -4.0638    0.9108 C.3       1 <0>        -0.0548
      2 N1         -4.6244   -2.8061    1.6344 N.4       1 <0>        -0.3863
      3 C2         -4.0000   -3.0949    2.9324 C.3       1 <0>        -0.0478
      4 C3         -3.7364   -1.9420    0.8453 C.3       1 <0>        -0.0093
      5 C4         -4.4383   -1.5396   -0.4533 C.3       1 <0>        -0.1865
      6 C5         -3.5134   -0.6397   -1.2752 C.3       1 <0>         0.1190
      7 N2         -4.1855   -0.2544   -2.5186 N.pl3     1 <0>        -0.5621
      8 C6         -4.9466    0.9115   -2.5039 C.ar      1 <0>         0.1833
      9 C7         -5.4466    1.3707   -1.2896 C.ar      1 <0>        -0.1632
     10 C8         -6.2007    2.5274   -1.2376 C.ar      1 <0>        -0.0789
     11 C9         -6.4648    3.2382   -2.3930 C.ar      1 <0>        -0.1269
     12 C10        -5.9746    2.7903   -3.6059 C.ar      1 <0>        -0.0533
     13 C11        -5.2180    1.6285   -3.6658 C.ar      1 <0>        -0.1513
     14 S1         -4.6102    1.0681   -5.2211 S.3       1 <0>         0.0418
     15 C12        -4.1728   -0.6126   -4.9268 C.ar      1 <0>        -0.1476
     16 C13        -4.0101   -1.0788   -3.6268 C.ar      1 <0>         0.2001
     17 C14        -3.6645   -2.4105   -3.4235 C.ar      1 <0>        -0.1605
     18 C15        -3.4778   -3.2563   -4.5018 C.ar      1 <0>         0.0017
     19 C16        -3.6338   -2.7836   -5.7916 C.ar      1 <0>        -0.1199
     20 C17        -3.9865   -1.4684   -6.0025 C.ar      1 <0>        -0.0415
     21 Cl1        -3.0468   -4.9167   -4.2348 Cl        1 <0>        -0.0547
     22 H1         -5.5127   -4.7049    1.4964 H         1 <0>         0.1270
     23 H2         -5.3171   -3.8495   -0.0523 H         1 <0>         0.1230
     24 H3         -3.9018   -4.5701    0.7514 H         1 <0>         0.1245
     25 H4         -3.0479   -3.6012    2.7730 H         1 <0>         0.1232
     26 H5         -3.8297   -2.1617    3.4693 H         1 <0>         0.1245
     27 H6         -4.6589   -3.7360    3.5180 H         1 <0>         0.1260
     28 H7         -3.4947   -1.0479    1.4199 H         1 <0>         0.1356
     29 H8         -2.8190   -2.4818    0.6102 H         1 <0>         0.1342
     30 H9         -4.6799   -2.4338   -1.0279 H         1 <0>         0.0966
     31 H10        -5.3556   -0.9999   -0.2183 H         1 <0>         0.0979
     32 H11        -3.2718    0.2545   -0.7007 H         1 <0>         0.0984
     33 H12        -2.5960   -1.1794   -1.5103 H         1 <0>         0.0962
     34 H13        -5.2447    0.8199   -0.3828 H         1 <0>         0.1245
     35 H14        -6.5853    2.8770   -0.2909 H         1 <0>         0.1332
     36 H15        -7.0538    4.1423   -2.3487 H         1 <0>         0.1374
     37 H16        -6.1810    3.3459   -4.5088 H         1 <0>         0.1390
     38 H17        -3.5416   -2.7862   -2.4184 H         1 <0>         0.1339
     39 H18        -3.4863   -3.4459   -6.6318 H         1 <0>         0.1476
     40 H19        -4.1082   -1.1006   -7.0106 H         1 <0>         0.1483
     41 H20        -5.5056   -2.3374    1.7820 H         1 <0>         0.4275
@<TRIPOS>BOND
     1    1    2 1
     2    1   22 1
     3    1   23 1
     4    1   24 1
     5    2    3 1
     6    2    4 1
     7    2   41 1
     8    3   25 1
     9    3   26 1
    10    3   27 1
    11    4    5 1
    12    4   28 1
    13    4   29 1
    14    5    6 1
    15    5   30 1
    16    5   31 1
    17    6    7 1
    18    6   32 1
    19    6   33 1
    20    7   16 1
    21    7    8 1
    22    8   13 ar
    23    8    9 ar
    24    9   10 ar
    25    9   34 1
    26   10   11 ar
    27   10   35 1
    28   11   12 ar
    29   11   36 1
    30   12   13 ar
    31   12   37 1
    32   13   14 1
    33   14   15 1
    34   15   20 ar
    35   15   16 ar
    36   16   17 ar
    37   17   18 ar
    38   17   38 1
    39   18   19 ar
    40   18   21 1
    41   19   20 ar
    42   19   39 1
    43   20   40 1
@<TRIPOS>MOLECULE
ZINC19203912
   57    60     0     0     0
SMALL
USER_CHARGES

@<TRIPOS>ATOM
      1 C1          3.4437   -4.9771    0.0368 C.ar      1 <0>        -0.0771
      2 C2          4.3861   -4.5771    0.9651 C.ar      1 <0>        -0.1269
      3 C3          4.2792   -3.3364    1.5664 C.ar      1 <0>        -0.0516
      4 C4          3.2267   -2.4926    1.2411 C.ar      1 <0>        -0.1551
      5 C5          2.2729   -2.8934    0.3097 C.ar      1 <0>         0.1852
      6 C6          2.3926   -4.1422   -0.2915 C.ar      1 <0>        -0.1628
      7 N1          1.1945   -2.0826   -0.0347 N.pl3     1 <0>        -0.5629
      8 C7          1.1709   -0.6955    0.0853 C.ar      1 <0>         0.1857
      9 C8          0.3025    0.0332   -0.7210 C.ar      1 <0>        -0.1188
     10 C9          0.2496    1.4106   -0.6236 C.ar      1 <0>        -0.1465
     11 C10         1.0603    2.0760    0.2765 C.ar      1 <0>        -0.0780
     12 C11         1.9293    1.3621    1.0812 C.ar      1 <0>        -0.0563
     13 C12         1.9888   -0.0211    0.9875 C.ar      1 <0>        -0.1199
     14 S1          3.1095   -0.9136    2.0128 S.3       1 <0>         0.0509
     15 C13        -0.6948    2.1899   -1.5021 C.3       1 <0>         0.5116
     16 F1         -1.9265    2.3299   -0.8537 F         1 <0>        -0.1708
     17 F2         -0.1562    3.4554   -1.7584 F         1 <0>        -0.1684
     18 F3         -0.8783    1.5079   -2.7097 F         1 <0>        -0.1835
     19 C14        -0.0045   -2.7378   -0.5632 C.3       1 <0>         0.1189
     20 C15         0.1003   -2.8415   -2.0861 C.3       1 <0>        -0.1867
     21 C16        -1.1519   -3.5258   -2.6381 C.3       1 <0>        -0.0069
     22 N2         -1.0512   -3.6254   -4.1003 N.4       1 <0>        -0.3853
     23 C17        -1.0537   -2.2775   -4.6839 C.3       1 <0>        -0.0077
     24 C18        -0.9298   -2.3801   -6.2057 C.3       1 <0>         0.0276
     25 N3         -2.0555   -3.1635   -6.7342 N.3       1 <0>        -0.5292
     26 C19        -2.0806   -4.5075   -6.1400 C.3       1 <0>         0.0210
     27 C20        -2.1949   -4.3874   -4.6187 C.3       1 <0>        -0.0006
     28 C21        -2.0033   -3.2371   -8.2004 C.3       1 <0>         0.0537
     29 C22        -3.3078   -3.8378   -8.7277 C.3       1 <0>         0.0765
     30 O1         -4.3924   -2.9556   -8.4318 O.3       1 <0>        -0.5623
     31 H1          3.5314   -5.9436   -0.4370 H         1 <0>         0.1336
     32 H2          5.2052   -5.2329    1.2209 H         1 <0>         0.1378
     33 H3          5.0162   -3.0236    2.2912 H         1 <0>         0.1394
     34 H4          1.6604   -4.4608   -1.0187 H         1 <0>         0.1253
     35 H5         -0.3339   -0.4802   -1.4266 H         1 <0>         0.1363
     36 H6          1.0153    3.1525    0.3512 H         1 <0>         0.1503
     37 H7          2.5627    1.8822    1.7845 H         1 <0>         0.1518
     38 H8         -0.0908   -3.7369   -0.1361 H         1 <0>         0.1000
     39 H9         -0.8850   -2.1522   -0.2987 H         1 <0>         0.0969
     40 H10         0.1866   -1.8424   -2.5133 H         1 <0>         0.0961
     41 H11         0.9808   -3.4271   -2.3506 H         1 <0>         0.0983
     42 H12        -1.2382   -4.5248   -2.2109 H         1 <0>         0.1366
     43 H13        -2.0324   -2.9402   -2.3736 H         1 <0>         0.1359
     44 H14        -1.9853   -1.7726   -4.4284 H         1 <0>         0.1410
     45 H15        -0.2120   -1.7088   -4.2884 H         1 <0>         0.1346
     46 H16        -0.9466   -1.3806   -6.6402 H         1 <0>         0.1248
     47 H17         0.0081   -2.8727   -6.4619 H         1 <0>         0.0594
     48 H18        -2.9369   -5.0601   -6.5265 H         1 <0>         0.1240
     49 H19        -1.1616   -5.0352   -6.3950 H         1 <0>         0.0595
     50 H20        -2.1994   -5.3829   -4.1749 H         1 <0>         0.1362
     51 H21        -3.1207   -3.8717   -4.3635 H         1 <0>         0.1397
     52 H22        -1.8729   -2.2354   -8.6100 H         1 <0>         0.0976
     53 H23        -1.1655   -3.8653   -8.5031 H         1 <0>         0.0611
     54 H24        -3.2348   -3.9748   -9.8066 H         1 <0>         0.0597
     55 H25        -3.4830   -4.8019   -8.2501 H         1 <0>         0.0455
     56 H26        -5.2528   -3.2736   -8.7380 H         1 <0>         0.3848
     57 H27        -0.1938   -4.0966   -4.3468 H         1 <0>         0.4201
@<TRIPOS>BOND
     1    1    6 ar
     2    1    2 ar
     3    1   31 1
     4    2    3 ar
     5    2   32 1
     6    3    4 ar
     7    3   33 1
     8    4   14 1
     9    4    5 ar
    10    5    6 ar
    11    5    7 1
    12    6   34 1
    13    7    8 1
    14    7   19 1
    15    8   13 ar
    16    8    9 ar
    17    9   10 ar
    18    9   35 1
    19   10   11 ar
    20   10   15 1
    21   11   12 ar
    22   11   36 1
    23   12   13 ar
    24   12   37 1
    25   13   14 1
    26   15   16 1
    27   15   17 1
    28   15   18 1
    29   19   20 1
    30   19   38 1
    31   19   39 1
    32   20   21 1
    33   20   40 1
    34   20   41 1
    35   21   22 1
    36   21   42 1
    37   21   43 1
    38   22   27 1
    39   22   23 1
    40   22   57 1
    41   23   24 1
    42   23   44 1
    43   23   45 1
    44   24   25 1
    45   24   46 1
    46   24   47 1
    47   25   26 1
    48   25   28 1
    49   26   27 1
    50   26   48 1
    51   26   49 1
    52   27   50 1
    53   27   51 1
    54   28   29 1
    55   28   52 1
    56   28   53 1
    57   29   30 1
    58   29   54 1
    59   29   55 1
    60   30   56 1
@<TRIPOS>MOLECULE
ZINC19203912
   56    59     0     0     0
SMALL
USER_CHARGES

@<TRIPOS>ATOM
      1 C1          3.4437   -4.9771    0.0368 C.ar      1 <0>        -0.0761
      2 C2          4.3861   -4.5771    0.9651 C.ar      1 <0>        -0.1361
      3 C3          4.2791   -3.3364    1.5665 C.ar      1 <0>        -0.0570
      4 C4          3.2267   -2.4926    1.2411 C.ar      1 <0>        -0.1593
      5 C5          2.2729   -2.8934    0.3097 C.ar      1 <0>         0.1939
      6 C6          2.3926   -4.1423   -0.2915 C.ar      1 <0>        -0.1569
      7 N1          1.1945   -2.0826   -0.0347 N.pl3     1 <0>        -0.5619
      8 C7          1.1709   -0.6955    0.0853 C.ar      1 <0>         0.1955
      9 C8          0.3025    0.0332   -0.7210 C.ar      1 <0>        -0.1146
     10 C9          0.2496    1.4106   -0.6236 C.ar      1 <0>        -0.1450
     11 C10         1.0603    2.0760    0.2765 C.ar      1 <0>        -0.0881
     12 C11         1.9293    1.3621    1.0812 C.ar      1 <0>        -0.0606
     13 C12         1.9888   -0.0211    0.9875 C.ar      1 <0>        -0.1248
     14 S1          3.1095   -0.9136    2.0128 S.3       1 <0>         0.0333
     15 C13        -0.6948    2.1899   -1.5021 C.3       1 <0>         0.5100
     16 F1         -1.9265    2.3299   -0.8538 F         1 <0>        -0.1736
     17 F2         -0.1562    3.4554   -1.7585 F         1 <0>        -0.1731
     18 F3         -0.8783    1.5079   -2.7098 F         1 <0>        -0.1757
     19 C14        -0.0045   -2.7378   -0.5632 C.3       1 <0>         0.1110
     20 C15         0.1003   -2.8415   -2.0861 C.3       1 <0>        -0.1461
     21 C16        -1.1519   -3.5258   -2.6381 C.3       1 <0>         0.0578
     22 N2         -1.0512   -3.6254   -4.1003 N.3       1 <0>        -0.5385
     23 C17        -1.0812   -2.2942   -4.7221 C.3       1 <0>         0.0549
     24 C18        -0.8944   -2.4363   -6.2345 C.3       1 <0>         0.0578
     25 N3         -1.9576   -3.2926   -6.7785 N.3       1 <0>        -0.5305
     26 C19        -1.9276   -4.6238   -6.1566 C.3       1 <0>         0.0544
     27 C20        -2.1144   -4.4817   -4.6442 C.3       1 <0>         0.0587
     28 C21        -1.8569   -3.3922   -8.2407 C.3       1 <0>         0.0540
     29 C22        -3.1092   -4.0765   -8.7927 C.3       1 <0>         0.0795
     30 O1         -4.2499   -3.2515   -8.5476 O.3       1 <0>        -0.5595
     31 H1          3.5314   -5.9437   -0.4370 H         1 <0>         0.1321
     32 H2          5.2051   -5.2329    1.2210 H         1 <0>         0.1329
     33 H3          5.0162   -3.0236    2.2912 H         1 <0>         0.1343
     34 H4          1.6604   -4.4608   -1.0187 H         1 <0>         0.1361
     35 H5         -0.3339   -0.4802   -1.4266 H         1 <0>         0.1444
     36 H6          1.0154    3.1525    0.3511 H         1 <0>         0.1457
     37 H7          2.5627    1.8822    1.7845 H         1 <0>         0.1470
     38 H8         -0.0908   -3.7369   -0.1361 H         1 <0>         0.0906
     39 H9         -0.8850   -2.1522   -0.2987 H         1 <0>         0.0854
     40 H10         0.1866   -1.8424   -2.5133 H         1 <0>         0.0726
     41 H11         0.9808   -3.4271   -2.3506 H         1 <0>         0.0833
     42 H12        -1.2382   -4.5248   -2.2109 H         1 <0>         0.0786
     43 H13        -2.0324   -2.9402   -2.3736 H         1 <0>         0.0388
     44 H14        -2.0403   -1.8186   -4.5173 H         1 <0>         0.0453
     45 H15        -0.2770   -1.6831   -4.3122 H         1 <0>         0.0803
     46 H16        -0.9452   -1.4526   -6.7012 H         1 <0>         0.0803
     47 H17         0.0765   -2.8870   -6.4403 H         1 <0>         0.0414
     48 H18        -2.7318   -5.2348   -6.5666 H         1 <0>         0.0801
     49 H19        -0.9685   -5.0993   -6.3615 H         1 <0>         0.0413
     50 H20        -2.0636   -5.4654   -4.1775 H         1 <0>         0.0795
     51 H21        -3.0853   -4.0310   -4.4385 H         1 <0>         0.0447
     52 H22        -1.7706   -2.3931   -8.6678 H         1 <0>         0.0833
     53 H23        -0.9764   -3.9778   -8.5052 H         1 <0>         0.0490
     54 H24        -2.9959   -4.2305   -9.8658 H         1 <0>         0.0487
     55 H25        -3.2443   -5.0392   -8.2997 H         1 <0>         0.0452
     56 H26        -5.0815   -3.6238   -8.8718 H         1 <0>         0.3752
@<TRIPOS>BOND
     1    1    6 ar
     2    1    2 ar
     3    1   31 1
     4    2    3 ar
     5    2   32 1
     6    3    4 ar
     7    3   33 1
     8    4   14 1
     9    4    5 ar
    10    5    6 ar
    11    5    7 1
    12    6   34 1
    13    7    8 1
    14    7   19 1
    15    8   13 ar
    16    8    9 ar
    17    9   10 ar
    18    9   35 1
    19   10   11 ar
    20   10   15 1
    21   11   12 ar
    22   11   36 1
    23   12   13 ar
    24   12   37 1
    25   13   14 1
    26   15   16 1
    27   15   17 1
    28   15   18 1
    29   19   20 1
    30   19   38 1
    31   19   39 1
    32   20   21 1
    33   20   40 1
    34   20   41 1
    35   21   22 1
    36   21   42 1
    37   21   43 1
    38   22   27 1
    39   22   23 1
    40   23   24 1
    41   23   44 1
    42   23   45 1
    43   24   25 1
    44   24   46 1
    45   24   47 1
    46   25   26 1
    47   25   28 1
    48   26   27 1
    49   26   48 1
    50   26   49 1
    51   27   50 1
    52   27   51 1
    53   28   29 1
    54   28   52 1
    55   28   53 1
    56   29   30 1
    57   29   54 1
    58   29   55 1
    59   30   56 1
@<TRIPOS>MOLECULE
ZINC04217017
   48    51     0     0     0
SMALL
USER_CHARGES

@<TRIPOS>ATOM
      1 C1         -0.0158    1.3119    0.0093 C.ar      1 <0>         0.3642
      2 N1          1.0888    2.0360    0.0026 N.ar      1 <0>        -0.5868
      3 C2          2.2875    1.4625   -0.0119 C.ar      1 <0>         0.5089
      4 C3          2.3582    0.0588   -0.0202 C.ar      1 <0>        -0.1086
      5 C4          1.1547   -0.6659   -0.0126 C.ar      1 <0>         0.3136
      6 N2          0.0021   -0.0041    0.0020 N.ar      1 <0>        -0.5514
      7 N3          1.5110   -1.9908   -0.0227 N.pl3     1 <0>        -0.4718
      8 C5          2.8729   -2.0476   -0.0358 C.2       1 <0>         0.2611
      9 N4          3.3680   -0.8441   -0.0343 N.2       1 <0>        -0.4600
     10 C6          0.5956   -3.1347   -0.0195 C.3       1 <0>         0.3142
     11 H1         -0.2832   -2.9148    0.5866 H         1 <0>         0.1228
     12 C7          0.1775   -3.4928   -1.4629 C.3       1 <0>         0.0797
     13 H2          0.9267   -3.1463   -2.1747 H         1 <0>         0.0850
     14 C8          0.1056   -5.0362   -1.4608 C.3       1 <0>         0.0473
     15 H3          0.8193   -5.4528   -2.1716 H         1 <0>         0.0869
     16 C9          0.4888   -5.4280   -0.0165 C.3       1 <0>         0.0504
     17 H4         -0.4066   -5.5617    0.5906 H         1 <0>         0.1001
     18 O1          1.2661   -4.3138    0.4763 O.3       1 <0>        -0.3470
     19 C10         1.3272   -6.7078   -0.0164 C.3       1 <0>         0.0821
     20 O2          1.5723   -7.1166    1.3308 O.3       1 <0>        -0.5634
     21 O3         -1.2191   -5.4762   -1.7672 O.3       1 <0>        -0.5387
     22 O4         -1.0998   -2.9297   -1.7685 O.3       1 <0>        -0.5252
     23 N5          3.4393    2.2295   -0.0193 N.pl3     1 <0>        -0.6901
     24 C11         3.3458    3.6915   -0.0110 C.3       1 <0>         0.1521
     25 C12         3.2018    4.1852    1.4300 C.3       1 <0>        -0.1279
     26 C13         3.1042    5.7121    1.4386 C.3       1 <0>        -0.1161
     27 C14         4.3704    6.3075    0.8197 C.3       1 <0>        -0.1232
     28 C15         4.5144    5.8139   -0.6213 C.3       1 <0>        -0.1145
     29 C16         4.6120    4.2870   -0.6300 C.3       1 <0>        -0.1286
     30 H5         -0.9693    1.8187    0.0257 H         1 <0>         0.2042
     31 H6          3.4551   -2.9572   -0.0459 H         1 <0>         0.2223
     32 H7          0.7880   -7.4954   -0.5427 H         1 <0>         0.0671
     33 H8          2.2767   -6.5201   -0.5176 H         1 <0>         0.0609
     34 H9          2.0996   -7.9235    1.4072 H         1 <0>         0.3867
     35 H10        -1.3212   -6.4377   -1.7794 H         1 <0>         0.3873
     36 H11        -1.4113   -3.1237   -2.6632 H         1 <0>         0.3905
     37 H12         4.3085    1.7992   -0.0299 H         1 <0>         0.4159
     38 H13         2.4769    4.0033   -0.5905 H         1 <0>         0.0947
     39 H14         2.2998    3.7610    1.8710 H         1 <0>         0.0687
     40 H15         4.0708    3.8734    2.0094 H         1 <0>         0.0607
     41 H16         2.2352    6.0239    0.8592 H         1 <0>         0.0660
     42 H17         3.0016    6.0638    2.4652 H         1 <0>         0.0643
     43 H18         4.3008    7.3953    0.8258 H         1 <0>         0.0642
     44 H19         5.2393    5.9957    1.3991 H         1 <0>         0.0620
     45 H20         3.6454    6.1257   -1.2008 H         1 <0>         0.0661
     46 H21         5.4164    6.2381   -1.0623 H         1 <0>         0.0672
     47 H22         5.4809    3.9752   -0.0505 H         1 <0>         0.0677
     48 H23         4.7146    3.9353   -1.6566 H         1 <0>         0.0684
@<TRIPOS>BOND
     1    1    6 ar
     2    1    2 ar
     3    1   30 1
     4    2    3 ar
     5    3    4 ar
     6    3   23 1
     7    4    9 1
     8    4    5 ar
     9    5    6 ar
    10    5    7 1
    11    7    8 1
    12    7   10 1
    13    8    9 2
    14    8   31 1
    15   10   11 1
    16   10   18 1
    17   10   12 1
    18   12   13 1
    19   12   14 1
    20   12   22 1
    21   14   15 1
    22   14   16 1
    23   14   21 1
    24   16   17 1
    25   16   18 1
    26   16   19 1
    27   19   20 1
    28   19   32 1
    29   19   33 1
    30   20   34 1
    31   21   35 1
    32   22   36 1
    33   23   24 1
    34   23   37 1
    35   24   29 1
    36   24   25 1
    37   24   38 1
    38   25   26 1
    39   25   39 1
    40   25   40 1
    41   26   27 1
    42   26   41 1
    43   26   42 1
    44   27   28 1
    45   27   43 1
    46   27   44 1
    47   28   29 1
    48   28   45 1
    49   28   46 1
    50   29   47 1
    51   29   48 1
