@<TRIPOS>MOLECULE
ZINC43203317
   59    64     0     0     0
SMALL
USER_CHARGES

@<TRIPOS>ATOM
      1 C1          1.7535   -2.6140    1.5911 C.3       1 <0>        -0.1576
      2 C2          1.9372   -1.1974    1.0429 C.3       1 <0>         0.1323
      3 C3          2.2996   -1.2576   -0.4560 C.3       1 <0>        -0.1134
      4 C4          1.5200   -0.0551   -1.0506 C.3       1 <0>        -0.1390
      5 C5          0.2292   -0.0672   -0.1942 C.3       1 <0>         0.1045
      6 N1          0.6767   -0.4495    1.1575 N.pl3     1 <0>        -0.5678
      7 C6          0.0168   -0.1528    2.3424 C.cat     1 <0>         0.7218
      8 N2         -1.1775    0.4452    2.2857 N.2       1 <0>        -0.5913
      9 C7         -1.8506    0.7504    3.3820 C.2       1 <0>         0.5986
     10 C8         -1.2954    0.4378    4.6446 C.2       1 <0>        -0.1075
     11 C9         -1.7243    0.6153    5.9471 C.2       1 <0>        -0.0396
     12 C10        -0.7288    0.0950    6.7743 C.2       1 <0>        -0.1604
     13 C11         0.2678   -0.3803    5.9800 C.2       1 <0>         0.0915
     14 N3         -0.0622   -0.1793    4.6913 N.pl3     1 <0>        -0.2309
     15 N4          0.5826   -0.4728    3.4813 N.pl3     1 <0>        -0.4793
     16 N5         -3.0823    1.3684    3.2951 N.pl3     1 <0>        -0.5428
     17 C12        -3.6742    1.5771    2.0432 C.2       1 <0>         0.2706
     18 C13        -3.0895    1.2980    0.7973 C.2       1 <0>        -0.2564
     19 C14        -3.9781    1.6382   -0.1637 C.2       1 <0>         0.1447
     20 N6         -5.0843    2.1149    0.4453 N.pl3     1 <0>        -0.4469
     21 H1         -5.8860    2.4338    0.0021 H         1 <0>         0.4486
     22 N7         -4.8747    2.0624    1.8293 N.2       1 <0>        -0.2849
     23 C15        -3.7699    1.5087   -1.6506 C.3       1 <0>        -0.1084
     24 C16        -4.4171    2.5645   -2.5491 C.3       1 <0>        -0.1663
     25 C17        -4.9858    1.1448   -2.5051 C.3       1 <0>        -0.1664
     26 C18         3.0250   -0.4890    1.8083 C.2       1 <0>         0.4854
     27 O1          3.8838   -1.1306    2.3757 O.2       1 <0>        -0.4818
     28 N8          3.0435    0.8576    1.8624 N.am      1 <0>        -0.6582
     29 C19         4.1149    1.5191    2.4758 C.ar      1 <0>         0.0600
     30 C20         5.4063    1.0037    2.3886 C.ar      1 <0>        -0.0399
     31 C21         6.4332    1.6923    3.0108 C.ar      1 <0>        -0.1677
     32 C22         6.1456    2.8626    3.6948 C.ar      1 <0>         0.3115
     33 N9          4.9102    3.3236    3.7580 N.ar      1 <0>        -0.4898
     34 C23         3.9057    2.6998    3.1737 C.ar      1 <0>         0.1268
     35 F1          7.1422    3.5404    4.3052 F         1 <0>        -0.1003
     36 H2          0.9186   -3.0952    1.0817 H         1 <0>         0.0948
     37 H3          2.6632   -3.1900    1.4216 H         1 <0>         0.1103
     38 H4          1.5478   -2.5659    2.6604 H         1 <0>         0.0538
     39 H5          3.3726   -1.1301   -0.5988 H         1 <0>         0.1067
     40 H6          1.9593   -2.1942   -0.8977 H         1 <0>         0.1138
     41 H7          2.0716    0.8748   -0.9127 H         1 <0>         0.0884
     42 H8          1.2917   -0.2196   -2.1036 H         1 <0>         0.1180
     43 H9         -0.2243    0.9238   -0.1775 H         1 <0>         0.1095
     44 H10        -0.4765   -0.8018   -0.5820 H         1 <0>         0.1052
     45 H11        -2.6516    1.0698    6.2632 H         1 <0>         0.1822
     46 H12        -0.7461    0.0739    7.8539 H         1 <0>         0.1890
     47 H13         1.1787   -0.8443    6.3282 H         1 <0>         0.2011
     48 H14        -3.5375    1.6579    4.1012 H         1 <0>         0.4456
     49 H15        -2.1046    0.8854    0.6353 H         1 <0>         0.1821
     50 H16        -2.8023    1.1113   -1.9570 H         1 <0>         0.1357
     51 H17        -4.9935    3.3528   -2.0648 H         1 <0>         0.0972
     52 H18        -3.8753    2.8620   -3.4469 H         1 <0>         0.1127
     53 H19        -4.8180    0.5082   -3.3738 H         1 <0>         0.1125
     54 H20        -5.9362    0.9990   -1.9917 H         1 <0>         0.0972
     55 H21         2.3148    1.3685    1.4766 H         1 <0>         0.4141
     56 H22         5.6014    0.0888    1.8488 H         1 <0>         0.1571
     57 H23         7.4466    1.3217    2.9641 H         1 <0>         0.1613
     58 H24         2.9090    3.1098    3.2433 H         1 <0>         0.1645
     59 H25         1.4487   -0.9095    3.4868 H         1 <0>         0.4476
@<TRIPOS>BOND
     1    1    2 1
     2    1   36 1
     3    1   37 1
     4    1   38 1
     5    2    6 1
     6    2    3 1
     7    2   26 1
     8    3    4 1
     9    3   39 1
    10    3   40 1
    11    4    5 1
    12    4   41 1
    13    4   42 1
    14    5    6 1
    15    5   43 1
    16    5   44 1
    17    6    7 1
    18    7   15 2
    19    7    8 1
    20    8    9 2
    21    9   10 1
    22    9   16 1
    23   10   14 1
    24   10   11 2
    25   11   12 1
    26   11   45 1
    27   12   13 2
    28   12   46 1
    29   13   14 1
    30   13   47 1
    31   14   15 1
    32   15   59 1
    33   16   17 1
    34   16   48 1
    35   17   22 2
    36   17   18 1
    37   18   19 2
    38   18   49 1
    39   19   20 1
    40   19   23 1
    41   20   21 1
    42   20   22 1
    43   23   25 1
    44   23   24 1
    45   23   50 1
    46   24   25 1
    47   24   51 1
    48   24   52 1
    49   25   53 1
    50   25   54 1
    51   26   27 2
    52   26   28 am
    53   28   29 1
    54   28   55 1
    55   29   34 ar
    56   29   30 ar
    57   30   31 ar
    58   30   56 1
    59   31   32 ar
    60   31   57 1
    61   32   33 ar
    62   32   35 1
    63   33   34 ar
    64   34   58 1
@<TRIPOS>MOLECULE
ZINC43203317
   59    64     0     0     0
SMALL
USER_CHARGES

@<TRIPOS>ATOM
      1 C1         -0.2400   -0.0323   -0.4481 C.3       1 <0>        -0.1608
      2 C2         -0.9173   -1.3602   -0.1032 C.3       1 <0>         0.1638
      3 C3         -0.9523   -2.2705   -1.3489 C.3       1 <0>        -0.1176
      4 C4         -0.6761   -3.6784   -0.7582 C.3       1 <0>        -0.1322
      5 C5          0.3239   -3.3483    0.3779 C.3       1 <0>         0.0799
      6 N1         -0.1425   -2.0633    0.9296 N.pl3     1 <0>        -0.5749
      7 C6          0.1088   -1.5945    2.2120 C.cat     1 <0>         0.7200
      8 N2         -0.6553   -0.6140    2.7038 N.2       1 <0>        -0.5959
      9 C7         -0.4614   -0.1295    3.9186 C.2       1 <0>         0.5946
     10 C8          0.5781   -0.6599    4.7174 C.2       1 <0>        -0.1068
     11 C9          1.0359   -0.3876    5.9934 C.2       1 <0>        -0.0422
     12 C10         2.1046   -1.2520    6.2318 C.2       1 <0>        -0.1613
     13 C11         2.2764   -2.0194    5.1220 C.2       1 <0>         0.0935
     14 N3          1.3606   -1.6716    4.1999 N.pl3     1 <0>        -0.2317
     15 N4          1.0846   -2.1313    2.9043 N.pl3     1 <0>        -0.4707
     16 N5         -1.2652    0.8841    4.4022 N.pl3     1 <0>        -0.5597
     17 C12        -2.2770    1.4121    3.6031 C.2       1 <0>         0.2587
     18 C13        -2.2998    1.4336    2.2418 C.2       1 <0>        -0.2133
     19 C14        -3.4890    2.0493    1.8429 C.2       1 <0>         0.1357
     20 N6         -4.1598    2.3873    2.9141 N.2       1 <0>        -0.2440
     21 H1         -3.6859    2.1176    4.9651 H         1 <0>         0.4424
     22 N7         -3.4239    1.9942    4.0393 N.pl3     1 <0>        -0.4751
     23 C15        -3.9249    2.2847    0.4196 C.3       1 <0>        -0.0827
     24 C16        -2.9477    1.8967   -0.6919 C.3       1 <0>        -0.1184
     25 C17        -3.1956    3.3721   -0.3719 C.3       1 <0>        -0.1818
     26 C18        -2.3186   -1.1075    0.3904 C.2       1 <0>         0.5120
     27 O1         -3.0087   -0.2675   -0.1473 O.2       1 <0>        -0.4663
     28 N8         -2.8049   -1.8150    1.4293 N.am      1 <0>        -0.6484
     29 C19        -4.1419   -1.6608    1.8170 C.ar      1 <0>         0.0931
     30 C20        -5.1185   -1.3455    0.8748 C.ar      1 <0>        -0.0458
     31 C21        -6.4264   -1.2030    1.3049 C.ar      1 <0>        -0.1648
     32 C22        -6.7194   -1.3772    2.6481 C.ar      1 <0>         0.2983
     33 N9         -5.7696   -1.6756    3.5150 N.ar      1 <0>        -0.4903
     34 C23        -4.5129   -1.8255    3.1437 C.ar      1 <0>         0.1109
     35 F1         -7.9934   -1.2394    3.0760 F         1 <0>        -0.1066
     36 H2          0.8421   -0.1627   -0.4371 H         1 <0>         0.0770
     37 H3         -0.5571    0.2906   -1.4397 H         1 <0>         0.1035
     38 H4         -0.5225    0.7213    0.2870 H         1 <0>         0.0781
     39 H5         -1.9329   -2.2370   -1.8236 H         1 <0>         0.1107
     40 H6         -0.1711   -1.9884   -2.0548 H         1 <0>         0.1083
     41 H7         -1.5889   -4.1206   -0.3590 H         1 <0>         0.0906
     42 H8         -0.2204   -4.3317   -1.5023 H         1 <0>         0.1146
     43 H9          0.2962   -4.1227    1.1444 H         1 <0>         0.0963
     44 H10         1.3325   -3.2456   -0.0225 H         1 <0>         0.1041
     45 H11         0.6419    0.3520    6.6746 H         1 <0>         0.1796
     46 H12         2.6919   -1.3025    7.1367 H         1 <0>         0.1885
     47 H13         3.0281   -2.7852    5.0004 H         1 <0>         0.2040
     48 H14        -1.1253    1.2284    5.2981 H         1 <0>         0.4411
     49 H15        -1.5346    1.0440    1.5868 H         1 <0>         0.1629
     50 H16        -4.9888    2.1485    0.2251 H         1 <0>         0.1168
     51 H17        -1.9896    1.4711   -0.3937 H         1 <0>         0.0996
     52 H18        -3.3686    1.5049   -1.6179 H         1 <0>         0.1017
     53 H19        -3.7796    3.9511   -1.0874 H         1 <0>         0.1014
     54 H20        -2.4006    3.9173    0.1368 H         1 <0>         0.0905
     55 H21        -2.2289   -2.4311    1.9086 H         1 <0>         0.3988
     56 H22        -4.8613   -1.2151   -0.1660 H         1 <0>         0.1610
     57 H23        -7.2092   -0.9586    0.6021 H         1 <0>         0.1557
     58 H24        -3.7640   -2.0743    3.8810 H         1 <0>         0.1500
     59 H25         1.6178   -2.8440    2.5187 H         1 <0>         0.4537
@<TRIPOS>BOND
     1    1    2 1
     2    1   36 1
     3    1   37 1
     4    1   38 1
     5    2    6 1
     6    2    3 1
     7    2   26 1
     8    3    4 1
     9    3   39 1
    10    3   40 1
    11    4    5 1
    12    4   41 1
    13    4   42 1
    14    5    6 1
    15    5   43 1
    16    5   44 1
    17    6    7 1
    18    7   15 2
    19    7    8 1
    20    8    9 2
    21    9   10 1
    22    9   16 1
    23   10   14 1
    24   10   11 2
    25   11   12 1
    26   11   45 1
    27   12   13 2
    28   12   46 1
    29   13   14 1
    30   13   47 1
    31   14   15 1
    32   15   59 1
    33   16   17 1
    34   16   48 1
    35   17   18 2
    36   17   22 1
    37   18   49 1
    38   18   19 1
    39   19   23 1
    40   19   20 2
    41   20   22 1
    42   21   22 1
    43   23   25 1
    44   23   24 1
    45   23   50 1
    46   24   25 1
    47   24   51 1
    48   24   52 1
    49   25   53 1
    50   25   54 1
    51   26   27 2
    52   26   28 am
    53   28   29 1
    54   28   55 1
    55   29   34 ar
    56   29   30 ar
    57   30   31 ar
    58   30   56 1
    59   31   32 ar
    60   31   57 1
    61   32   33 ar
    62   32   35 1
    63   33   34 ar
    64   34   58 1
@<TRIPOS>MOLECULE
ZINC49757540
   57    58     0     0     0
SMALL
USER_CHARGES

@<TRIPOS>ATOM
      1 C1         -0.0187    1.5258    0.0104 C.3       1 <0>        -0.1540
      2 C2          0.0021   -0.0041    0.0020 C.3       1 <0>        -0.1259
      3 C3          0.7182   -0.4975   -1.2568 C.3       1 <0>        -0.1215
      4 C4          0.7390   -2.0273   -1.2652 C.3       1 <0>        -0.1208
      5 C5          1.4551   -2.5207   -2.5240 C.3       1 <0>        -0.1210
      6 C6          1.4758   -4.0506   -2.5324 C.3       1 <0>        -0.1200
      7 C7          2.1920   -4.5440   -3.7912 C.3       1 <0>        -0.1212
      8 C8          2.2127   -6.0738   -3.7996 C.3       1 <0>        -0.1194
      9 C9          2.9289   -6.5673   -5.0584 C.3       1 <0>        -0.1214
     10 C10         2.9496   -8.0971   -5.0668 C.3       1 <0>        -0.1185
     11 C11         3.6658   -8.5905   -6.3257 C.3       1 <0>        -0.1156
     12 C12         3.6865  -10.1203   -6.3341 C.3       1 <0>        -0.0832
     13 C13         4.3919  -10.6063   -7.5739 C.ar      1 <0>        -0.0433
     14 C14         3.6739  -10.8347   -8.7329 C.ar      1 <0>        -0.1434
     15 C15         4.3209  -11.2805   -9.8703 C.ar      1 <0>        -0.0182
     16 C16         5.6860  -11.4975   -9.8487 C.ar      1 <0>        -0.6296
     17 C17         6.4041  -11.2682   -8.6900 C.ar      1 <0>        -0.0182
     18 C18         5.7577  -10.8183   -7.5539 C.ar      1 <0>        -0.1433
     19 S1          6.5105  -12.0669  -11.2981 S.o2      1 <0>         2.6398
     20 O1          7.6988  -12.7127  -10.8621 O.2       1 <0>        -1.0027
     21 O2          5.5317  -12.7260  -12.0897 O.2       1 <0>        -1.0025
     22 N1          6.9847  -10.7280  -12.1495 N.2       1 <0>        -1.0173
     23 C19         7.6652  -10.8742  -13.3492 C.2       1 <0>         0.4298
     24 N2          8.0308  -11.9738  -13.9947 N.2       1 <0>        -0.4389
     25 N3          8.6527  -11.9255  -15.0908 N.2       1 <0>        -0.2338
     26 C20         8.9783  -10.7846  -15.6637 C.2       1 <0>        -0.0576
     27 S2          8.2955   -9.6327  -14.4751 S.3       1 <0>        -0.1464
     28 H1          1.0039    1.9031    0.0027 H         1 <0>         0.0533
     29 H2         -0.5459    1.8868   -0.8726 H         1 <0>         0.0533
     30 H3         -0.5289    1.8773    0.9072 H         1 <0>         0.0526
     31 H4          0.5293   -0.3651    0.8851 H         1 <0>         0.0600
     32 H5         -1.0205   -0.3814    0.0098 H         1 <0>         0.0600
     33 H6          0.1910   -0.1364   -2.1398 H         1 <0>         0.0607
     34 H7          1.7408   -0.1202   -1.2645 H         1 <0>         0.0606
     35 H8          1.2661   -2.3884   -0.3821 H         1 <0>         0.0601
     36 H9         -0.2836   -2.4046   -1.2575 H         1 <0>         0.0601
     37 H10         0.9279   -2.1597   -3.4071 H         1 <0>         0.0606
     38 H11         2.4777   -2.1435   -2.5317 H         1 <0>         0.0606
     39 H12         2.0030   -4.4117   -1.6494 H         1 <0>         0.0599
     40 H13         0.4533   -4.4279   -2.5247 H         1 <0>         0.0599
     41 H14         1.6648   -4.1829   -4.6743 H         1 <0>         0.0607
     42 H15         3.2146   -4.1667   -3.7990 H         1 <0>         0.0607
     43 H16         2.7399   -6.4349   -2.9166 H         1 <0>         0.0598
     44 H17         1.1901   -6.4511   -3.7919 H         1 <0>         0.0598
     45 H18         2.4017   -6.2062   -5.9415 H         1 <0>         0.0616
     46 H19         3.9515   -6.1900   -5.0662 H         1 <0>         0.0616
     47 H20         3.4768   -8.4582   -4.1838 H         1 <0>         0.0610
     48 H21         1.9270   -8.4744   -5.0591 H         1 <0>         0.0610
     49 H22         3.1386   -8.2294   -7.2087 H         1 <0>         0.0654
     50 H23         4.6884   -8.2132   -6.3334 H         1 <0>         0.0654
     51 H24         4.2137  -10.4814   -5.4510 H         1 <0>         0.0733
     52 H25         2.6639  -10.4976   -6.3263 H         1 <0>         0.0734
     53 H26         2.6074  -10.6652   -8.7498 H         1 <0>         0.1263
     54 H27         3.7599  -11.4597  -10.7756 H         1 <0>         0.1375
     55 H28         7.4705  -11.4381   -8.6731 H         1 <0>         0.1375
     56 H29         6.3193  -10.6357   -6.6497 H         1 <0>         0.1263
     57 H30         9.5033  -10.5975  -16.5888 H         1 <0>         0.2152
@<TRIPOS>BOND
     1    1    2 1
     2    1   28 1
     3    1   29 1
     4    1   30 1
     5    2    3 1
     6    2   31 1
     7    2   32 1
     8    3    4 1
     9    3   33 1
    10    3   34 1
    11    4    5 1
    12    4   35 1
    13    4   36 1
    14    5    6 1
    15    5   37 1
    16    5   38 1
    17    6    7 1
    18    6   39 1
    19    6   40 1
    20    7    8 1
    21    7   41 1
    22    7   42 1
    23    8    9 1
    24    8   43 1
    25    8   44 1
    26    9   10 1
    27    9   45 1
    28    9   46 1
    29   10   11 1
    30   10   47 1
    31   10   48 1
    32   11   12 1
    33   11   49 1
    34   11   50 1
    35   12   13 1
    36   12   51 1
    37   12   52 1
    38   13   18 ar
    39   13   14 ar
    40   14   15 ar
    41   14   53 1
    42   15   16 ar
    43   15   54 1
    44   16   17 ar
    45   16   19 1
    46   17   18 ar
    47   17   55 1
    48   18   56 1
    49   19   20 2
    50   19   21 2
    51   19   22 1
    52   22   23 1
    53   23   27 1
    54   23   24 2
    55   24   25 1
    56   25   26 2
    57   26   27 1
    58   26   57 1
