@<TRIPOS>MOLECULE
ZINC02043204
   48    50     0     0     0
SMALL
USER_CHARGES

@<TRIPOS>ATOM
      1 C1          2.5162    0.9496    1.4171 C.ar      1 <0>        -0.1558
      2 C2          1.8179    1.8754    0.7027 C.ar      1 <0>        -0.0089
      3 C3          0.8924    1.4496   -0.2625 C.ar      1 <0>        -0.1400
      4 C4          0.1441    2.3570   -1.0300 C.ar      1 <0>         0.1716
      5 N1         -0.7096    1.9109   -1.9214 N.ar      1 <0>        -0.4887
      6 C5         -0.9082    0.6184   -2.1416 C.ar      1 <0>         0.1175
      7 C6         -0.2327   -0.3410   -1.4505 C.ar      1 <0>        -0.1972
      8 C7          0.7007    0.0595   -0.4769 C.ar      1 <0>         0.0581
      9 C8          1.4373   -0.8645    0.2774 C.ar      1 <0>        -0.6935
     10 C9          2.3271   -0.4146    1.2059 C.ar      1 <0>         0.0350
     11 S1          1.2137   -2.5943    0.0269 S.o2      1 <0>         2.6977
     12 O1          2.1244   -3.2517    0.8974 O.2       1 <0>        -0.9448
     13 O2         -0.1865   -2.8329    0.0680 O.2       1 <0>        -0.9312
     14 N2          1.7064   -2.9332   -1.5173 N.pl3     1 <0>        -1.1162
     15 C10         3.1062   -2.7326   -1.9002 C.3       1 <0>         0.0916
     16 C11         3.3893   -3.4769   -3.2066 C.3       1 <0>        -0.0177
     17 N3          4.7929   -3.2757   -3.5905 N.4       1 <0>        -0.5066
     18 C12         5.0647   -3.9903   -4.8449 C.3       1 <0>         0.0395
     19 C13         6.5046   -3.7840   -5.2387 C.2       1 <0>        -0.2534
     20 C14         7.2882   -4.8305   -5.4586 C.2       1 <0>        -0.0124
     21 C15         8.7005   -4.6281   -5.8449 C.ar      1 <0>        -0.0865
     22 C16         9.2134   -3.3367   -5.9733 C.ar      1 <0>        -0.0932
     23 C17        10.5324   -3.1541   -6.3336 C.ar      1 <0>        -0.0930
     24 C18        11.3467   -4.2489   -6.5682 C.ar      1 <0>        -0.0711
     25 C19        10.8435   -5.5324   -6.4424 C.ar      1 <0>        -0.0912
     26 C20         9.5277   -5.7277   -6.0770 C.ar      1 <0>        -0.0822
     27 Br1        13.1533   -3.9899   -7.0630 Br        1 <0>        -0.0276
     28 H1          3.2315    1.2784    2.1565 H         1 <0>         0.1450
     29 H2          1.9750    2.9294    0.8779 H         1 <0>         0.1486
     30 H3          0.2706    3.4199   -0.8866 H         1 <0>         0.1731
     31 H4         -1.6264    0.3180   -2.8902 H         1 <0>         0.1633
     32 H5         -0.4102   -1.3883   -1.6456 H         1 <0>         0.1411
     33 H6          2.8949   -1.1263    1.7868 H         1 <0>         0.1512
     34 H7          1.0683   -3.2645   -2.1683 H         1 <0>         0.4272
     35 H8          3.2957   -1.6683   -2.0399 H         1 <0>         0.0890
     36 H9          3.7565   -3.1173   -1.1145 H         1 <0>         0.1050
     37 H10         3.1998   -4.5411   -3.0669 H         1 <0>         0.1445
     38 H11         2.7390   -3.0921   -3.9922 H         1 <0>         0.1424
     39 H12         4.9683   -2.2905   -3.7199 H         1 <0>         0.4308
     40 H13         4.8752   -5.0546   -4.7051 H         1 <0>         0.1348
     41 H14         4.4144   -3.6056   -5.6305 H         1 <0>         0.1403
     42 H15         6.8982   -2.7835   -5.3419 H         1 <0>         0.1396
     43 H16         6.8946   -5.8309   -5.3555 H         1 <0>         0.1348
     44 H17         8.5789   -2.4819   -5.7913 H         1 <0>         0.1337
     45 H18        10.9305   -2.1552   -6.4334 H         1 <0>         0.1407
     46 H19        11.4834   -6.3826   -6.6269 H         1 <0>         0.1428
     47 H20         9.1374   -6.7295   -5.9748 H         1 <0>         0.1397
     48 H21         5.3949   -3.6319   -2.8633 H         1 <0>         0.4327
@<TRIPOS>BOND
     1    1   10 ar
     2    1    2 ar
     3    1   28 1
     4    2    3 ar
     5    2   29 1
     6    3    8 ar
     7    3    4 ar
     8    4    5 ar
     9    4   30 1
    10    5    6 ar
    11    6    7 ar
    12    6   31 1
    13    7    8 ar
    14    7   32 1
    15    8    9 ar
    16    9   10 ar
    17    9   11 1
    18   10   33 1
    19   11   12 2
    20   11   13 2
    21   11   14 1
    22   14   15 1
    23   14   34 1
    24   15   16 1
    25   15   35 1
    26   15   36 1
    27   16   17 1
    28   16   37 1
    29   16   38 1
    30   17   18 1
    31   17   39 1
    32   17   48 1
    33   18   19 1
    34   18   40 1
    35   18   41 1
    36   19   20 2
    37   19   42 1
    38   20   21 1
    39   20   43 1
    40   21   26 ar
    41   21   22 ar
    42   22   23 ar
    43   22   44 1
    44   23   24 ar
    45   23   45 1
    46   24   25 ar
    47   24   27 1
    48   25   26 ar
    49   25   46 1
    50   26   47 1
@<TRIPOS>MOLECULE
ZINC36382821
   53    58     0     0     0
SMALL
USER_CHARGES

@<TRIPOS>ATOM
      1 C1         -0.0167    1.3792    0.0096 C.ar      1 <0>        -0.1098
      2 C2          1.1686    2.0926    0.0021 C.ar      1 <0>        -0.1129
      3 C3          2.3774    1.4273   -0.0130 C.ar      1 <0>        -0.1018
      4 C4          2.4027    0.0331   -0.0207 C.ar      1 <0>        -0.0532
      5 C5          1.2048   -0.6804   -0.0131 C.ar      1 <0>        -0.0972
      6 C6          0.0021   -0.0041    0.0020 C.ar      1 <0>        -0.1217
      7 C7          3.6976   -0.6873   -0.0375 C.ar      1 <0>        -0.0895
      8 C8          4.6832   -0.3453   -0.9637 C.ar      1 <0>        -0.0030
      9 C9          5.8807   -1.0537   -0.9352 C.ar      1 <0>        -0.0817
     10 C10         6.0621   -2.0835    0.0163 C.ar      1 <0>         0.2098
     11 C11         7.3365   -2.8113    0.0182 C.2       1 <0>        -0.1560
     12 C12         8.2922   -2.4985   -0.8622 C.2       1 <0>         0.1454
     13 N1          8.1430   -1.5000   -1.7996 N.am      1 <0>        -0.4929
     14 C13         6.9753   -0.7619   -1.8753 C.2       1 <0>         0.3089
     15 N2          7.0941    0.1108   -2.8403 N.2       1 <0>        -0.2482
     16 N3          8.3615   -0.0506   -3.4156 N.am      1 <0>        -0.5283
     17 H1          8.7252    0.4618   -4.1545 H         1 <0>         0.4679
     18 C14         8.9833   -1.0478   -2.7556 C.2       1 <0>         0.6564
     19 O1         10.1052   -1.4664   -2.9807 O.2       1 <0>        -0.5212
     20 N4          5.0992   -2.3771    0.8804 N.ar      1 <0>        -0.4545
     21 C15         3.9492   -1.7199    0.8843 C.ar      1 <0>         0.1979
     22 C16         2.9074   -2.0823    1.8731 C.ar      1 <0>        -0.0255
     23 C17         2.0785   -1.0974    2.4096 C.ar      1 <0>        -0.0664
     24 C18         1.1099   -1.4411    3.3303 C.ar      1 <0>        -0.1341
     25 C19         0.9603   -2.7596    3.7214 C.ar      1 <0>        -0.1011
     26 C20         1.7795   -3.7411    3.1928 C.ar      1 <0>        -0.0980
     27 C21         2.7478   -3.4106    2.2670 C.ar      1 <0>        -0.0610
     28 C22        -0.0992   -3.1282    4.7278 C.3       1 <0>         0.0637
     29 C23         0.4698   -3.6059    6.0743 C.3       1 <0>        -0.1268
     30 C24        -0.6447   -4.6656    6.0798 C.3       1 <0>        -0.1586
     31 C25        -0.6528   -4.5514    4.5462 C.3       1 <0>        -0.1320
     32 N5         -1.1431   -2.1030    4.8585 N.4       1 <0>        -0.6175
     33 H2         -0.9603    1.9042    0.0260 H         1 <0>         0.1263
     34 H3          1.1477    3.1723    0.0078 H         1 <0>         0.1304
     35 H4          3.3021    1.9852   -0.0192 H         1 <0>         0.1293
     36 H5          1.2182   -1.7603   -0.0191 H         1 <0>         0.1222
     37 H6         -0.9264   -0.5557    0.0083 H         1 <0>         0.1241
     38 H7          4.5215    0.4452   -1.6816 H         1 <0>         0.1595
     39 H8          7.5029   -3.6026    0.7341 H         1 <0>         0.1729
     40 H9          9.2198   -3.0510   -0.8374 H         1 <0>         0.1807
     41 H10         2.1946   -0.0677    2.1053 H         1 <0>         0.1437
     42 H11         0.4676   -0.6792    3.7467 H         1 <0>         0.1184
     43 H12         1.6579   -4.7688    3.5020 H         1 <0>         0.1392
     44 H13         3.3839   -4.1783    1.8517 H         1 <0>         0.1450
     45 H14         1.4723   -4.0271    5.9999 H         1 <0>         0.1262
     46 H15         0.3768   -2.8703    6.8732 H         1 <0>         0.0946
     47 H16        -0.3188   -5.6401    6.4433 H         1 <0>         0.1018
     48 H17        -1.5684   -4.3253    6.5478 H         1 <0>         0.0931
     49 H18        -1.6520   -4.5791    4.1116 H         1 <0>         0.0957
     50 H19         0.0429   -5.2310    4.0541 H         1 <0>         0.1275
     51 H20        -1.7011   -2.0821    4.0181 H         1 <0>         0.4388
     52 H21        -1.7322   -2.3215    5.6481 H         1 <0>         0.4379
     53 H22        -0.7131   -1.2011    4.9992 H         1 <0>         0.4354
@<TRIPOS>BOND
     1    1    6 ar
     2    1    2 ar
     3    1   33 1
     4    2    3 ar
     5    2   34 1
     6    3    4 ar
     7    3   35 1
     8    4    5 ar
     9    4    7 1
    10    5    6 ar
    11    5   36 1
    12    6   37 1
    13    7   21 ar
    14    7    8 ar
    15    8    9 ar
    16    8   38 1
    17    9   14 1
    18    9   10 ar
    19   10   11 1
    20   10   20 ar
    21   11   12 2
    22   11   39 1
    23   12   13 1
    24   12   40 1
    25   13   18 am
    26   13   14 1
    27   14   15 2
    28   15   16 1
    29   16   17 1
    30   16   18 am
    31   18   19 2
    32   20   21 ar
    33   21   22 1
    34   22   27 ar
    35   22   23 ar
    36   23   24 ar
    37   23   41 1
    38   24   25 ar
    39   24   42 1
    40   25   26 ar
    41   25   28 1
    42   26   27 ar
    43   26   43 1
    44   27   44 1
    45   28   31 1
    46   28   29 1
    47   28   32 1
    48   29   30 1
    49   29   45 1
    50   29   46 1
    51   30   31 1
    52   30   47 1
    53   30   48 1
    54   31   49 1
    55   31   50 1
    56   32   51 1
    57   32   52 1
    58   32   53 1
@<TRIPOS>MOLECULE
ZINC43178353
   52    55     0     0     0
SMALL
USER_CHARGES

@<TRIPOS>ATOM
      1 C1          0.7202   -3.1310   -2.6806 C.3       1 <0>        -0.1540
      2 C2         -0.3986   -3.1799   -3.7231 C.3       1 <0>        -0.0409
      3 C3         -1.7325   -3.2513   -3.0254 C.2       1 <0>        -0.1517
      4 C4         -2.4141   -4.3656   -2.7132 C.2       1 <0>         0.0741
      5 N1         -3.5858   -4.0326   -2.0841 N.pl3     1 <0>        -0.5679
      6 H1         -4.2451   -4.6679   -1.7636 H         1 <0>         0.4298
      7 C5         -3.6885   -2.6731   -1.9744 C.ar      1 <0>         0.3263
      8 C6         -2.5303   -2.1214   -2.5528 C.ar      1 <0>        -0.1938
      9 C7         -2.3831   -0.7262   -2.5647 C.ar      1 <0>         0.4782
     10 N2         -3.3461    0.0146   -2.0240 N.ar      1 <0>        -0.5412
     11 C8         -4.4159   -0.5449   -1.4882 C.ar      1 <0>         0.3335
     12 N3         -4.5996   -1.8473   -1.4623 N.ar      1 <0>        -0.5214
     13 N4         -1.2642   -0.1360   -3.1244 N.pl3     1 <0>        -0.6552
     14 C9         -0.0473    0.2632   -2.3942 C.3       1 <0>         0.1354
     15 C10         1.0732    0.2684   -3.4639 C.3       1 <0>        -0.1473
     16 C11         0.3160    0.8091   -4.7055 C.3       1 <0>         0.0299
     17 C12        -1.0891    0.1912   -4.5470 C.3       1 <0>         0.1338
     18 C13         0.2477    2.3372   -4.6748 C.3       1 <0>         0.1157
     19 N5          1.5959    2.8895   -4.8274 N.am      1 <0>        -0.7500
     20 C14         1.7810    4.2245   -4.8298 C.2       1 <0>         0.5718
     21 O1          0.8290    4.9705   -4.7052 O.2       1 <0>        -0.4908
     22 C15         3.1391    4.7809   -4.9836 C.ar      1 <0>        -0.2021
     23 C16         4.2347    3.9264   -5.1327 C.ar      1 <0>        -0.0306
     24 C17         5.5002    4.4509   -5.2758 C.ar      1 <0>        -0.1714
     25 C18         5.6904    5.8254   -5.2723 C.ar      1 <0>         0.1752
     26 C19         4.6102    6.6796   -5.1251 C.ar      1 <0>        -0.1995
     27 C20         3.3346    6.1662   -4.9864 C.ar      1 <0>         0.2025
     28 F1          2.2802    6.9995   -4.8484 F         1 <0>        -0.0998
     29 F2          6.9346    6.3326   -5.4128 F         1 <0>        -0.1149
     30 N6          0.9496    0.3405   -5.9453 N.4       1 <0>        -0.6284
     31 H2          1.6763   -2.9762   -3.1807 H         1 <0>         0.0545
     32 H3          0.5355   -2.3101   -1.9877 H         1 <0>         0.0567
     33 H4          0.7459   -4.0718   -2.1308 H         1 <0>         0.0621
     34 H5         -0.3592   -2.2826   -4.3407 H         1 <0>         0.0562
     35 H6         -0.2703   -4.0603   -4.3528 H         1 <0>         0.0744
     36 H7         -2.0880   -5.3730   -2.9258 H         1 <0>         0.1855
     37 H8         -5.1744    0.0935   -1.0598 H         1 <0>         0.2071
     38 H9         -0.1699    1.2590   -1.9684 H         1 <0>         0.0754
     39 H10         0.1794   -0.4600   -1.6108 H         1 <0>         0.0899
     40 H11         1.8834    0.9390   -3.1777 H         1 <0>         0.1146
     41 H12         1.4473   -0.7397   -3.6427 H         1 <0>         0.1082
     42 H13        -1.1678   -0.7146   -5.1482 H         1 <0>         0.0814
     43 H14        -1.8459    0.9116   -4.8575 H         1 <0>         0.0933
     44 H15        -0.3837    2.6892   -5.4907 H         1 <0>         0.1049
     45 H16        -0.1729    2.6630   -3.7234 H         1 <0>         0.1238
     46 H17         2.3555    2.2944   -4.9268 H         1 <0>         0.3926
     47 H18         4.0894    2.8562   -5.1353 H         1 <0>         0.1393
     48 H19         6.3470    3.7905   -5.3907 H         1 <0>         0.1551
     49 H20         4.7644    7.7486   -5.1228 H         1 <0>         0.1637
     50 H21         0.9579   -0.6683   -5.9583 H         1 <0>         0.4405
     51 H22         0.4291    0.6828   -6.7391 H         1 <0>         0.4422
     52 H23         1.8968    0.6854   -5.9901 H         1 <0>         0.4335
@<TRIPOS>BOND
     1    1    2 1
     2    1   31 1
     3    1   32 1
     4    1   33 1
     5    2    3 1
     6    2   34 1
     7    2   35 1
     8    3    8 1
     9    3    4 2
    10    4    5 1
    11    4   36 1
    12    5    6 1
    13    5    7 1
    14    7   12 ar
    15    7    8 ar
    16    8    9 ar
    17    9   10 ar
    18    9   13 1
    19   10   11 ar
    20   11   12 ar
    21   11   37 1
    22   13   17 1
    23   13   14 1
    24   14   15 1
    25   14   38 1
    26   14   39 1
    27   15   16 1
    28   15   40 1
    29   15   41 1
    30   16   17 1
    31   16   18 1
    32   16   30 1
    33   17   42 1
    34   17   43 1
    35   18   19 1
    36   18   44 1
    37   18   45 1
    38   19   20 am
    39   19   46 1
    40   20   21 2
    41   20   22 1
    42   22   27 ar
    43   22   23 ar
    44   23   24 ar
    45   23   47 1
    46   24   25 ar
    47   24   48 1
    48   25   26 ar
    49   25   29 1
    50   26   27 ar
    51   26   49 1
    52   27   28 1
    53   30   50 1
    54   30   51 1
    55   30   52 1
@<TRIPOS>MOLECULE
ZINC03814434
   62    69     0     0     0
SMALL
USER_CHARGES

@<TRIPOS>ATOM
      1 C1         -0.1295    1.5952   -0.2973 C.3       1 <0>        -0.1687
      2 C2         -0.0862    0.0696   -0.1900 C.3       1 <0>         0.3342
      3 C3          0.5692   -0.4501   -1.4637 C.3       1 <0>         0.0405
      4 H1          1.4796    0.1159   -1.6612 H         1 <0>         0.1372
      5 C4          0.9167   -1.9328   -1.2889 C.3       1 <0>        -0.0061
      6 H2          1.3963   -2.3075   -2.1932 H         1 <0>         0.1555
      7 C5          1.8785   -2.0596   -0.1021 C.3       1 <0>        -0.1827
      8 C6          1.2061   -1.5198    1.1541 C.3       1 <0>         0.2999
      9 H3          1.9797   -1.4243    1.9161 H         1 <0>         0.1550
     10 O1          0.6555   -0.2442    0.9666 O.3       1 <0>        -0.3234
     11 N1          0.2189   -2.4746    1.6600 N.pl3     1 <0>        -0.5366
     12 C7          0.4705   -3.5508    2.4739 C.ar      1 <0>         0.1469
     13 C8          1.6649   -4.0152    3.0240 C.ar      1 <0>        -0.1522
     14 C9          1.5948   -5.1456    3.8201 C.ar      1 <0>        -0.0582
     15 C10         0.4006   -5.7997    4.0696 C.ar      1 <0>        -0.1457
     16 C11        -0.7984   -5.3597    3.5358 C.ar      1 <0>        -0.0280
     17 C12        -0.7487   -4.2198    2.7307 C.ar      1 <0>        -0.1131
     18 C13        -1.7893   -3.4830    2.0197 C.ar      1 <0>         0.0276
     19 C14        -1.1442   -2.4197    1.3841 C.ar      1 <0>         0.0376
     20 C15        -1.8806   -1.5095    0.6175 C.ar      1 <0>         0.0894
     21 N2         -1.4718   -0.3951   -0.1095 N.pl3     1 <0>        -0.5183
     22 C16        -2.5611    0.1913   -0.7090 C.ar      1 <0>         0.1618
     23 C17        -2.6521    1.3277   -1.5118 C.ar      1 <0>        -0.1305
     24 C18        -3.9109    1.6745   -1.9733 C.ar      1 <0>        -0.0737
     25 C19        -5.0393    0.9368   -1.6616 C.ar      1 <0>        -0.1358
     26 C20        -4.9745   -0.1955   -0.8662 C.ar      1 <0>        -0.0503
     27 C21        -3.7147   -0.5596   -0.3919 C.ar      1 <0>        -0.1042
     28 C22        -3.2693   -1.6660    0.4845 C.ar      1 <0>        -0.0360
     29 C23        -3.9084   -2.7313    1.1102 C.ar      1 <0>        -0.0288
     30 C24        -3.1873   -3.6421    1.8754 C.ar      1 <0>        -0.1255
     31 C25        -4.1221   -4.6480    2.4030 C.2       1 <0>         0.5632
     32 O2         -3.8062   -5.5851    3.1110 O.2       1 <0>        -0.5106
     33 N3         -5.3744   -4.3851    1.9926 N.am      1 <0>        -0.7162
     34 C26        -5.3495   -3.1771    1.1601 C.3       1 <0>         0.1358
     35 N4         -0.3067   -2.7008   -1.0216 N.4       1 <0>        -0.5252
     36 C27         0.0145   -4.1336   -0.9773 C.3       1 <0>        -0.0497
     37 O3         -0.3340   -0.2979   -2.5607 O.3       1 <0>        -0.3614
     38 C28         0.3101   -0.0933   -3.8198 C.3       1 <0>         0.0162
     39 H4          0.8261    2.0094    0.0240 H         1 <0>         0.0984
     40 H5         -0.3202    1.8814   -1.3317 H         1 <0>         0.1036
     41 H6         -0.9255    1.9818    0.3392 H         1 <0>         0.0921
     42 H7          2.1370   -3.1081    0.0458 H         1 <0>         0.1233
     43 H8          2.7835   -1.4869   -0.3048 H         1 <0>         0.1455
     44 H9          2.6036   -3.5149    2.8368 H         1 <0>         0.1365
     45 H10         2.5026   -5.5304    4.2610 H         1 <0>         0.1359
     46 H11         0.4045   -6.6780    4.6980 H         1 <0>         0.1352
     47 H12        -1.7278   -5.8736    3.7323 H         1 <0>         0.1600
     48 H13        -1.7792    1.9122   -1.7624 H         1 <0>         0.1440
     49 H14        -4.0153    2.5500   -2.5970 H         1 <0>         0.1336
     50 H15        -5.9967    1.2527   -2.0488 H         1 <0>         0.1332
     51 H16        -5.8575   -0.7687   -0.6249 H         1 <0>         0.1415
     52 H17        -6.1628   -4.9065    2.2103 H         1 <0>         0.4348
     53 H18        -5.9671   -2.3994    1.6094 H         1 <0>         0.1115
     54 H19        -5.7060   -3.4063    0.1559 H         1 <0>         0.1103
     55 H20        -0.6958   -2.4158   -0.1353 H         1 <0>         0.4186
     56 H21         0.4349   -4.4415   -1.9347 H         1 <0>         0.1256
     57 H22         0.7403   -4.3189   -0.1854 H         1 <0>         0.1191
     58 H23        -0.8932   -4.7035   -0.7789 H         1 <0>         0.1256
     59 H24         0.9168    0.8112   -3.7748 H         1 <0>         0.0633
     60 H25         0.9482   -0.9479   -4.0446 H         1 <0>         0.0514
     61 H26        -0.4433    0.0130   -4.6003 H         1 <0>         0.1100
     62 H27        -0.9785   -2.5293   -1.7546 H         1 <0>         0.4274
@<TRIPOS>BOND
     1    1    2 1
     2    1   39 1
     3    1   40 1
     4    1   41 1
     5    2   10 1
     6    2   21 1
     7    2    3 1
     8    3    4 1
     9    3    5 1
    10    3   37 1
    11    5    6 1
    12    5    7 1
    13    5   35 1
    14    7    8 1
    15    7   42 1
    16    7   43 1
    17    8    9 1
    18    8   10 1
    19    8   11 1
    20   11   19 1
    21   11   12 1
    22   12   17 ar
    23   12   13 ar
    24   13   14 ar
    25   13   44 1
    26   14   15 ar
    27   14   45 1
    28   15   16 ar
    29   15   46 1
    30   16   17 ar
    31   16   47 1
    32   17   18 1
    33   18   30 ar
    34   18   19 ar
    35   19   20 ar
    36   20   28 ar
    37   20   21 1
    38   21   22 1
    39   22   27 ar
    40   22   23 ar
    41   23   24 ar
    42   23   48 1
    43   24   25 ar
    44   24   49 1
    45   25   26 ar
    46   25   50 1
    47   26   27 ar
    48   26   51 1
    49   27   28 1
    50   28   29 ar
    51   29   34 1
    52   29   30 ar
    53   30   31 1
    54   31   32 2
    55   31   33 am
    56   33   34 1
    57   33   52 1
    58   34   53 1
    59   34   54 1
    60   35   36 1
    61   35   55 1
    62   35   62 1
    63   36   56 1
    64   36   57 1
    65   36   58 1
    66   37   38 1
    67   38   59 1
    68   38   60 1
    69   38   61 1
@<TRIPOS>MOLECULE
ZINC13998530
   48    51     0     0     0
SMALL
USER_CHARGES
N-[[2-(4-amino-1,2,5-oxadiazol-3-yl)-1-ethyl-imidazo[5,4-d]pyridin-7-yl]methyl]piperidin-4-amine
@<TRIPOS>ATOM
      1 C1          1.5587    0.3111   -0.1080 C.3       1 <0>        -0.1729
      2 C2          0.2652    1.0542   -0.4478 C.3       1 <0>         0.0990
      3 N1         -0.4854    1.3157    0.7828 N.pl3     1 <0>        -0.4686
      4 C3         -0.4224    2.4543    1.5497 C.ar      1 <0>         0.0959
      5 C4          0.2805    3.6520    1.4788 C.ar      1 <0>        -0.1364
      6 C5          0.0830    4.5977    2.4615 C.ar      1 <0>         0.1287
      7 N2         -0.7570    4.3848    3.4610 N.ar      1 <0>        -0.4799
      8 C6         -1.4527    3.2734    3.5731 C.ar      1 <0>         0.1941
      9 C7         -1.3129    2.2569    2.6252 C.ar      1 <0>         0.0004
     10 N3         -1.8585    1.0289    2.4690 N.2       1 <0>        -0.4499
     11 C8         -1.3766    0.4683    1.3870 C.2       1 <0>         0.3728
     12 C9         -1.7401   -0.8779    0.8921 C.2       1 <0>         0.0023
     13 C10        -2.6825   -1.8587    1.4795 C.2       1 <0>         0.3357
     14 N4         -2.6148   -2.8606    0.6343 N.2       1 <0>        -0.4153
     15 O1         -1.8331   -2.5921   -0.2473 O.3       1 <0>         0.3396
     16 N5         -1.3034   -1.5081   -0.1774 N.2       1 <0>        -0.3271
     17 N6         -3.4473   -1.7455    2.6331 N.pl3     1 <0>        -0.8250
     18 C11         1.2410    3.9115    0.3469 C.3       1 <0>         0.0915
     19 N7          0.4927    4.3449   -0.8406 N.3       1 <0>        -0.6619
     20 C12         1.3822    4.4840   -2.0015 C.3       1 <0>         0.0601
     21 C13         2.0249    5.8738   -1.9900 C.3       1 <0>        -0.1386
     22 C14         2.9024    6.0349   -3.2334 C.3       1 <0>        -0.0005
     23 N8          2.0812    5.8656   -4.4389 N.4       1 <0>        -0.5357
     24 C15         1.4918    4.5218   -4.4955 C.3       1 <0>         0.0005
     25 C16         0.5721    4.3156   -3.2899 C.3       1 <0>        -0.1532
     26 H1          2.1223    0.1147   -1.0320 H         1 <0>         0.0835
     27 H2          1.3154   -0.6428    0.3829 H         1 <0>         0.0718
     28 H3          2.1683    0.9271    0.5695 H         1 <0>         0.0631
     29 H4          0.5085    2.0081   -0.9386 H         1 <0>         0.0828
     30 H5         -0.3444    0.4382   -1.1253 H         1 <0>         0.1085
     31 H6          0.6248    5.5308    2.4149 H         1 <0>         0.1643
     32 H7         -2.1261    3.1422    4.4072 H         1 <0>         0.1735
     33 H8         -4.1062   -2.5714    2.9394 H         1 <0>         0.4441
     34 H9         -3.3942   -0.8300    3.2405 H         1 <0>         0.4554
     35 H10         1.9502    4.6992    0.6411 H         1 <0>         0.0956
     36 H11         1.7932    2.9887    0.1157 H         1 <0>         0.0477
     37 H12        -0.2824    3.6011   -1.0772 H         1 <0>         0.3446
     38 H13         2.1485    3.6993   -1.9174 H         1 <0>         0.0618
     39 H14         1.2375    6.6419   -1.9927 H         1 <0>         0.0991
     40 H15         2.6423    5.9848   -1.0864 H         1 <0>         0.1091
     41 H16         3.3541    7.0379   -3.2359 H         1 <0>         0.1357
     42 H17         3.6974    5.2747   -3.2221 H         1 <0>         0.1252
     43 H18         1.2675    6.6058   -4.4351 H         1 <0>         0.4517
     44 H19         0.9095    4.4156   -5.4227 H         1 <0>         0.1362
     45 H20         2.2934    3.7687   -4.4776 H         1 <0>         0.1264
     46 H21         0.1423    3.3036   -3.3232 H         1 <0>         0.1068
     47 H22        -0.2383    5.0590   -3.3133 H         1 <0>         0.1012
     48 H23         2.7063    6.0125   -5.3320 H         1 <0>         0.4559
@<TRIPOS>BOND
     1    1    2 1
     2    1   26 1
     3    1   27 1
     4    1   28 1
     5    2    3 1
     6    2   29 1
     7    2   30 1
     8    3   11 1
     9    3    4 1
    10    4    9 ar
    11    4    5 ar
    12    5    6 ar
    13    5   18 1
    14    6    7 ar
    15    6   31 1
    16    7    8 ar
    17    8    9 ar
    18    8   32 1
    19    9   10 1
    20   10   11 2
    21   11   12 1
    22   12   16 2
    23   12   13 1
    24   13   14 2
    25   13   17 1
    26   14   15 1
    27   15   16 1
    28   17   33 1
    29   17   34 1
    30   18   19 1
    31   18   35 1
    32   18   36 1
    33   19   20 1
    34   19   37 1
    35   20   25 1
    36   20   21 1
    37   20   38 1
    38   21   22 1
    39   21   39 1
    40   21   40 1
    41   22   23 1
    42   22   41 1
    43   22   42 1
    44   23   24 1
    45   23   43 1
    46   23   48 1
    47   24   25 1
    48   24   44 1
    49   24   45 1
    50   25   46 1
    51   25   47 1
@<TRIPOS>MOLECULE
ZINC13998530
   50    53     0     0     0
SMALL
USER_CHARGES
N-[[2-(4-amino-1,2,5-oxadiazol-3-yl)-1-ethyl-imidazo[5,4-d]pyridin-7-yl]methyl]piperidin-4-amine
@<TRIPOS>ATOM
      1 C1          1.5587    0.3111   -0.1080 C.3       1 <0>        -0.1879
      2 C2          0.2652    1.0542   -0.4478 C.3       1 <0>         0.0907
      3 N1         -0.4854    1.3157    0.7828 N.pl3     1 <0>        -0.4320
      4 C3         -0.4224    2.4543    1.5497 C.ar      1 <0>         0.1403
      5 C4          0.2805    3.6520    1.4788 C.ar      1 <0>        -0.2050
      6 C5          0.0830    4.5977    2.4615 C.ar      1 <0>         0.2011
      7 N2         -0.7570    4.3848    3.4610 N.ar      1 <0>        -0.4354
      8 C6         -1.4527    3.2734    3.5731 C.ar      1 <0>         0.2433
      9 C7         -1.3129    2.2569    2.6252 C.ar      1 <0>         0.0004
     10 C8         -1.3766    0.4683    1.3870 C.cat     1 <0>         0.5282
     11 C9         -1.7401   -0.8779    0.8921 C.2       1 <0>        -0.0864
     12 C10        -2.6825   -1.8587    1.4795 C.2       1 <0>         0.3373
     13 N3         -2.6148   -2.8606    0.6343 N.2       1 <0>        -0.3540
     14 O1         -1.8331   -2.5921   -0.2473 O.3       1 <0>         0.4261
     15 N4         -1.3034   -1.5081   -0.1774 N.2       1 <0>        -0.2841
     16 N5         -3.4473   -1.7455    2.6331 N.pl3     1 <0>        -0.7914
     17 C11         1.2410    3.9115    0.3469 C.3       1 <0>         0.0409
     18 C12         1.3822    4.4840   -2.0015 C.3       1 <0>         0.0090
     19 C13         2.0249    5.8738   -1.9900 C.3       1 <0>        -0.1710
     20 C14         2.9024    6.0349   -3.2334 C.3       1 <0>         0.0014
     21 C15         1.4918    4.5218   -4.4955 C.3       1 <0>         0.0029
     22 C16         0.5721    4.3156   -3.2899 C.3       1 <0>        -0.1754
     23 H1          2.1915    0.9474    0.5107 H         1 <0>         0.0766
     24 H2          1.3205   -0.6031    0.4356 H         1 <0>         0.0880
     25 H3          2.0858    0.0597   -1.0284 H         1 <0>         0.1156
     26 H4          0.5062    1.9994   -0.9342 H         1 <0>         0.0840
     27 H5         -0.3389    0.4438   -1.1190 H         1 <0>         0.1418
     28 H6          0.6248    5.5308    2.4149 H         1 <0>         0.2015
     29 H7         -2.1261    3.1422    4.4072 H         1 <0>         0.2090
     30 H8         -3.4005   -0.9382    3.1687 H         1 <0>         0.4102
     31 H9         -4.0283   -2.4737    2.9032 H         1 <0>         0.4460
     32 H10         1.9437    4.6920    0.6384 H         1 <0>         0.1710
     33 H11         1.7882    2.9970    0.1179 H         1 <0>         0.1475
     34 H12         2.1599    3.7216   -1.9579 H         1 <0>         0.1609
     35 H13         1.2451    6.6354   -1.9938 H         1 <0>         0.1184
     36 H14         2.6377    5.9839   -1.0953 H         1 <0>         0.1392
     37 H15         3.6903    5.2817   -3.2219 H         1 <0>         0.1457
     38 H16         3.3501    7.0287   -3.2354 H         1 <0>         0.1589
     39 H17         2.2862    3.7758   -4.4782 H         1 <0>         0.1457
     40 H18         0.9150    4.4169   -5.4145 H         1 <0>         0.1578
     41 H19         0.1469    3.3125   -3.3239 H         1 <0>         0.1333
     42 H20        -0.2310    5.0522   -3.3137 H         1 <0>         0.1182
     43 N6          0.4822    4.3468   -0.8408 N.4       1 <0>        -0.5258
     44 H21         0.0394    5.2526   -0.6466 H         1 <0>         0.4455
     45 H22        -0.2418    3.6507   -1.0540 H         1 <0>         0.4274
     46 N7          2.0795    5.8742   -4.4473 N.4       1 <0>        -0.5237
     47 H23         2.6682    6.0169   -5.2763 H         1 <0>         0.4578
     48 H24         1.3252    6.5707   -4.4392 H         1 <0>         0.4401
     49 N8         -1.8590    1.0286    2.4695 N.pl3     1 <0>        -0.4723
     50 H25        -2.5457    0.6011    3.1020 H         1 <0>         0.4828
@<TRIPOS>BOND
     1    1    2 1
     2    1   23 1
     3    1   24 1
     4    1   25 1
     5    2    3 1
     6    2   26 1
     7    2   27 1
     8    3   10 1
     9    3    4 1
    10    4    9 ar
    11    4    5 ar
    12    5    6 ar
    13    5   17 1
    14    6    7 ar
    15    6   28 1
    16    7    8 ar
    17    8    9 ar
    18    8   29 1
    19    9   49 1
    20   10   11 1
    21   10   49 2
    22   11   15 2
    23   11   12 1
    24   12   13 2
    25   12   16 1
    26   13   14 1
    27   14   15 1
    28   16   30 1
    29   16   31 1
    30   17   32 1
    31   17   33 1
    32   17   43 1
    33   18   22 1
    34   18   19 1
    35   18   34 1
    36   18   43 1
    37   19   20 1
    38   19   35 1
    39   19   36 1
    40   20   37 1
    41   20   38 1
    42   20   46 1
    43   21   22 1
    44   21   39 1
    45   21   40 1
    46   21   46 1
    47   22   41 1
    48   22   42 1
    49   43   44 1
    50   43   45 1
    51   46   47 1
    52   46   48 1
    53   49   50 1
@<TRIPOS>MOLECULE
ZINC13998530
   48    51     0     0     0
SMALL
USER_CHARGES
N-[[2-(4-amino-1,2,5-oxadiazol-3-yl)-1-ethyl-imidazo[5,4-d]pyridin-7-yl]methyl]piperidin-4-amine
@<TRIPOS>ATOM
      1 C1          1.5587    0.3111   -0.1080 C.3       1 <0>        -0.1786
      2 C2          0.2652    1.0542   -0.4478 C.3       1 <0>         0.0984
      3 N1         -0.4854    1.3157    0.7828 N.pl3     1 <0>        -0.4740
      4 C3         -0.4224    2.4543    1.5497 C.ar      1 <0>         0.0984
      5 C4          0.2805    3.6520    1.4788 C.ar      1 <0>        -0.2089
      6 C5          0.0830    4.5977    2.4615 C.ar      1 <0>         0.1545
      7 N2         -0.7570    4.3848    3.4610 N.ar      1 <0>        -0.4785
      8 C6         -1.4527    3.2734    3.5731 C.ar      1 <0>         0.2265
      9 C7         -1.3129    2.2569    2.6252 C.ar      1 <0>         0.0045
     10 N3         -1.8585    1.0289    2.4690 N.2       1 <0>        -0.4438
     11 C8         -1.3766    0.4683    1.3870 C.2       1 <0>         0.3923
     12 C9         -1.7401   -0.8779    0.8921 C.2       1 <0>        -0.0123
     13 C10        -2.6825   -1.8587    1.4795 C.2       1 <0>         0.3390
     14 N4         -2.6148   -2.8606    0.6343 N.2       1 <0>        -0.4099
     15 O1         -1.8331   -2.5921   -0.2473 O.3       1 <0>         0.3511
     16 N5         -1.3034   -1.5081   -0.1774 N.2       1 <0>        -0.3239
     17 N6         -3.4473   -1.7455    2.6331 N.pl3     1 <0>        -0.8239
     18 C11         1.2410    3.9115    0.3469 C.3       1 <0>         0.0492
     19 N7          0.4927    4.3449   -0.8406 N.4       1 <0>        -0.5443
     20 C12         1.3822    4.4840   -2.0015 C.3       1 <0>         0.0286
     21 C13         2.0249    5.8738   -1.9900 C.3       1 <0>        -0.1779
     22 C14         2.9024    6.0349   -3.2334 C.3       1 <0>         0.0501
     23 N8          2.0812    5.8656   -4.4389 N.3       1 <0>        -0.6639
     24 C15         1.4918    4.5218   -4.4955 C.3       1 <0>         0.0503
     25 C16         0.5721    4.3156   -3.2899 C.3       1 <0>        -0.1817
     26 H1          2.1223    0.1147   -1.0320 H         1 <0>         0.0939
     27 H2          1.3154   -0.6428    0.3829 H         1 <0>         0.0792
     28 H3          2.1683    0.9271    0.5695 H         1 <0>         0.0650
     29 H4          0.5085    2.0081   -0.9386 H         1 <0>         0.0660
     30 H5         -0.3444    0.4382   -1.1253 H         1 <0>         0.1214
     31 H6          0.6248    5.5308    2.4149 H         1 <0>         0.1741
     32 H7         -2.1261    3.1422    4.4072 H         1 <0>         0.1835
     33 H8         -4.1062   -2.5714    2.9394 H         1 <0>         0.4473
     34 H9         -3.3942   -0.8300    3.2405 H         1 <0>         0.4545
     35 H10         1.9502    4.6992    0.6411 H         1 <0>         0.1484
     36 H11         1.7932    2.9887    0.1157 H         1 <0>         0.1304
     37 H12        -0.2824    3.6011   -1.0772 H         1 <0>         0.4360
     38 H13         2.1485    3.6993   -1.9174 H         1 <0>         0.1334
     39 H14         1.2375    6.6419   -1.9927 H         1 <0>         0.0911
     40 H15         2.6423    5.9848   -1.0864 H         1 <0>         0.0950
     41 H16         3.3541    7.0379   -3.2359 H         1 <0>         0.1018
     42 H17         3.6974    5.2747   -3.2221 H         1 <0>         0.0861
     43 H18         0.9095    4.4156   -5.4227 H         1 <0>         0.1017
     44 H19         2.2934    3.7687   -4.4776 H         1 <0>         0.0861
     45 H20         0.1423    3.3036   -3.3232 H         1 <0>         0.0920
     46 H21        -0.2383    5.0590   -3.3133 H         1 <0>         0.0912
     47 H22         1.2675    6.6058   -4.4351 H         1 <0>         0.3507
     48 H23         0.0189    5.3173   -0.6407 H         1 <0>         0.4498
@<TRIPOS>BOND
     1    1    2 1
     2    1   26 1
     3    1   27 1
     4    1   28 1
     5    2    3 1
     6    2   29 1
     7    2   30 1
     8    3   11 1
     9    3    4 1
    10    4    9 ar
    11    4    5 ar
    12    5    6 ar
    13    5   18 1
    14    6    7 ar
    15    6   31 1
    16    7    8 ar
    17    8    9 ar
    18    8   32 1
    19    9   10 1
    20   10   11 2
    21   11   12 1
    22   12   16 2
    23   12   13 1
    24   13   14 2
    25   13   17 1
    26   14   15 1
    27   15   16 1
    28   17   33 1
    29   17   34 1
    30   18   19 1
    31   18   35 1
    32   18   36 1
    33   19   20 1
    34   19   37 1
    35   19   48 1
    36   20   25 1
    37   20   21 1
    38   20   38 1
    39   21   22 1
    40   21   39 1
    41   21   40 1
    42   22   23 1
    43   22   41 1
    44   22   42 1
    45   23   24 1
    46   23   47 1
    47   24   25 1
    48   24   43 1
    49   24   44 1
    50   25   45 1
    51   25   46 1
@<TRIPOS>MOLECULE
ZINC14962724
   35    37     0     0     0
SMALL
USER_CHARGES
[(3Z)-2-oxo-3-[1-(1H-pyrrol-2-yl)ethylidene]indolin-5-yl]urea
@<TRIPOS>ATOM
      1 C1         -2.8483    0.4831    0.9153 C.3       1 <0>        -0.1282
      2 C2         -2.3064   -0.9019    0.6720 C.2       1 <0>         0.0899
      3 C3         -0.9459   -1.0961    0.5290 C.2       1 <0>        -0.1682
      4 C4          0.1288   -0.0925    0.6963 C.ar      1 <0>        -0.0845
      5 C5          0.1269    1.2594    1.0237 C.ar      1 <0>        -0.0928
      6 C6          1.3274    1.9469    1.1062 C.ar      1 <0>         0.1398
      7 C7          2.5253    1.2839    0.8621 C.ar      1 <0>        -0.0782
      8 C8          2.5315   -0.0566    0.5373 C.ar      1 <0>        -0.1177
      9 C9          1.3356   -0.7611    0.4501 C.ar      1 <0>         0.1340
     10 N1          1.0658   -2.0921    0.1473 N.am      1 <0>        -0.6551
     11 C10        -0.2539   -2.3431    0.1791 C.2       1 <0>         0.5551
     12 O1         -0.7837   -3.4173   -0.0441 O.2       1 <0>        -0.4932
     13 N2          1.3342    3.3094    1.4349 N.am      1 <0>        -0.6836
     14 C11         2.3284    3.8151    2.1915 C.2       1 <0>         0.7061
     15 O2          3.2622    3.1088    2.5195 O.2       1 <0>        -0.5759
     16 N3          2.2874    5.1037    2.5844 N.am      1 <0>        -0.8609
     17 C12        -3.1878   -1.9997    0.5904 C.2       1 <0>         0.0044
     18 C13        -4.1519   -2.2073   -0.3841 C.2       1 <0>        -0.1492
     19 C14        -4.7894   -3.4113   -0.0793 C.2       1 <0>        -0.2035
     20 C15        -4.2226   -3.9113    1.0470 C.2       1 <0>         0.0117
     21 N4         -3.2451   -3.0666    1.4613 N.pl3     1 <0>        -0.5257
     22 H1         -2.6820   -3.1915    2.2412 H         1 <0>         0.4140
     23 H2         -2.5999    1.1242    0.0695 H         1 <0>         0.0885
     24 H3         -3.9313    0.4347    1.0287 H         1 <0>         0.0811
     25 H4         -2.4058    0.8921    1.8236 H         1 <0>         0.0863
     26 H5         -0.8057    1.7718    1.2083 H         1 <0>         0.1351
     27 H6          3.4587    1.8233    0.9272 H         1 <0>         0.1496
     28 H7          3.4680   -0.5607    0.3499 H         1 <0>         0.1331
     29 H8          1.7437   -2.7539   -0.0609 H         1 <0>         0.4178
     30 H9          0.6235    3.8884    1.1179 H         1 <0>         0.4083
     31 H10         1.5425    5.6671    2.3227 H         1 <0>         0.3996
     32 H11         3.0029    5.4676    3.1289 H         1 <0>         0.4200
     33 H12        -4.3685   -1.5601   -1.2211 H         1 <0>         0.1385
     34 H13        -5.5924   -3.8648   -0.6413 H         1 <0>         0.1384
     35 H14        -4.5015   -4.8346    1.5330 H         1 <0>         0.1655
@<TRIPOS>BOND
     1    1    2 1
     2    1   23 1
     3    1   24 1
     4    1   25 1
     5    2    3 2
     6    2   17 1
     7    3   11 1
     8    3    4 1
     9    4    9 ar
    10    4    5 ar
    11    5    6 ar
    12    5   26 1
    13    6    7 ar
    14    6   13 1
    15    7    8 ar
    16    7   27 1
    17    8    9 ar
    18    8   28 1
    19    9   10 1
    20   10   11 am
    21   10   29 1
    22   11   12 2
    23   13   14 am
    24   13   30 1
    25   14   15 2
    26   14   16 am
    27   16   31 1
    28   16   32 1
    29   17   21 1
    30   17   18 2
    31   18   19 1
    32   18   33 1
    33   19   20 2
    34   19   34 1
    35   20   21 1
    36   20   35 1
    37   21   22 1
@<TRIPOS>MOLECULE
ZINC28129161
   72    79     0     0     0
SMALL
USER_CHARGES

@<TRIPOS>ATOM
      1 C1         -0.3287    0.5402   -0.9212 C.ar      1 <0>        -0.1015
      2 C2          0.7314    1.4282   -0.8804 C.ar      1 <0>        -0.1169
      3 C3          2.0146    0.9660   -0.6713 C.ar      1 <0>        -0.0749
      4 C4          2.2417   -0.3994   -0.5009 C.ar      1 <0>        -0.0486
      5 C5          1.1690   -1.2897   -0.5430 C.ar      1 <0>        -0.0915
      6 C6         -0.1096   -0.8154   -0.7529 C.ar      1 <0>        -0.1263
      7 C7          3.6170   -0.9022   -0.2765 C.ar      1 <0>         0.1612
      8 C8          3.8656   -1.8957    0.7645 C.ar      1 <0>         0.1447
      9 N1          5.0861   -2.3521    0.9743 N.ar      1 <0>        -0.4053
     10 C9          6.1016   -1.9017    0.2285 C.ar      1 <0>         0.0834
     11 C10         7.4071   -2.3713    0.4315 C.ar      1 <0>        -0.0723
     12 C11         8.4348   -1.8925   -0.3495 C.ar      1 <0>         0.0816
     13 C12         8.2007   -0.9303   -1.3592 C.ar      1 <0>         0.0794
     14 C13         6.9228   -0.4424   -1.5908 C.ar      1 <0>        -0.0208
     15 C14         5.8528   -0.9049   -0.8161 C.ar      1 <0>         0.0708
     16 N2          4.6091   -0.4536   -1.0222 N.ar      1 <0>        -0.4015
     17 N3          9.4040   -0.6700   -1.9399 N.2       1 <0>        -0.4996
     18 C15        10.3295   -1.3848   -1.3723 C.2       1 <0>         0.3115
     19 N4          9.7943   -2.1562   -0.3872 N.pl3     1 <0>        -0.6152
     20 H1         10.2757   -2.7758    0.1831 H         1 <0>         0.4324
     21 C16         2.7413   -2.3937    1.5904 C.ar      1 <0>         0.0007
     22 C17         1.8061   -1.5001    2.1121 C.ar      1 <0>        -0.0785
     23 C18         0.7607   -1.9702    2.8803 C.ar      1 <0>        -0.0958
     24 C19         0.6391   -3.3248    3.1333 C.ar      1 <0>        -0.1524
     25 C20         1.5637   -4.2161    2.6189 C.ar      1 <0>        -0.0917
     26 C21         2.6102   -3.7588    1.8446 C.ar      1 <0>        -0.0791
     27 C22        -0.5050   -3.8316    3.9730 C.3       1 <0>         0.0439
     28 N5         -1.6500   -4.1398    3.1058 N.4       1 <0>        -0.3853
     29 C23        -2.1345   -2.9037    2.4799 C.3       1 <0>        -0.0076
     30 C24        -3.2750   -3.2299    1.5134 C.3       1 <0>        -0.1650
     31 C25        -4.4178   -3.8942    2.2866 C.3       1 <0>         0.1609
     32 C26        -3.8835   -5.1418    2.9961 C.3       1 <0>        -0.1670
     33 C27        -2.7204   -4.7447    3.9077 C.3       1 <0>         0.0012
     34 N6         -5.4814   -4.2781    1.3552 N.am      1 <0>        -0.5372
     35 C28        -6.7971   -3.8220    1.3875 C.ar      1 <0>         0.0797
     36 C29        -7.4804   -2.9461    2.2173 C.ar      1 <0>        -0.1043
     37 C30        -8.8177   -2.6864    1.9906 C.ar      1 <0>        -0.1028
     38 C31        -9.4789   -3.2972    0.9388 C.ar      1 <0>        -0.0991
     39 C32        -8.8069   -4.1714    0.1073 C.ar      1 <0>        -0.1001
     40 C33        -7.4638   -4.4377    0.3264 C.ar      1 <0>         0.0915
     41 N7         -6.5326   -5.2489   -0.3177 N.am      1 <0>        -0.6395
     42 H2         -6.7042   -5.8035   -1.0948 H         1 <0>         0.4396
     43 C34        -5.3523   -5.1275    0.3185 C.2       1 <0>         0.6858
     44 O1         -4.3255   -5.7011    0.0062 O.2       1 <0>        -0.5577
     45 H3         -1.3318    0.9072   -1.0807 H         1 <0>         0.1264
     46 H4          0.5543    2.4853   -1.0128 H         1 <0>         0.1312
     47 H5          2.8414    1.6601   -0.6400 H         1 <0>         0.1307
     48 H6          1.3388   -2.3482   -0.4121 H         1 <0>         0.1209
     49 H7         -0.9412   -1.5037   -0.7854 H         1 <0>         0.1224
     50 H8          7.6058   -3.1058    1.1980 H         1 <0>         0.1452
     51 H9          6.7546    0.2922   -2.3644 H         1 <0>         0.1545
     52 H10        11.3746   -1.3690   -1.6441 H         1 <0>         0.2289
     53 H11         1.9003   -0.4423    1.9155 H         1 <0>         0.1390
     54 H12         0.0362   -1.2791    3.2851 H         1 <0>         0.1364
     55 H13         1.4639   -5.2725    2.8205 H         1 <0>         0.1364
     56 H14         3.3289   -4.4560    1.4399 H         1 <0>         0.1396
     57 H15        -0.1963   -4.7336    4.5014 H         1 <0>         0.1396
     58 H16        -0.7918   -3.0675    4.6955 H         1 <0>         0.1381
     59 H17        -2.4959   -2.2237    3.2514 H         1 <0>         0.1329
     60 H18        -1.3192   -2.4304    1.9326 H         1 <0>         0.1401
     61 H19        -3.6345   -2.3106    1.0510 H         1 <0>         0.1174
     62 H20        -2.9146   -3.9097    0.7412 H         1 <0>         0.1072
     63 H21        -4.8126   -3.1961    3.0248 H         1 <0>         0.1149
     64 H22        -4.6779   -5.5891    3.5935 H         1 <0>         0.1178
     65 H23        -3.5357   -5.8612    2.2547 H         1 <0>         0.1075
     66 H24        -2.3377   -5.6306    4.4145 H         1 <0>         0.1383
     67 H25        -3.0693   -4.0255    4.6487 H         1 <0>         0.1334
     68 H26        -6.9680   -2.4682    3.0392 H         1 <0>         0.1289
     69 H27        -9.3501   -2.0042    2.6368 H         1 <0>         0.1385
     70 H28       -10.5249   -3.0895    0.7680 H         1 <0>         0.1398
     71 H29        -9.3262   -4.6466   -0.7118 H         1 <0>         0.1365
     72 H30        -1.3620   -4.7875    2.3878 H         1 <0>         0.4262
@<TRIPOS>BOND
     1    1    6 ar
     2    1    2 ar
     3    1   45 1
     4    2    3 ar
     5    2   46 1
     6    3    4 ar
     7    3   47 1
     8    4    5 ar
     9    4    7 1
    10    5    6 ar
    11    5   48 1
    12    6   49 1
    13    7   16 ar
    14    7    8 ar
    15    8    9 ar
    16    8   21 1
    17    9   10 ar
    18   10   15 ar
    19   10   11 ar
    20   11   12 ar
    21   11   50 1
    22   12   19 1
    23   12   13 ar
    24   13   14 ar
    25   13   17 1
    26   14   15 ar
    27   14   51 1
    28   15   16 ar
    29   17   18 2
    30   18   19 1
    31   18   52 1
    32   19   20 1
    33   21   26 ar
    34   21   22 ar
    35   22   23 ar
    36   22   53 1
    37   23   24 ar
    38   23   54 1
    39   24   25 ar
    40   24   27 1
    41   25   26 ar
    42   25   55 1
    43   26   56 1
    44   27   28 1
    45   27   57 1
    46   27   58 1
    47   28   33 1
    48   28   29 1
    49   28   72 1
    50   29   30 1
    51   29   59 1
    52   29   60 1
    53   30   31 1
    54   30   61 1
    55   30   62 1
    56   31   32 1
    57   31   34 1
    58   31   63 1
    59   32   33 1
    60   32   64 1
    61   32   65 1
    62   33   66 1
    63   33   67 1
    64   34   43 am
    65   34   35 1
    66   35   40 ar
    67   35   36 ar
    68   36   37 ar
    69   36   68 1
    70   37   38 ar
    71   37   69 1
    72   38   39 ar
    73   38   70 1
    74   39   40 ar
    75   39   71 1
    76   40   41 1
    77   41   42 1
    78   41   43 am
    79   43   44 2
@<TRIPOS>MOLECULE
ZINC29050945
   32    34     0     0     0
SMALL
USER_CHARGES
1-(7H-pyrrolo[2,3-d]pyrimidin-4-yl)piperidin-4-amine
@<TRIPOS>ATOM
      1 C1          0.5588   -4.0324   -3.7148 C.2       1 <0>        -0.1853
      2 C2          0.8585   -5.1267   -4.4335 C.2       1 <0>         0.0611
      3 N1          0.3496   -6.2408   -3.8177 N.pl3     1 <0>        -0.5813
      4 H1          0.4988   -7.2339   -4.2666 H         1 <0>         0.4579
      5 C3         -0.3010   -5.8848   -2.6685 C.ar      1 <0>         0.3416
      6 C4         -0.2001   -4.4860   -2.5509 C.ar      1 <0>        -0.2194
      7 C5         -0.7916   -3.8593   -1.4437 C.ar      1 <0>         0.3977
      8 N2         -1.4186   -4.6182   -0.5495 N.ar      1 <0>        -0.5759
      9 C6         -1.4945   -5.9280   -0.7017 C.ar      1 <0>         0.3424
     10 N3         -0.9549   -6.5576   -1.7230 N.ar      1 <0>        -0.5388
     11 N4         -0.7194   -2.4873   -1.2832 N.pl3     1 <0>        -0.4702
     12 C7         -1.4077   -2.0639   -0.0571 C.3       1 <0>         0.0625
     13 C8         -1.4339   -0.5354    0.0129 C.3       1 <0>        -0.1421
     14 C9          0.0021   -0.0041    0.0020 C.3       1 <0>         0.0339
     15 C10         0.7116   -0.4992   -1.2613 C.3       1 <0>        -0.1386
     16 C11         0.6756   -2.0288   -1.2943 C.3       1 <0>         0.0529
     17 N5         -0.0178    1.4648    0.0101 N.4       1 <0>        -0.6865
     18 H2          0.8267   -3.0133   -3.9516 H         1 <0>         0.1518
     19 H3          1.4166   -5.1286   -5.3582 H         1 <0>         0.1854
     20 H4         -2.0168   -6.5066    0.0459 H         1 <0>         0.2039
     21 H5         -2.4385   -2.4479   -0.0640 H         1 <0>         0.1106
     22 H6         -0.8742   -2.4615    0.8189 H         1 <0>         0.0649
     23 H7         -1.9804   -0.1379   -0.8551 H         1 <0>         0.0973
     24 H8         -1.9366   -0.2193    0.9388 H         1 <0>         0.0988
     25 H9          0.5433   -0.3250    0.9043 H         1 <0>         0.1340
     26 H10         0.2004   -0.0994   -2.1495 H         1 <0>         0.1003
     27 H11         1.7564   -0.1553   -1.2537 H         1 <0>         0.0997
     28 H12         1.1993   -2.4265   -0.4125 H         1 <0>         0.0592
     29 H13         1.1721   -2.3871   -2.2081 H         1 <0>         0.1136
     30 H14         1.0142    1.8455    0.0023 H         1 <0>         0.4572
     31 H15        -0.5326    1.8195    0.9152 H         1 <0>         0.4582
     32 H16        -0.5498    1.8292   -0.8810 H         1 <0>         0.4536
@<TRIPOS>BOND
     1    1    6 1
     2    1    2 2
     3    1   18 1
     4    2    3 1
     5    2   19 1
     6    3    4 1
     7    3    5 1
     8    5   10 ar
     9    5    6 ar
    10    6    7 ar
    11    7    8 ar
    12    7   11 1
    13    8    9 ar
    14    9   10 ar
    15    9   20 1
    16   11   16 1
    17   11   12 1
    18   12   13 1
    19   12   21 1
    20   12   22 1
    21   13   14 1
    22   13   23 1
    23   13   24 1
    24   14   15 1
    25   14   17 1
    26   14   25 1
    27   15   16 1
    28   15   26 1
    29   15   27 1
    30   16   28 1
    31   16   29 1
    32   17   30 1
    33   17   31 1
    34   17   32 1
@<TRIPOS>MOLECULE
ZINC16052625
   34    36     0     0     0
SMALL
USER_CHARGES

@<TRIPOS>ATOM
      1 C1         -0.0708    1.2667   -0.6088 C.2       1 <0>         0.2661
      2 N1         -0.0407   -0.0277   -0.4775 N.2       1 <0>        -0.4733
      3 H1         -1.6333    2.6475   -0.4826 H         1 <0>         0.4359
      4 C2         -1.2897   -0.4837   -0.2177 C.ar      1 <0>        -0.1056
      5 C3         -2.1412    0.6338   -0.1911 C.ar      1 <0>         0.3036
      6 N2         -1.3436    1.7230   -0.4355 N.pl3     1 <0>        -0.5765
      7 N3         -3.4361    0.4536    0.0478 N.ar      1 <0>        -0.5536
      8 C4         -3.9181   -0.7534    0.2570 C.ar      1 <0>         0.3670
      9 N4         -3.1576   -1.8327    0.2418 N.ar      1 <0>        -0.5905
     10 C5         -1.8512   -1.7512    0.0115 C.ar      1 <0>         0.5030
     11 N5         -1.0624   -2.8882   -0.0029 N.pl3     1 <0>        -0.5861
     12 C6          0.3984   -2.7844   -0.1219 C.3       1 <0>         0.0995
     13 C7          1.0433   -3.5586    1.0320 C.3       1 <0>        -0.1262
     14 C8          0.5135   -4.9944    1.0367 C.3       1 <0>        -0.1187
     15 C9         -1.0017   -4.9801    1.2518 C.3       1 <0>        -0.1457
     16 C10        -1.6693   -4.2217    0.1066 C.3       1 <0>         0.1176
     17 C11         1.1814   -5.7805    2.1667 C.3       1 <0>        -0.0051
     18 N6          0.7642   -7.1873    2.0976 N.4       1 <0>        -0.6388
     19 H2          0.7870    1.8882   -0.8193 H         1 <0>         0.2298
     20 H3         -4.9751   -0.8649    0.4486 H         1 <0>         0.2079
     21 H4          0.7188   -3.2110   -1.0723 H         1 <0>         0.0708
     22 H5          0.6957   -1.7370   -0.0704 H         1 <0>         0.1376
     23 H6          2.1254   -3.5706    0.9022 H         1 <0>         0.0900
     24 H7          0.7951   -3.0762    1.9774 H         1 <0>         0.0778
     25 H8          0.7402   -5.4682    0.0817 H         1 <0>         0.0985
     26 H9         -1.3750   -6.0038    1.2784 H         1 <0>         0.0715
     27 H10        -1.2305   -4.4843    2.1952 H         1 <0>         0.0844
     28 H11        -2.7357   -4.1224    0.3088 H         1 <0>         0.1101
     29 H12        -1.5212   -4.7682   -0.8249 H         1 <0>         0.0699
     30 H13         2.2645   -5.7171    2.0625 H         1 <0>         0.1371
     31 H14         0.8835   -5.3599    3.1272 H         1 <0>         0.1344
     32 H15        -0.2384   -7.2459    2.1941 H         1 <0>         0.4331
     33 H16         1.0399   -7.5766    1.2085 H         1 <0>         0.4355
     34 H17         1.2047   -7.7057    2.8428 H         1 <0>         0.4389
@<TRIPOS>BOND
     1    1    2 2
     2    1   19 1
     3    1    6 1
     4    2    4 1
     5    3    6 1
     6    4   10 ar
     7    4    5 ar
     8    5    6 1
     9    5    7 ar
    10    7    8 ar
    11    8   20 1
    12    8    9 ar
    13    9   10 ar
    14   10   11 1
    15   11   16 1
    16   11   12 1
    17   12   13 1
    18   12   21 1
    19   12   22 1
    20   13   14 1
    21   13   23 1
    22   13   24 1
    23   14   15 1
    24   14   17 1
    25   14   25 1
    26   15   16 1
    27   15   26 1
    28   15   27 1
    29   16   28 1
    30   16   29 1
    31   17   18 1
    32   17   30 1
    33   17   31 1
    34   18   32 1
    35   18   33 1
    36   18   34 1
@<TRIPOS>MOLECULE
ZINC29052141
   42    45     0     0     0
SMALL
USER_CHARGES
4-(4-chlorophenyl)-1-(7H-pyrrolo[2,3-d]pyrimidin-4-yl)piperidin-4-amine
@<TRIPOS>ATOM
      1 C1          1.3999    0.9644    2.4261 C.ar      1 <0>        -0.0764
      2 C2          2.0985    0.5603    3.5482 C.ar      1 <0>        -0.0955
      3 C3          1.4244    0.3145    4.7311 C.ar      1 <0>        -0.0162
      4 C4          0.0520    0.4788    4.7916 C.ar      1 <0>        -0.0956
      5 C5         -0.6448    0.8884    3.6704 C.ar      1 <0>        -0.1124
      6 C6          0.0293    1.1339    2.4887 C.ar      1 <0>        -0.1265
      7 C7         -0.7310    1.5804    1.2666 C.3       1 <0>         0.1238
      8 C8         -0.0127    1.0858    0.0080 C.3       1 <0>        -0.1386
      9 C9         -0.7544    1.5936   -1.2306 C.3       1 <0>         0.0508
     10 N1         -0.7929    3.0614   -1.2121 N.pl3     1 <0>        -0.4640
     11 C10        -1.5200    3.5588   -0.0372 C.3       1 <0>         0.0398
     12 C11        -0.8011    3.1098    1.2370 C.3       1 <0>        -0.1291
     13 C12        -1.3412    3.5576   -2.3811 C.ar      1 <0>         0.3927
     14 C13        -1.4823    4.9397   -2.5795 C.ar      1 <0>        -0.2178
     15 C14        -1.1605    6.1356   -1.8031 C.2       1 <0>        -0.1860
     16 C15        -1.5323    7.1918   -2.5446 C.2       1 <0>         0.0637
     17 N2         -2.0609    6.7611   -3.7341 N.pl3     1 <0>        -0.5807
     18 H1         -2.4210    7.4923   -4.4728 H         1 <0>         0.4589
     19 C16        -2.0417    5.3946   -3.7876 C.ar      1 <0>         0.3418
     20 N3         -2.4244    4.4933   -4.6911 N.ar      1 <0>        -0.5360
     21 C17        -2.2778    3.2067   -4.4605 C.ar      1 <0>         0.3414
     22 N4         -1.7531    2.7369   -3.3428 N.ar      1 <0>        -0.5769
     23 N5         -2.0917    1.0280    1.3043 N.4       1 <0>        -0.6855
     24 Cl1         2.3003   -0.1993    6.1391 Cl        1 <0>        -0.0385
     25 H2          1.9254    1.1521    1.5014 H         1 <0>         0.1459
     26 H3          3.1698    0.4322    3.5004 H         1 <0>         0.1480
     27 H4         -0.4748    0.2874    5.7148 H         1 <0>         0.1460
     28 H5         -1.7161    1.0170    3.7176 H         1 <0>         0.1271
     29 H6          1.0192    1.4668    0.0011 H         1 <0>         0.1231
     30 H7          0.0025   -0.0141    0.0028 H         1 <0>         0.1052
     31 H8         -0.2319    1.2524   -2.1364 H         1 <0>         0.1195
     32 H9         -1.7817    1.2003   -1.2298 H         1 <0>         0.0494
     33 H10        -1.5586    4.6577   -0.0680 H         1 <0>         0.1220
     34 H11        -2.5435    3.1557   -0.0416 H         1 <0>         0.0431
     35 H12        -1.3541    3.4686    2.1176 H         1 <0>         0.1036
     36 H13         0.2179    3.5239    1.2502 H         1 <0>         0.1246
     37 H14        -0.7138    6.1642   -0.8202 H         1 <0>         0.1534
     38 H15        -1.4297    8.2253   -2.2487 H         1 <0>         0.1863
     39 H16        -2.5999    2.5054   -5.2159 H         1 <0>         0.2040
     40 H17        -2.6450    1.3550    0.4116 H         1 <0>         0.4504
     41 H18        -2.6079    1.3861    2.2072 H         1 <0>         0.4521
     42 H19        -2.0410   -0.0707    1.3223 H         1 <0>         0.4592
@<TRIPOS>BOND
     1    1    6 ar
     2    1    2 ar
     3    1   25 1
     4    2    3 ar
     5    2   26 1
     6    3    4 ar
     7    3   24 1
     8    4    5 ar
     9    4   27 1
    10    5    6 ar
    11    5   28 1
    12    6    7 1
    13    7   12 1
    14    7    8 1
    15    7   23 1
    16    8    9 1
    17    8   29 1
    18    8   30 1
    19    9   10 1
    20    9   31 1
    21    9   32 1
    22   10   11 1
    23   10   13 1
    24   11   12 1
    25   11   33 1
    26   11   34 1
    27   12   35 1
    28   12   36 1
    29   13   22 ar
    30   13   14 ar
    31   14   19 ar
    32   14   15 1
    33   15   16 2
    34   15   37 1
    35   16   17 1
    36   16   38 1
    37   17   18 1
    38   17   19 1
    39   19   20 ar
    40   20   21 ar
    41   21   22 ar
    42   21   39 1
    43   23   40 1
    44   23   41 1
    45   23   42 1
@<TRIPOS>MOLECULE
ZINC16052628
   48    51     0     0     0
SMALL
USER_CHARGES
[4-[(4-chlorophenyl)methyl]-1-(7H-pyrrolo[3,2-e]pyrimidin-4-yl)-4-piperidyl]methanamine
@<TRIPOS>ATOM
      1 C1          1.1804   -2.6945   -3.8338 C.ar      1 <0>        -0.1265
      2 C2          1.9750   -2.9763   -4.9290 C.ar      1 <0>        -0.1008
      3 C3          3.3528   -2.9658   -4.8047 C.ar      1 <0>        -0.0299
      4 C4          3.9346   -2.6677   -3.5853 C.ar      1 <0>        -0.0960
      5 C5          3.1390   -2.3805   -2.4922 C.ar      1 <0>        -0.0917
      6 C6          1.7623   -2.3911   -2.6170 C.ar      1 <0>        -0.0979
      7 C7          0.8955   -2.0780   -1.4248 C.3       1 <0>        -0.0829
      8 C8          0.5967   -0.5778   -1.3914 C.3       1 <0>        -0.0778
      9 C9         -0.2134   -0.2452   -0.1354 C.3       1 <0>        -0.1256
     10 C10        -0.4582    1.2644   -0.0770 C.3       1 <0>         0.0576
     11 N1          0.8296    1.9697   -0.0517 N.pl3     1 <0>        -0.4626
     12 C11         1.6051    1.7031   -1.2699 C.3       1 <0>         0.0480
     13 C12         1.9114    0.2066   -1.3638 C.3       1 <0>        -0.1067
     14 C13         0.6470    3.3284    0.1322 C.ar      1 <0>         0.3991
     15 C14         1.7452    4.1999    0.1945 C.ar      1 <0>        -0.2177
     16 C15         3.1955    4.0470    0.0955 C.2       1 <0>        -0.1761
     17 C16         3.7252    5.2742    0.2266 C.2       1 <0>         0.0640
     18 N2          2.7248    6.1962    0.3964 N.pl3     1 <0>        -0.5677
     19 H1          2.8608    7.1496    0.5121 H         1 <0>         0.4279
     20 C17         1.5068    5.5742    0.3783 C.ar      1 <0>         0.3309
     21 N3          0.2470    5.9917    0.4958 N.ar      1 <0>        -0.5395
     22 C18        -0.7519    5.1381    0.4363 C.ar      1 <0>         0.3415
     23 N4         -0.5732    3.8410    0.2601 N.ar      1 <0>        -0.5794
     24 C19        -0.2050   -0.1883   -2.6350 C.3       1 <0>        -0.0116
     25 Cl1         4.3514   -3.3260   -6.1783 Cl        1 <0>        -0.0489
     26 H2          0.1047   -2.7069   -3.9296 H         1 <0>         0.1119
     27 H3          1.5203   -3.2089   -5.8806 H         1 <0>         0.1390
     28 H4          5.0101   -2.6590   -3.4878 H         1 <0>         0.1421
     29 H5          3.5931   -2.1474   -1.5404 H         1 <0>         0.1395
     30 H6          1.4164   -2.3651   -0.5114 H         1 <0>         0.1091
     31 H7         -0.0396   -2.6331   -1.4995 H         1 <0>         0.0708
     32 H8          0.3414   -0.5583    0.7490 H         1 <0>         0.1041
     33 H9         -1.1693   -0.7678   -0.1699 H         1 <0>         0.0721
     34 H10        -1.0250    1.5746   -0.9549 H         1 <0>         0.0483
     35 H11        -1.0225    1.5062    0.8236 H         1 <0>         0.1042
     36 H12         2.5393    2.2636   -1.2356 H         1 <0>         0.1063
     37 H13         1.0286    2.0112   -2.1421 H         1 <0>         0.0467
     38 H14         2.4997   -0.0994   -0.4987 H         1 <0>         0.0999
     39 H15         2.4736    0.0068   -2.2760 H         1 <0>         0.0921
     40 H16         3.7372    3.1242   -0.0505 H         1 <0>         0.1562
     41 H17         4.7808    5.5009    0.2015 H         1 <0>         0.1870
     42 H18        -1.7598    5.5129    0.5360 H         1 <0>         0.2026
     43 H19        -0.4642    0.8691   -2.5837 H         1 <0>         0.1391
     44 H20         0.3947   -0.3726   -3.5263 H         1 <0>         0.1391
     45 H21        -2.0493   -0.7699   -1.9286 H         1 <0>         0.4370
     46 H22        -1.9017   -0.8684   -3.5821 H         1 <0>         0.4410
     47 N5         -1.4238   -1.0144   -2.6945 N.4       1 <0>        -0.6499
     48 H23        -1.1647   -2.0046   -2.6124 H         1 <0>         0.4323
@<TRIPOS>BOND
     1    1    6 ar
     2    1    2 ar
     3    1   26 1
     4    2    3 ar
     5    2   27 1
     6    3    4 ar
     7    3   25 1
     8    4    5 ar
     9    4   28 1
    10    5    6 ar
    11    5   29 1
    12    6    7 1
    13    7    8 1
    14    7   30 1
    15    7   31 1
    16    8   13 1
    17    8    9 1
    18    8   24 1
    19    9   10 1
    20    9   32 1
    21    9   33 1
    22   10   11 1
    23   10   34 1
    24   10   35 1
    25   11   12 1
    26   11   14 1
    27   12   13 1
    28   12   36 1
    29   12   37 1
    30   13   38 1
    31   13   39 1
    32   14   23 ar
    33   14   15 ar
    34   15   20 ar
    35   15   16 1
    36   16   17 2
    37   16   40 1
    38   17   18 1
    39   17   41 1
    40   18   19 1
    41   18   20 1
    42   20   21 ar
    43   21   22 ar
    44   22   23 ar
    45   22   42 1
    46   24   43 1
    47   24   44 1
    48   24   47 1
    49   45   47 1
    50   46   47 1
    51   47   48 1
@<TRIPOS>MOLECULE
ZINC29052255
   46    49     0     0     0
SMALL
USER_CHARGES
[4-(4-chlorophenyl)-1-(1H-pyrrolo[2,3-b]pyridin-4-yl)-4-piperidyl]methanamine
@<TRIPOS>ATOM
      1 C1         -7.4562    5.0618    1.1263 C.ar      1 <0>        -0.0923
      2 C2         -8.8342    4.9572    1.1498 C.ar      1 <0>        -0.0830
      3 C3         -9.5844    5.4695    0.1063 C.ar      1 <0>        -0.0310
      4 C4         -8.9550    6.0913   -0.9574 C.ar      1 <0>        -0.0872
      5 C5         -7.5773    6.2003   -0.9770 C.ar      1 <0>        -0.1590
      6 C6         -6.8282    5.6882    0.0659 C.ar      1 <0>        -0.0855
      7 C7         -5.3261    5.8075    0.0439 C.3       1 <0>        -0.0343
      8 C8         -4.7433    5.1649    1.3056 C.3       1 <0>        -0.1101
      9 C9         -3.2156    5.2362    1.2494 C.3       1 <0>         0.0525
     10 N1         -2.7351    4.5325    0.0534 N.pl3     1 <0>        -0.4908
     11 C10        -3.2438    5.1608   -1.1725 C.3       1 <0>         0.0532
     12 C11        -4.7723    5.0872   -1.1886 C.3       1 <0>        -0.1170
     13 C12        -1.3467    4.4648    0.0394 C.ar      1 <0>         0.1704
     14 C13        -0.5718    5.6204    0.0382 C.ar      1 <0>        -0.2394
     15 C14         0.8068    5.5109    0.0240 C.ar      1 <0>         0.1472
     16 N2          1.4072    4.3385    0.0120 N.ar      1 <0>        -0.4941
     17 C15         0.7225    3.2001    0.0124 C.ar      1 <0>         0.2872
     18 C16        -0.6823    3.2283    0.0259 C.ar      1 <0>        -0.1317
     19 C17        -1.1213    1.8323    0.0168 C.2       1 <0>        -0.1890
     20 C18        -0.0126    1.0758    0.0080 C.2       1 <0>         0.0789
     21 N3          1.0979    1.8786    0.0017 N.pl3     1 <0>        -0.5929
     22 H1          2.1645    1.6099   -0.0099 H         1 <0>         0.4540
     23 C19        -4.9312    7.2847   -0.0066 C.3       1 <0>         0.0006
     24 N4         -5.4909    7.9001   -1.2174 N.4       1 <0>        -0.7017
     25 Cl1       -11.3148    5.3326    0.1319 Cl        1 <0>        -0.0416
     26 H2         -6.8701    4.6581    1.9387 H         1 <0>         0.1476
     27 H3         -9.3249    4.4717    1.9804 H         1 <0>         0.1462
     28 H4         -9.5402    6.4917   -1.7721 H         1 <0>         0.1451
     29 H5         -7.0860    6.6860   -1.8071 H         1 <0>         0.1243
     30 H6         -5.1050    5.7053    2.1928 H         1 <0>         0.0893
     31 H7         -5.0612    4.1134    1.3619 H         1 <0>         0.1007
     32 H8         -2.8990    6.2888    1.2069 H         1 <0>         0.0422
     33 H9         -2.7931    4.7622    2.1476 H         1 <0>         0.0941
     34 H10        -2.9275    6.2139   -1.2032 H         1 <0>         0.0361
     35 H11        -2.8424    4.6318   -2.0494 H         1 <0>         0.0942
     36 H12        -5.0907    4.0344   -1.1719 H         1 <0>         0.1061
     37 H13        -5.1549    5.5715   -2.0991 H         1 <0>         0.0680
     38 H14        -1.0419    6.5927    0.0479 H         1 <0>         0.1262
     39 H15         1.4062    6.4093    0.0231 H         1 <0>         0.1608
     40 H16        -2.1417    1.4785    0.0192 H         1 <0>         0.1524
     41 H17         0.0021   -0.0041    0.0020 H         1 <0>         0.1803
     42 H18        -5.3246    7.8000    0.8820 H         1 <0>         0.1357
     43 H19        -3.8347    7.3707   -0.0249 H         1 <0>         0.1341
     44 H20        -5.2069    8.9622   -1.2537 H         1 <0>         0.4557
     45 H21        -6.5874    7.8141   -1.1991 H         1 <0>         0.4493
     46 H22        -5.0975    7.3848   -2.1060 H         1 <0>         0.4484
@<TRIPOS>BOND
     1    1    6 ar
     2    1    2 ar
     3    1   26 1
     4    2    3 ar
     5    2   27 1
     6    3    4 ar
     7    3   25 1
     8    4    5 ar
     9    4   28 1
    10    5    6 ar
    11    5   29 1
    12    6    7 1
    13    7   12 1
    14    7    8 1
    15    7   23 1
    16    8    9 1
    17    8   30 1
    18    8   31 1
    19    9   10 1
    20    9   32 1
    21    9   33 1
    22   10   11 1
    23   10   13 1
    24   11   12 1
    25   11   34 1
    26   11   35 1
    27   12   36 1
    28   12   37 1
    29   13   18 ar
    30   13   14 ar
    31   14   15 ar
    32   14   38 1
    33   15   16 ar
    34   15   39 1
    35   16   17 ar
    36   17   21 1
    37   17   18 ar
    38   18   19 1
    39   19   20 2
    40   19   40 1
    41   20   21 1
    42   20   41 1
    43   21   22 1
    44   23   24 1
    45   23   42 1
    46   23   43 1
    47   24   44 1
    48   24   45 1
    49   24   46 1
@<TRIPOS>MOLECULE
ZINC29052376
   46    49     0     0     0
SMALL
USER_CHARGES
(S)-(4-chlorophenyl)-[1-(1H-pyrrolo[2,3-b]pyridin-4-yl)-4-piperidyl]methanamine
@<TRIPOS>ATOM
      1 C1         -1.1541   -7.1246   -1.8675 C.ar      1 <0>        -0.1075
      2 C2         -2.3948   -7.7245   -1.7618 C.ar      1 <0>        -0.0982
      3 C3         -2.8854   -8.0841   -0.5192 C.ar      1 <0>        -0.0143
      4 C4         -2.1312   -7.8481    0.6164 C.ar      1 <0>        -0.0983
      5 C5         -0.8882   -7.2533    0.5089 C.ar      1 <0>        -0.0737
      6 C6         -0.3986   -6.8942   -0.7330 C.ar      1 <0>        -0.1386
      7 C7          0.9567   -6.2456   -0.8495 C.3       1 <0>         0.0976
      8 H1          1.5605   -6.4850    0.0382 H         1 <0>         0.1460
      9 C8          0.7867   -4.7330   -1.0044 C.3       1 <0>        -0.1059
     10 C9          2.1632   -4.0729   -1.1229 C.3       1 <0>        -0.1287
     11 C10         1.9893   -2.5554   -1.2178 C.3       1 <0>         0.0565
     12 N1          1.2929   -2.0654   -0.0214 N.pl3     1 <0>        -0.4806
     13 C11        -0.0499   -2.6496    0.0880 C.3       1 <0>         0.0418
     14 C12         0.0631   -4.1699    0.2220 C.3       1 <0>        -0.1128
     15 C13         1.2342   -0.6765   -0.0130 C.ar      1 <0>         0.1874
     16 C14         2.3948    0.0909   -0.0195 C.ar      1 <0>        -0.2240
     17 C15         2.2943    1.4702   -0.0112 C.ar      1 <0>         0.1608
     18 N2          1.1258    2.0783    0.0025 N.ar      1 <0>        -0.5116
     19 C16        -0.0170    1.4009    0.0097 C.ar      1 <0>         0.3004
     20 C17         0.0021   -0.0041    0.0020 C.ar      1 <0>        -0.1929
     21 C18        -1.3968   -0.4339    0.0131 C.2       1 <0>        -0.2223
     22 C19        -2.1460    0.6797    0.0262 C.2       1 <0>         0.0800
     23 N3         -1.3360    1.7849    0.0299 N.pl3     1 <0>        -0.5925
     24 H2         -1.5976    2.8532    0.0458 H         1 <0>         0.4529
     25 N4          1.6571   -6.7825   -2.0239 N.4       1 <0>        -0.6882
     26 Cl1        -4.4464   -8.8317   -0.3850 Cl        1 <0>        -0.0383
     27 H3         -0.7730   -6.8398   -2.8370 H         1 <0>         0.1286
     28 H4         -2.9831   -7.9084   -2.6486 H         1 <0>         0.1453
     29 H5         -2.5135   -8.1289    1.5867 H         1 <0>         0.1474
     30 H6         -0.2993   -7.0693    1.3953 H         1 <0>         0.1433
     31 H7          0.1969   -4.5256   -1.9095 H         1 <0>         0.0958
     32 H8          2.7658   -4.3200   -0.2365 H         1 <0>         0.0929
     33 H9          2.6707   -4.4428   -2.0260 H         1 <0>         0.0698
     34 H10         2.9772   -2.0768   -1.2882 H         1 <0>         0.0958
     35 H11         1.3981   -2.3093   -2.1122 H         1 <0>         0.0497
     36 H12        -0.5566   -2.2405    0.9745 H         1 <0>         0.1027
     37 H13        -0.6313   -2.4036   -0.8128 H         1 <0>         0.0602
     38 H14        -0.9430   -4.6098    0.2881 H         1 <0>         0.0850
     39 H15         0.6323   -4.4185    1.1298 H         1 <0>         0.0846
     40 H16         3.3639   -0.3855   -0.0306 H         1 <0>         0.1378
     41 H17         3.1965    2.0638   -0.0163 H         1 <0>         0.1643
     42 H18        -1.7572   -1.4520    0.0116 H         1 <0>         0.1567
     43 H19        -3.2257    0.7014    0.0366 H         1 <0>         0.1777
     44 H20         2.6464   -6.3091   -2.1090 H         1 <0>         0.4573
     45 H21         1.0700   -6.5704   -2.9296 H         1 <0>         0.4492
     46 H22         1.7794   -7.8700   -1.9124 H         1 <0>         0.4607
@<TRIPOS>BOND
     1    1    6 ar
     2    1    2 ar
     3    1   27 1
     4    2    3 ar
     5    2   28 1
     6    3    4 ar
     7    3   26 1
     8    4    5 ar
     9    4   29 1
    10    5    6 ar
    11    5   30 1
    12    6    7 1
    13    7    8 1
    14    7    9 1
    15    7   25 1
    16    9   14 1
    17    9   10 1
    18    9   31 1
    19   10   11 1
    20   10   32 1
    21   10   33 1
    22   11   12 1
    23   11   34 1
    24   11   35 1
    25   12   13 1
    26   12   15 1
    27   13   14 1
    28   13   36 1
    29   13   37 1
    30   14   38 1
    31   14   39 1
    32   15   20 ar
    33   15   16 ar
    34   16   17 ar
    35   16   40 1
    36   17   18 ar
    37   17   41 1
    38   18   19 ar
    39   19   23 1
    40   19   20 ar
    41   20   21 1
    42   21   22 2
    43   21   42 1
    44   22   23 1
    45   22   43 1
    46   23   24 1
    47   25   44 1
    48   25   45 1
    49   25   46 1
@<TRIPOS>MOLECULE
ZINC29052381
   46    49     0     0     0
SMALL
USER_CHARGES
(R)-(4-chlorophenyl)-[1-(1H-pyrrolo[2,3-b]pyridin-4-yl)-4-piperidyl]methanamine
@<TRIPOS>ATOM
      1 C1          4.4239   -6.9194    1.2876 C.ar      1 <0>        -0.1080
      2 C2          5.0059   -7.4380    2.4289 C.ar      1 <0>        -0.0980
      3 C3          4.2144   -7.8081    3.5017 C.ar      1 <0>        -0.0146
      4 C4          2.8413   -7.6536    3.4334 C.ar      1 <0>        -0.0983
      5 C5          2.2609   -7.1296    2.2937 C.ar      1 <0>        -0.0739
      6 C6          3.0522   -6.7599    1.2221 C.ar      1 <0>        -0.1382
      7 C7          2.4188   -6.1887   -0.0202 C.3       1 <0>         0.0976
      8 H1          1.3626   -6.4919   -0.0714 H         1 <0>         0.1460
      9 C8          2.5512   -4.6645   -0.0055 C.3       1 <0>        -0.1048
     10 C9          1.9079   -4.0828   -1.2674 C.3       1 <0>        -0.1261
     11 C10         1.9893   -2.5554   -1.2178 C.3       1 <0>         0.0584
     12 N1          1.2929   -2.0654   -0.0214 N.pl3     1 <0>        -0.4942
     13 C11         1.9222   -2.5730    1.2044 C.3       1 <0>         0.0578
     14 C12         1.8389   -4.1009    1.2272 C.3       1 <0>        -0.1069
     15 C13         1.2342   -0.6765   -0.0130 C.ar      1 <0>         0.1710
     16 C14         2.3948    0.0909   -0.0195 C.ar      1 <0>        -0.2364
     17 C15         2.2943    1.4702   -0.0112 C.ar      1 <0>         0.1479
     18 N2          1.1258    2.0783    0.0025 N.ar      1 <0>        -0.4956
     19 C16        -0.0170    1.4009    0.0097 C.ar      1 <0>         0.2856
     20 C17         0.0021   -0.0041    0.0020 C.ar      1 <0>        -0.1329
     21 C18        -1.3968   -0.4339    0.0131 C.2       1 <0>        -0.1896
     22 C19        -2.1460    0.6797    0.0262 C.2       1 <0>         0.0770
     23 N3         -1.3360    1.7849    0.0299 N.pl3     1 <0>        -0.5936
     24 H2         -1.5976    2.8532    0.0458 H         1 <0>         0.4531
     25 N4          3.0960   -6.7275   -1.2072 N.4       1 <0>        -0.6882
     26 Cl1         4.9442   -8.4657    4.9331 Cl        1 <0>        -0.0386
     27 H3          5.0412   -6.6346    0.4484 H         1 <0>         0.1285
     28 H4          6.0778   -7.5585    2.4817 H         1 <0>         0.1453
     29 H5          2.2230   -7.9420    4.2707 H         1 <0>         0.1474
     30 H6          1.1890   -7.0085    2.2404 H         1 <0>         0.1434
     31 H7          3.6167   -4.3932    0.0259 H         1 <0>         0.0950
     32 H8          2.4428   -4.4517   -2.1550 H         1 <0>         0.0673
     33 H9          0.8541   -4.3941   -1.3187 H         1 <0>         0.0921
     34 H10         3.0441   -2.2455   -1.1803 H         1 <0>         0.0457
     35 H11         1.5150   -2.1335   -2.1162 H         1 <0>         0.0887
     36 H12         2.9774   -2.2634    1.2301 H         1 <0>         0.0448
     37 H13         1.3988   -2.1646    2.0815 H         1 <0>         0.0887
     38 H14         0.7840   -4.4126    1.2156 H         1 <0>         0.0855
     39 H15         2.3240   -4.4828    2.1376 H         1 <0>         0.0831
     40 H16         3.3639   -0.3855   -0.0306 H         1 <0>         0.1298
     41 H17         3.1965    2.0638   -0.0163 H         1 <0>         0.1615
     42 H18        -1.7572   -1.4520    0.0116 H         1 <0>         0.1508
     43 H19        -3.2257    0.7014    0.0366 H         1 <0>         0.1791
     44 H20         2.6336   -6.3105   -2.1140 H         1 <0>         0.4574
     45 H21         3.0009   -7.8233   -1.2178 H         1 <0>         0.4604
     46 H22         4.1606   -6.4521   -1.1786 H         1 <0>         0.4491
@<TRIPOS>BOND
     1    1    6 ar
     2    1    2 ar
     3    1   27 1
     4    2    3 ar
     5    2   28 1
     6    3    4 ar
     7    3   26 1
     8    4    5 ar
     9    4   29 1
    10    5    6 ar
    11    5   30 1
    12    6    7 1
    13    7    8 1
    14    7    9 1
    15    7   25 1
    16    9   14 1
    17    9   10 1
    18    9   31 1
    19   10   11 1
    20   10   32 1
    21   10   33 1
    22   11   12 1
    23   11   34 1
    24   11   35 1
    25   12   13 1
    26   12   15 1
    27   13   14 1
    28   13   36 1
    29   13   37 1
    30   14   38 1
    31   14   39 1
    32   15   20 ar
    33   15   16 ar
    34   16   17 ar
    35   16   40 1
    36   17   18 ar
    37   17   41 1
    38   18   19 ar
    39   19   23 1
    40   19   20 ar
    41   20   21 1
    42   21   22 2
    43   21   42 1
    44   22   23 1
    45   22   43 1
    46   23   24 1
    47   25   44 1
    48   25   45 1
    49   25   46 1
@<TRIPOS>MOLECULE
ZINC29050679
   45    48     0     0     0
SMALL
USER_CHARGES
(S)-phenyl-[1-(7H-pyrrolo[2,3-d]pyrimidin-4-yl)-4-piperidyl]methanamine
@<TRIPOS>ATOM
      1 C1          3.9948    2.5645   -0.0227 C.ar      1 <0>        -0.0920
      2 C2          3.7317    1.2721   -0.4366 C.ar      1 <0>        -0.1055
      3 C3          2.4349    0.7935   -0.4264 C.ar      1 <0>        -0.0887
      4 C4          1.4011    1.6074   -0.0027 C.ar      1 <0>        -0.1417
      5 C5          1.6634    2.9017    0.4059 C.ar      1 <0>        -0.1228
      6 C6          2.9609    3.3786    0.4006 C.ar      1 <0>        -0.1059
      7 C7         -0.0127    1.0858    0.0080 C.3       1 <0>         0.1010
      8 H1         -0.0026   -0.0137    0.0384 H         1 <0>         0.1442
      9 C8         -0.7527    1.5927   -1.2315 C.3       1 <0>        -0.1096
     10 C9         -0.7769    3.1236   -1.2227 C.3       1 <0>        -0.1268
     11 C10        -1.5718    3.6233   -2.4313 C.3       1 <0>         0.0521
     12 N1         -2.9398    3.0927   -2.3739 N.pl3     1 <0>        -0.4692
     13 C11        -2.9430    1.6253   -2.4297 C.3       1 <0>         0.0601
     14 C12        -2.1904    1.0659   -1.2202 C.3       1 <0>        -0.1266
     15 C13        -3.7221    3.6287   -3.3810 C.ar      1 <0>         0.4000
     16 C14        -3.8646    5.0180   -3.5190 C.ar      1 <0>        -0.2204
     17 C15        -3.3530    6.1874   -2.8069 C.2       1 <0>        -0.1834
     18 C16        -3.8536    7.2689   -3.4262 C.2       1 <0>         0.0577
     19 N2         -4.6435    6.8786   -4.4765 N.pl3     1 <0>        -0.5818
     20 H2         -5.1401    7.6350   -5.1020 H         1 <0>         0.4567
     21 C17        -4.6709    5.5136   -4.5599 C.ar      1 <0>         0.3405
     22 N3         -5.2674    4.6430   -5.3730 N.ar      1 <0>        -0.5414
     23 C18        -5.1058    3.3484   -5.2060 C.ar      1 <0>         0.3422
     24 N4         -4.3535    2.8407   -4.2461 N.ar      1 <0>        -0.5759
     25 N5         -0.7003    1.5596    1.2166 N.4       1 <0>        -0.6889
     26 H3          5.0080    2.9383   -0.0303 H         1 <0>         0.1350
     27 H4          4.5395    0.6361   -0.7676 H         1 <0>         0.1360
     28 H5          2.2294   -0.2163   -0.7498 H         1 <0>         0.1328
     29 H6          0.8551    3.5391    0.7327 H         1 <0>         0.1209
     30 H7          3.1663    4.3885    0.7237 H         1 <0>         0.1347
     31 H8         -0.2352    1.2363   -2.1344 H         1 <0>         0.1178
     32 H9         -1.2533    3.4774   -0.2965 H         1 <0>         0.0680
     33 H10         0.2528    3.5069   -1.2749 H         1 <0>         0.0978
     34 H11        -1.6051    4.7227   -2.4191 H         1 <0>         0.1039
     35 H12        -1.0855    3.2815   -3.3568 H         1 <0>         0.0558
     36 H13        -3.9805    1.2601   -2.4164 H         1 <0>         0.1017
     37 H14        -2.4490    1.2924   -3.3544 H         1 <0>         0.0624
     38 H15        -2.1786   -0.0329   -1.2695 H         1 <0>         0.0928
     39 H16        -2.6910    1.3860   -0.2945 H         1 <0>         0.0679
     40 H17        -2.6983    6.1827   -1.9479 H         1 <0>         0.1504
     41 H18        -3.6622    8.2926   -3.1400 H         1 <0>         0.1840
     42 H19        -5.6047    2.6726   -5.8849 H         1 <0>         0.2027
     43 H20        -1.7323    1.1789    1.2244 H         1 <0>         0.4561
     44 H21        -0.7152    2.6595    1.2226 H         1 <0>         0.4466
     45 H22        -0.1683    1.1952    2.1078 H         1 <0>         0.4589
@<TRIPOS>BOND
     1    1    6 ar
     2    1    2 ar
     3    1   26 1
     4    2    3 ar
     5    2   27 1
     6    3    4 ar
     7    3   28 1
     8    4    5 ar
     9    4    7 1
    10    5    6 ar
    11    5   29 1
    12    6   30 1
    13    7    8 1
    14    7    9 1
    15    7   25 1
    16    9   14 1
    17    9   10 1
    18    9   31 1
    19   10   11 1
    20   10   32 1
    21   10   33 1
    22   11   12 1
    23   11   34 1
    24   11   35 1
    25   12   13 1
    26   12   15 1
    27   13   14 1
    28   13   36 1
    29   13   37 1
    30   14   38 1
    31   14   39 1
    32   15   24 ar
    33   15   16 ar
    34   16   21 ar
    35   16   17 1
    36   17   18 2
    37   17   40 1
    38   18   19 1
    39   18   41 1
    40   19   20 1
    41   19   21 1
    42   21   22 ar
    43   22   23 ar
    44   23   24 ar
    45   23   42 1
    46   25   43 1
    47   25   44 1
    48   25   45 1
@<TRIPOS>MOLECULE
ZINC29050684
   45    48     0     0     0
SMALL
USER_CHARGES
(R)-phenyl-[1-(7H-pyrrolo[2,3-d]pyrimidin-4-yl)-4-piperidyl]methanamine
@<TRIPOS>ATOM
      1 C1         -1.2190    1.7506    0.0173 C.ar      1 <0>        -0.0924
      2 C2         -0.0126    1.0758    0.0080 C.ar      1 <0>        -0.1054
      3 C3          1.1750    1.7832    0.0004 C.ar      1 <0>        -0.0887
      4 C4          1.1563    3.1654    0.0076 C.ar      1 <0>        -0.1406
      5 C5         -0.0501    3.8402    0.0228 C.ar      1 <0>        -0.1216
      6 C6         -1.2377    3.1328    0.0299 C.ar      1 <0>        -0.1051
      7 C7          2.4510    3.9366   -0.0006 C.3       1 <0>         0.0977
      8 H1          3.2648    3.3000    0.3768 H         1 <0>         0.1434
      9 C8          2.7477    4.4200   -1.4216 C.3       1 <0>        -0.1065
     10 C9          2.8744    3.2139   -2.3564 C.3       1 <0>        -0.1076
     11 C10         3.2311    3.7001   -3.7629 C.3       1 <0>         0.0527
     12 N1          4.4970    4.4431   -3.7190 N.pl3     1 <0>        -0.4666
     13 C11         4.3853    5.6323   -2.8647 C.3       1 <0>         0.0633
     14 C12         4.0630    5.2038   -1.4313 C.3       1 <0>        -0.1312
     15 C13         4.9155    4.7851   -4.9923 C.ar      1 <0>         0.4015
     16 C14         5.0914    3.8034   -5.9797 C.ar      1 <0>        -0.2205
     17 C15         4.9348    2.3512   -6.0358 C.2       1 <0>        -0.1811
     18 C16         5.2594    1.9736   -7.2832 C.2       1 <0>         0.0562
     19 N2          5.6100    3.0722   -8.0246 N.pl3     1 <0>        -0.5818
     20 H2          5.9076    2.9534   -9.0769 H         1 <0>         0.4562
     21 C17         5.5181    4.2023   -7.2596 C.ar      1 <0>         0.3402
     22 N3          5.7386    5.4972   -7.4824 N.ar      1 <0>        -0.5424
     23 C18         5.5610    6.3830   -6.5266 C.ar      1 <0>         0.3411
     24 N4          5.1560    6.0528   -5.3133 N.ar      1 <0>        -0.5790
     25 N5          2.3371    5.0942    0.8966 N.4       1 <0>        -0.6876
     26 H3         -2.1469    1.1980    0.0188 H         1 <0>         0.1349
     27 H4          0.0021   -0.0041    0.0020 H         1 <0>         0.1362
     28 H5          2.1175    1.2560   -0.0115 H         1 <0>         0.1333
     29 H6         -0.0647    4.9201    0.0288 H         1 <0>         0.1188
     30 H7         -2.1802    3.6600    0.0414 H         1 <0>         0.1340
     31 H8          1.9275    5.0686   -1.7629 H         1 <0>         0.0958
     32 H9          3.6651    2.5447   -1.9863 H         1 <0>         0.0867
     33 H10         1.9183    2.6707   -2.3858 H         1 <0>         0.0883
     34 H11         3.3373    2.8350   -4.4339 H         1 <0>         0.1040
     35 H12         2.4330    4.3583   -4.1368 H         1 <0>         0.0510
     36 H13         5.3373    6.1833   -2.8769 H         1 <0>         0.1007
     37 H14         3.5813    6.2810   -3.2425 H         1 <0>         0.0579
     38 H15         3.9636    6.0948   -0.7940 H         1 <0>         0.0707
     39 H16         4.8726    4.5663   -1.0465 H         1 <0>         0.0905
     40 H17         4.6190    1.7060   -5.2294 H         1 <0>         0.1520
     41 H18         5.2464    0.9570   -7.6475 H         1 <0>         0.1843
     42 H19         5.7492    7.4240   -6.7441 H         1 <0>         0.2018
     43 H20         3.2821    5.6571    0.8906 H         1 <0>         0.4562
     44 H21         2.1238    4.7467    1.9182 H         1 <0>         0.4597
     45 H22         1.5201    5.7456    0.5528 H         1 <0>         0.4491
@<TRIPOS>BOND
     1    1    6 ar
     2    1    2 ar
     3    1   26 1
     4    2    3 ar
     5    2   27 1
     6    3    4 ar
     7    3   28 1
     8    4    5 ar
     9    4    7 1
    10    5    6 ar
    11    5   29 1
    12    6   30 1
    13    7    8 1
    14    7    9 1
    15    7   25 1
    16    9   14 1
    17    9   10 1
    18    9   31 1
    19   10   11 1
    20   10   32 1
    21   10   33 1
    22   11   12 1
    23   11   34 1
    24   11   35 1
    25   12   13 1
    26   12   15 1
    27   13   14 1
    28   13   36 1
    29   13   37 1
    30   14   38 1
    31   14   39 1
    32   15   24 ar
    33   15   16 ar
    34   16   21 ar
    35   16   17 1
    36   17   18 2
    37   17   40 1
    38   18   19 1
    39   18   41 1
    40   19   20 1
    41   19   21 1
    42   21   22 ar
    43   22   23 ar
    44   23   24 ar
    45   23   42 1
    46   25   43 1
    47   25   44 1
    48   25   45 1
@<TRIPOS>MOLECULE
ZINC29050937
   35    37     0     0     0
SMALL
USER_CHARGES
[1-(7H-pyrrolo[2,3-d]pyrimidin-4-yl)-4-piperidyl]methanamine
@<TRIPOS>ATOM
      1 C1         -4.9697   -0.0299   -4.3839 C.2       1 <0>        -0.1828
      2 C2         -6.0709   -0.1625   -5.1411 C.2       1 <0>         0.0569
      3 N1         -5.9138    0.5285   -6.3147 N.pl3     1 <0>        -0.5820
      4 H1         -6.7204    0.5327   -7.0627 H         1 <0>         0.4565
      5 C3         -4.6871    1.1328   -6.3418 C.ar      1 <0>         0.3407
      6 C4         -4.0394    0.8113   -5.1345 C.ar      1 <0>        -0.2214
      7 C5         -2.7491    1.3138   -4.9084 C.ar      1 <0>         0.4005
      8 N2         -2.1963    2.0781   -5.8459 N.ar      1 <0>        -0.5766
      9 C6         -2.8379    2.3506   -6.9679 C.ar      1 <0>         0.3424
     10 N3         -4.0481    1.9017   -7.2219 N.ar      1 <0>        -0.5425
     11 N4         -2.0713    1.0263   -3.7374 N.pl3     1 <0>        -0.4673
     12 C7         -0.7461    1.6589   -3.7274 C.3       1 <0>         0.0602
     13 C8          0.0290    1.2029   -2.4891 C.3       1 <0>        -0.1147
     14 C9         -0.7527    1.5927   -1.2315 C.3       1 <0>        -0.1197
     15 C10        -2.1467    0.9617   -1.2889 C.3       1 <0>        -0.1270
     16 C11        -2.8581    1.4235   -2.5628 C.3       1 <0>         0.0527
     17 C12        -0.0127    1.0858    0.0080 C.3       1 <0>         0.0021
     18 N5         -0.7003    1.5596    1.2166 N.4       1 <0>        -0.6884
     19 H2         -4.8033   -0.4619   -3.4081 H         1 <0>         0.1508
     20 H3         -6.9486   -0.7290   -4.8667 H         1 <0>         0.1841
     21 H4         -2.3508    2.9719   -7.7049 H         1 <0>         0.2027
     22 H5         -0.1938    1.3674   -4.6330 H         1 <0>         0.1012
     23 H6         -0.8620    2.7525   -3.7047 H         1 <0>         0.0575
     24 H7          0.1582    0.1109   -2.5189 H         1 <0>         0.0851
     25 H8          1.0159    1.6886   -2.4748 H         1 <0>         0.0866
     26 H9         -0.8442    2.6875   -1.1774 H         1 <0>         0.0937
     27 H10        -2.0531   -0.1343   -1.2958 H         1 <0>         0.0921
     28 H11        -2.7273    1.2745   -0.4086 H         1 <0>         0.0711
     29 H12        -2.9645    2.5182   -2.5459 H         1 <0>         0.0513
     30 H13        -3.8539    0.9591   -2.6144 H         1 <0>         0.1035
     31 H14         0.0022   -0.0141    0.0019 H         1 <0>         0.1312
     32 H15         1.0193    1.4665    0.0002 H         1 <0>         0.1314
     33 H16        -0.1683    1.1952    2.1078 H         1 <0>         0.4602
     34 H17        -1.7323    1.1789    1.2244 H         1 <0>         0.4526
     35 H18        -0.7152    2.6595    1.2226 H         1 <0>         0.4556
@<TRIPOS>BOND
     1    1    6 1
     2    1    2 2
     3    1   19 1
     4    2    3 1
     5    2   20 1
     6    3    4 1
     7    3    5 1
     8    5   10 ar
     9    5    6 ar
    10    6    7 ar
    11    7    8 ar
    12    7   11 1
    13    8    9 ar
    14    9   10 ar
    15    9   21 1
    16   11   16 1
    17   11   12 1
    18   12   13 1
    19   12   22 1
    20   12   23 1
    21   13   14 1
    22   13   24 1
    23   13   25 1
    24   14   15 1
    25   14   17 1
    26   14   26 1
    27   15   16 1
    28   15   27 1
    29   15   28 1
    30   16   29 1
    31   16   30 1
    32   17   18 1
    33   17   31 1
    34   17   32 1
    35   18   33 1
    36   18   34 1
    37   18   35 1
@<TRIPOS>MOLECULE
ZINC16052626
   31    33     0     0     0
SMALL
USER_CHARGES

@<TRIPOS>ATOM
      1 C1         -1.2293   -0.6194   -0.2166 C.ar      1 <0>         0.3677
      2 N1         -2.3431    0.0904   -0.2048 N.ar      1 <0>        -0.5865
      3 H1          2.0607    1.8225    0.5222 H         1 <0>         0.4372
      4 C2         -2.3223    1.3998    0.0205 C.ar      1 <0>         0.5015
      5 C3         -1.0820    2.0206    0.2480 C.ar      1 <0>        -0.1048
      6 N2         -0.6847    3.2903    0.5030 N.2       1 <0>        -0.4773
      7 C4          0.6096    3.3210    0.6349 C.2       1 <0>         0.2712
      8 N3          1.1239    2.0691    0.4722 N.pl3     1 <0>        -0.5757
      9 C5          0.0735    1.2219    0.2251 C.ar      1 <0>         0.3041
     10 N4         -0.0463   -0.0811   -0.0088 N.ar      1 <0>        -0.5491
     11 N5         -3.4945    2.1352    0.0304 N.pl3     1 <0>        -0.5932
     12 C6         -4.7988    1.4663   -0.0712 C.3       1 <0>         0.1214
     13 C7         -5.5861    2.0938   -1.2258 C.3       1 <0>        -0.1579
     14 C8         -5.6706    3.6076   -1.0171 C.3       1 <0>         0.0244
     15 C9         -4.2609    4.2033   -1.0137 C.3       1 <0>        -0.1569
     16 C10        -3.4588    3.5993    0.1489 C.3       1 <0>         0.1051
     17 N6         -6.4533    4.2087   -2.1052 N.4       1 <0>        -0.6362
     18 H2         -1.2921   -1.6820   -0.3991 H         1 <0>         0.2099
     19 H3          1.1905    4.2074    0.8427 H         1 <0>         0.2310
     20 H4         -4.6505    0.4040   -0.2648 H         1 <0>         0.1203
     21 H5         -5.3498    1.5967    0.8602 H         1 <0>         0.0792
     22 H6         -5.0794    1.8842   -2.1679 H         1 <0>         0.0926
     23 H7         -6.5914    1.6734   -1.2515 H         1 <0>         0.1024
     24 H8         -6.1552    3.8161   -0.0633 H         1 <0>         0.1445
     25 H9         -3.7667    3.9738   -1.9578 H         1 <0>         0.0906
     26 H10        -4.3230    5.2843   -0.8884 H         1 <0>         0.1026
     27 H11        -3.9028    3.9000    1.0979 H         1 <0>         0.0794
     28 H12        -2.4261    3.9447    0.1006 H         1 <0>         0.1463
     29 H13        -7.3831    3.8169   -2.1069 H         1 <0>         0.4365
     30 H14        -6.5092    5.2067   -1.9677 H         1 <0>         0.4365
     31 H15        -6.0053    4.0154   -2.9884 H         1 <0>         0.4334
@<TRIPOS>BOND
     1    1   10 ar
     2    1   18 1
     3    1    2 ar
     4    2    4 ar
     5    3    8 1
     6    4   11 1
     7    4    5 ar
     8    5    6 1
     9    5    9 ar
    10    6    7 2
    11    7   19 1
    12    7    8 1
    13    8    9 1
    14    9   10 ar
    15   11   16 1
    16   11   12 1
    17   12   13 1
    18   12   20 1
    19   12   21 1
    20   13   14 1
    21   13   22 1
    22   13   23 1
    23   14   15 1
    24   14   17 1
    25   14   24 1
    26   15   16 1
    27   15   25 1
    28   15   26 1
    29   16   27 1
    30   16   28 1
    31   17   29 1
    32   17   30 1
    33   17   31 1
@<TRIPOS>MOLECULE
ZINC16052630
   45    48     0     0     0
SMALL
USER_CHARGES
4-[(4-chlorophenyl)methyl]-1-(7H-pyrrolo[3,2-e]pyrimidin-4-yl)piperidin-4-amine
@<TRIPOS>ATOM
      1 C1          0.8279   -2.7837   -3.6169 C.ar      1 <0>        -0.1276
      2 C2          1.4920   -3.2183   -4.7485 C.ar      1 <0>        -0.1007
      3 C3          2.8657   -3.3808   -4.7245 C.ar      1 <0>        -0.0248
      4 C4          3.5745   -3.1027   -3.5693 C.ar      1 <0>        -0.0987
      5 C5          2.9100   -2.6628   -2.4401 C.ar      1 <0>        -0.0908
      6 C6          1.5373   -2.5006   -2.4647 C.ar      1 <0>        -0.1245
      7 C7          0.8134   -2.0208   -1.2332 C.3       1 <0>        -0.0869
      8 C8          0.7375   -0.4928   -1.2489 C.3       1 <0>         0.0685
      9 C9          0.0021   -0.0041    0.0020 C.3       1 <0>        -0.1354
     10 C10        -0.0187    1.5261    0.0104 C.3       1 <0>         0.0489
     11 N1          1.3585    2.0357    0.0000 N.pl3     1 <0>        -0.4633
     12 C11         2.0699    1.6185   -1.2150 C.3       1 <0>         0.0394
     13 C12         2.1530    0.0910   -1.2600 C.3       1 <0>        -0.1364
     14 C13         1.3790    3.4117    0.1386 C.ar      1 <0>         0.3925
     15 C14         2.5935    4.1145    0.1611 C.ar      1 <0>        -0.2155
     16 C15         4.0044    3.7477    0.0545 C.2       1 <0>        -0.1806
     17 C16         4.7095    4.8877    0.1386 C.2       1 <0>         0.0695
     18 N2          3.8569    5.9513    0.2853 N.pl3     1 <0>        -0.5668
     19 H1          4.1324    6.8778    0.3668 H         1 <0>         0.4292
     20 C17         2.5610    5.5143    0.2994 C.ar      1 <0>         0.3321
     21 N3          1.3775    6.1154    0.4137 N.ar      1 <0>        -0.5346
     22 C18         0.2639    5.4158    0.3925 C.ar      1 <0>         0.3428
     23 N4          0.2487    4.1015    0.2595 N.ar      1 <0>        -0.5752
     24 Cl1         3.6997   -3.9329   -6.1434 Cl        1 <0>        -0.0443
     25 H2         -0.2450   -2.6610   -3.6342 H         1 <0>         0.1328
     26 H3          0.9381   -3.4352   -5.6500 H         1 <0>         0.1427
     27 H4          4.6469   -3.2290   -3.5501 H         1 <0>         0.1438
     28 H5          3.4632   -2.4453   -1.5384 H         1 <0>         0.1410
     29 H6          1.3521   -2.3487   -0.3442 H         1 <0>         0.1249
     30 H7         -0.1950   -2.4346   -1.2202 H         1 <0>         0.1038
     31 H8          0.5174   -0.3659    0.8918 H         1 <0>         0.1246
     32 H9         -1.0203   -0.3818   -0.0060 H         1 <0>         0.1043
     33 H10        -0.5461    1.8871   -0.8725 H         1 <0>         0.0482
     34 H11        -0.5291    1.8775    0.9071 H         1 <0>         0.1188
     35 H12         3.0763    2.0369   -1.2084 H         1 <0>         0.1208
     36 H13         1.5326    1.9790   -2.0923 H         1 <0>         0.0414
     37 H14         2.7021   -0.2693   -0.3901 H         1 <0>         0.1269
     38 H15         2.6673   -0.2188   -2.1698 H         1 <0>         0.1047
     39 H16         4.4034    2.7512   -0.0644 H         1 <0>         0.1565
     40 H17         5.7864    4.9563    0.0963 H         1 <0>         0.1882
     41 H18        -0.6770    5.9373    0.4881 H         1 <0>         0.2052
     42 H19         0.4806   -0.3602   -3.2873 H         1 <0>         0.4336
     43 H20        -0.9442   -0.3645   -2.4295 H         1 <0>         0.4366
     44 N5          0.0159   -0.0244   -2.4453 N.4       1 <0>        -0.6478
     45 H21         0.0075    1.0023   -2.4540 H         1 <0>         0.4324
@<TRIPOS>BOND
     1    1    6 ar
     2    1    2 ar
     3    1   25 1
     4    2    3 ar
     5    2   26 1
     6    3    4 ar
     7    3   24 1
     8    4    5 ar
     9    4   27 1
    10    5    6 ar
    11    5   28 1
    12    6    7 1
    13    7    8 1
    14    7   29 1
    15    7   30 1
    16    8   13 1
    17    8    9 1
    18    8   44 1
    19    9   10 1
    20    9   31 1
    21    9   32 1
    22   10   11 1
    23   10   33 1
    24   10   34 1
    25   11   12 1
    26   11   14 1
    27   12   13 1
    28   12   35 1
    29   12   36 1
    30   13   37 1
    31   13   38 1
    32   14   23 ar
    33   14   15 ar
    34   15   20 ar
    35   15   16 1
    36   16   17 2
    37   16   39 1
    38   17   18 1
    39   17   40 1
    40   18   19 1
    41   18   20 1
    42   20   21 ar
    43   21   22 ar
    44   22   23 ar
    45   22   41 1
    46   42   44 1
    47   43   44 1
    48   44   45 1
@<TRIPOS>MOLECULE
ZINC29050809
   33    35     0     0     0
SMALL
USER_CHARGES
1-(1H-pyrrolo[2,3-b]pyridin-4-yl)piperidin-4-amine
@<TRIPOS>ATOM
      1 C1         -1.3968   -0.4339    0.0131 C.2       1 <0>        -0.2273
      2 C2         -2.1460    0.6797    0.0262 C.2       1 <0>         0.0673
      3 N1         -1.3360    1.7849    0.0299 N.pl3     1 <0>        -0.5921
      4 H1         -1.7792    2.7915    0.0472 H         1 <0>         0.4532
      5 C3         -0.0170    1.4009    0.0097 C.ar      1 <0>         0.3183
      6 C4          0.0021   -0.0041    0.0020 C.ar      1 <0>        -0.1907
      7 C5          1.2342   -0.6765   -0.0130 C.ar      1 <0>         0.1830
      8 C6          2.3948    0.0909   -0.0195 C.ar      1 <0>        -0.2195
      9 C7          2.2943    1.4702   -0.0112 C.ar      1 <0>         0.1621
     10 N2          1.1258    2.0783    0.0025 N.ar      1 <0>        -0.5090
     11 N3          1.2929   -2.0654   -0.0214 N.pl3     1 <0>        -0.4830
     12 C8         -0.0499   -2.6496    0.0880 C.3       1 <0>         0.0422
     13 C9          0.0631   -4.1699    0.2220 C.3       1 <0>        -0.1437
     14 C10         0.7867   -4.7330   -1.0044 C.3       1 <0>         0.0350
     15 C11         2.1632   -4.0729   -1.1229 C.3       1 <0>        -0.1396
     16 C12         1.9893   -2.5554   -1.2178 C.3       1 <0>         0.0553
     17 N4          0.9500   -6.1852   -0.8542 N.4       1 <0>        -0.6868
     18 H2         -1.7572   -1.4520    0.0116 H         1 <0>         0.1545
     19 H3         -3.2257    0.7014    0.0366 H         1 <0>         0.1795
     20 H4          3.3639   -0.3855   -0.0306 H         1 <0>         0.1399
     21 H5          3.1965    2.0638   -0.0163 H         1 <0>         0.1663
     22 H6         -0.5566   -2.2405    0.9745 H         1 <0>         0.1127
     23 H7         -0.6313   -2.4036   -0.8128 H         1 <0>         0.0679
     24 H8          0.6316   -4.4166    1.1308 H         1 <0>         0.0976
     25 H9         -0.9437   -4.6079    0.2892 H         1 <0>         0.0969
     26 H10         0.1949   -4.5670   -1.9166 H         1 <0>         0.1329
     27 H11         2.7658   -4.3200   -0.2365 H         1 <0>         0.0989
     28 H12         2.6707   -4.4428   -2.0260 H         1 <0>         0.0974
     29 H13         1.3983   -2.3098   -2.1124 H         1 <0>         0.0568
     30 H14         2.9774   -2.0773   -1.2885 H         1 <0>         0.1056
     31 H15         1.4699   -6.5888   -1.7356 H         1 <0>         0.4574
     32 H16        -0.0391   -6.6579   -0.7635 H         1 <0>         0.4575
     33 H17         1.5415   -6.3962    0.0489 H         1 <0>         0.4537
@<TRIPOS>BOND
     1    1    6 1
     2    1    2 2
     3    1   18 1
     4    2    3 1
     5    2   19 1
     6    3    4 1
     7    3    5 1
     8    5   10 ar
     9    5    6 ar
    10    6    7 ar
    11    7    8 ar
    12    7   11 1
    13    8    9 ar
    14    8   20 1
    15    9   10 ar
    16    9   21 1
    17   11   16 1
    18   11   12 1
    19   12   13 1
    20   12   22 1
    21   12   23 1
    22   13   14 1
    23   13   24 1
    24   13   25 1
    25   14   15 1
    26   14   17 1
    27   14   26 1
    28   15   16 1
    29   15   27 1
    30   15   28 1
    31   16   29 1
    32   16   30 1
    33   17   31 1
    34   17   32 1
    35   17   33 1
@<TRIPOS>MOLECULE
ZINC28643174
   22    23     0     0     0
SMALL
USER_CHARGES

@<TRIPOS>ATOM
      1 C1         -0.0168    1.3891    0.0097 C.ar      1 <0>        -0.1535
      2 C2          1.1399    2.1082    0.0025 C.ar      1 <0>        -0.0168
      3 C3          2.3717    1.4361   -0.0128 C.ar      1 <0>        -0.1387
      4 C4          3.5965    2.1233   -0.0202 C.ar      1 <0>         0.1638
      5 N1          4.7235    1.4508   -0.0342 N.ar      1 <0>        -0.4902
      6 C5          4.7687    0.1255   -0.0418 C.ar      1 <0>         0.1092
      7 C6          3.6377   -0.6328   -0.0356 C.ar      1 <0>        -0.1872
      8 C7          2.3897    0.0168   -0.0206 C.ar      1 <0>         0.0549
      9 C8          1.1791   -0.6902   -0.0128 C.ar      1 <0>        -0.6832
     10 C9          0.0021   -0.0041    0.0020 C.ar      1 <0>         0.0336
     11 S1          1.1797   -2.4522   -0.0228 S.o2      1 <0>         2.7034
     12 O1          2.0857   -2.8637    0.9917 O.2       1 <0>        -0.9553
     13 O2         -0.1818   -2.8587   -0.0389 O.2       1 <0>        -0.9585
     14 N2          1.8345   -2.9334   -1.4657 N.pl3     1 <0>        -1.2471
     15 H1         -0.9642    1.9073    0.0261 H         1 <0>         0.1430
     16 H2          1.1093    3.1878    0.0082 H         1 <0>         0.1457
     17 H3          3.6110    3.2032   -0.0148 H         1 <0>         0.1702
     18 H4          5.7301   -0.3665   -0.0537 H         1 <0>         0.1625
     19 H5          3.6974   -1.7111   -0.0424 H         1 <0>         0.1491
     20 H6         -0.9306   -0.5485    0.0083 H         1 <0>         0.1526
     21 H7          2.3198   -3.7713   -1.5226 H         1 <0>         0.4239
     22 H8          1.7326   -2.3774   -2.2540 H         1 <0>         0.4187
@<TRIPOS>BOND
     1    1   10 ar
     2    1    2 ar
     3    1   15 1
     4    2    3 ar
     5    2   16 1
     6    3    8 ar
     7    3    4 ar
     8    4    5 ar
     9    4   17 1
    10    5    6 ar
    11    6    7 ar
    12    6   18 1
    13    7    8 ar
    14    7   19 1
    15    8    9 ar
    16    9   10 ar
    17    9   11 1
    18   10   20 1
    19   11   12 2
    20   11   13 2
    21   11   14 1
    22   14   21 1
    23   14   22 1
@<TRIPOS>MOLECULE
ZINC16052239
   54    58     0     0     0
SMALL
USER_CHARGES

@<TRIPOS>ATOM
      1 C1         -0.0127    1.0858    0.0080 C.3       1 <0>        -0.0807
      2 C2         -0.7416    1.5850   -1.2129 C.2       1 <0>         0.1087
      3 C3         -2.1734    1.8530   -1.3107 C.ar      1 <0>        -0.1761
      4 C4         -3.2414    1.7529   -0.4150 C.ar      1 <0>        -0.0088
      5 C5         -4.5171    2.0954   -0.8352 C.ar      1 <0>        -0.1054
      6 C6         -4.7322    2.5376   -2.1458 C.ar      1 <0>        -0.0533
      7 C7         -3.6953    2.6377   -3.0258 C.ar      1 <0>        -0.1375
      8 C8         -2.4036    2.2996   -2.6271 C.ar      1 <0>         0.1438
      9 N1         -1.1890    2.2950   -3.2623 N.pl3     1 <0>        -0.5049
     10 N2         -0.2060    1.8599   -2.3676 N.2       1 <0>        -0.2437
     11 H1         -1.0352    2.5551   -4.1840 H         1 <0>         0.4442
     12 C9         -5.6587    1.9924    0.1074 C.ar      1 <0>        -0.0277
     13 C10        -6.9504    2.3286   -0.3040 C.ar      1 <0>        -0.1020
     14 C11        -7.9845    2.2145    0.6161 C.ar      1 <0>         0.0708
     15 C12        -7.7007    1.7740    1.9017 C.ar      1 <0>         0.0161
     16 N3         -6.4690    1.4650    2.2561 N.ar      1 <0>        -0.4369
     17 C13        -5.4593    1.5533    1.4145 C.ar      1 <0>         0.0804
     18 O1         -9.2582    2.5305    0.2625 O.3       1 <0>        -0.3230
     19 C14       -10.2649    2.3862    1.2664 C.3       1 <0>         0.0265
     20 C15       -11.6236    2.7854    0.6872 C.3       1 <0>         0.0434
     21 H2        -11.5614    3.7928    0.2757 H         1 <0>         0.1527
     22 C16       -12.6798    2.7508    1.7936 C.3       1 <0>        -0.0555
     23 C17       -13.9907    3.2611    1.2529 C.2       1 <0>        -0.2374
     24 C18       -14.4526    4.5188    1.3344 C.2       1 <0>         0.1039
     25 N4        -15.6775    4.6060    0.7309 N.pl3     1 <0>        -0.5846
     26 H3        -16.2092    5.4146    0.6634 H         1 <0>         0.4265
     27 C19       -16.0431    3.3752    0.2336 C.ar      1 <0>         0.0987
     28 C20       -14.9996    2.4801    0.5332 C.ar      1 <0>        -0.1171
     29 C21       -15.0936    1.1440    0.1399 C.ar      1 <0>        -0.1140
     30 C22       -16.1988    0.7126   -0.5384 C.ar      1 <0>        -0.1192
     31 C23       -17.2289    1.5925   -0.8399 C.ar      1 <0>        -0.0932
     32 C24       -17.1609    2.9133   -0.4531 C.ar      1 <0>        -0.1110
     33 N5        -11.9980    1.8442   -0.3768 N.4       1 <0>        -0.6362
     34 H4          0.0021   -0.0041    0.0020 H         1 <0>         0.0877
     35 H5          1.0099    1.4631    0.0003 H         1 <0>         0.0842
     36 H6         -0.5229    1.4373    0.9048 H         1 <0>         0.0843
     37 H7         -3.0742    1.4112    0.5958 H         1 <0>         0.1365
     38 H8         -5.7300    2.8021   -2.4634 H         1 <0>         0.1317
     39 H9         -3.8757    2.9800   -4.0341 H         1 <0>         0.1330
     40 H10        -7.1402    2.6688   -1.3113 H         1 <0>         0.1473
     41 H11        -8.5004    1.6834    2.6220 H         1 <0>         0.1570
     42 H12        -4.4656    1.2863    1.7425 H         1 <0>         0.1665
     43 H13       -10.3018    1.3484    1.5974 H         1 <0>         0.0919
     44 H14       -10.0280    3.0297    2.1137 H         1 <0>         0.1138
     45 H15       -12.8055    1.7263    2.1440 H         1 <0>         0.0999
     46 H16       -12.3585    3.3815    2.6225 H         1 <0>         0.1218
     47 H17       -13.9343    5.3402    1.8067 H         1 <0>         0.1791
     48 H18       -14.2955    0.4538    0.3705 H         1 <0>         0.1149
     49 H19       -16.2710   -0.3212   -0.8425 H         1 <0>         0.1312
     50 H20       -18.0956    1.2368   -1.3772 H         1 <0>         0.1352
     51 H21       -17.9671    3.5904   -0.6935 H         1 <0>         0.1294
     52 H22       -12.8940    2.1074   -0.7588 H         1 <0>         0.4379
     53 H23       -11.3015    1.8670   -1.1064 H         1 <0>         0.4392
     54 H24       -12.0556    0.9116    0.0041 H         1 <0>         0.4300
@<TRIPOS>BOND
     1    1   34 1
     2    1   35 1
     3    1   36 1
     4    1    2 1
     5    2    3 1
     6    2   10 2
     7    3    4 ar
     8    3    8 ar
     9    4    5 ar
    10    4   37 1
    11    5    6 ar
    12    5   12 1
    13    6    7 ar
    14    6   38 1
    15    7    8 ar
    16    7   39 1
    17    8    9 1
    18    9   10 1
    19    9   11 1
    20   12   17 ar
    21   12   13 ar
    22   13   14 ar
    23   13   40 1
    24   14   15 ar
    25   14   18 1
    26   15   16 ar
    27   15   41 1
    28   16   17 ar
    29   17   42 1
    30   18   19 1
    31   19   20 1
    32   19   43 1
    33   19   44 1
    34   20   21 1
    35   20   22 1
    36   20   33 1
    37   22   23 1
    38   22   45 1
    39   22   46 1
    40   23   28 1
    41   23   24 2
    42   24   25 1
    43   24   47 1
    44   25   26 1
    45   25   27 1
    46   27   32 ar
    47   27   28 ar
    48   28   29 ar
    49   29   30 ar
    50   29   48 1
    51   30   31 ar
    52   30   49 1
    53   31   32 ar
    54   31   50 1
    55   32   51 1
    56   33   52 1
    57   33   53 1
    58   33   54 1
@<TRIPOS>MOLECULE
ZINC29050641
   45    48     0     0     0
SMALL
USER_CHARGES
(S)-(4-chlorophenyl)-[1-(7H-pyrrolo[2,3-d]pyrimidin-4-yl)-4-piperidyl]methanamine
@<TRIPOS>ATOM
      1 C1          0.2780    3.7990    4.2062 C.ar      1 <0>        -0.1073
      2 C2          0.9093    3.3678    5.3577 C.ar      1 <0>        -0.0982
      3 C3          0.4282    2.2631    6.0378 C.ar      1 <0>        -0.0140
      4 C4         -0.6879    1.5942    5.5678 C.ar      1 <0>        -0.0983
      5 C5         -1.3217    2.0297    4.4193 C.ar      1 <0>        -0.0734
      6 C6         -0.8405    3.1335    3.7402 C.ar      1 <0>        -0.1391
      7 C7         -1.5319    3.6079    2.4881 C.3       1 <0>         0.0981
      8 H1         -2.5702    3.2448    2.4770 H         1 <0>         0.1464
      9 C8         -0.7644    3.1099    1.2618 C.3       1 <0>        -0.1074
     10 C9         -0.7286    1.5791    1.2674 C.3       1 <0>        -0.1116
     11 C10        -0.0127    1.0858    0.0080 C.3       1 <0>         0.0618
     12 N1         -0.7225    1.5721   -1.1820 N.pl3     1 <0>        -0.4666
     13 C11        -0.7289    3.0396   -1.2338 C.3       1 <0>         0.0539
     14 C12        -1.4660    3.5913   -0.0113 C.3       1 <0>        -0.1279
     15 C13        -0.1790    1.0377   -2.3363 C.ar      1 <0>         0.4011
     16 C14        -0.7020    1.3659   -3.5966 C.ar      1 <0>        -0.2213
     17 C15        -1.7893    2.2161   -4.0773 C.2       1 <0>        -0.1826
     18 C16        -1.7964    2.1174   -5.4167 C.2       1 <0>         0.0567
     19 N2         -0.7984    1.2709   -5.8253 N.pl3     1 <0>        -0.5820
     20 H2         -0.6530    1.0688   -6.8967 H         1 <0>         0.4563
     21 C17        -0.1135    0.7963   -4.7406 C.ar      1 <0>         0.3403
     22 N3          0.9171   -0.0326   -4.5808 N.ar      1 <0>        -0.5424
     23 C18         1.3744   -0.3123   -3.3797 C.ar      1 <0>         0.3424
     24 N4          0.8557    0.2045   -2.2801 N.ar      1 <0>        -0.5763
     25 N5         -1.5724    5.0763    2.4774 N.4       1 <0>        -0.6883
     26 Cl1         1.2243    1.7170    7.4805 Cl        1 <0>        -0.0384
     27 H3          0.6561    4.6586    3.6729 H         1 <0>         0.1286
     28 H4          1.7805    3.8904    5.7241 H         1 <0>         0.1453
     29 H5         -1.0642    0.7320    6.0984 H         1 <0>         0.1475
     30 H6         -2.1931    1.5078    4.0525 H         1 <0>         0.1435
     31 H7          0.2619    3.5047    1.2913 H         1 <0>         0.0970
     32 H8         -0.1888    1.2282    2.1593 H         1 <0>         0.0867
     33 H9         -1.7567    1.1883    1.2837 H         1 <0>         0.0845
     34 H10         1.0193    1.4665    0.0000 H         1 <0>         0.0572
     35 H11         0.0021   -0.0141    0.0017 H         1 <0>         0.1009
     36 H12         0.3065    3.4109   -1.2355 H         1 <0>         0.0520
     37 H13        -1.2391    3.3720   -2.1499 H         1 <0>         0.1045
     38 H14        -2.5058    3.2324   -0.0150 H         1 <0>         0.0943
     39 H15        -1.4576    4.6909   -0.0412 H         1 <0>         0.0721
     40 H16        -2.4584    2.8096   -3.4719 H         1 <0>         0.1509
     41 H17        -2.4851    2.6281   -6.0734 H         1 <0>         0.1838
     42 H18         2.2117   -0.9883   -3.2890 H         1 <0>         0.2023
     43 H19        -2.0771    5.4225    1.5634 H         1 <0>         0.4568
     44 H20        -0.5462    5.4716    2.5018 H         1 <0>         0.4494
     45 H21        -2.1243    5.4343    3.3590 H         1 <0>         0.4608
@<TRIPOS>BOND
     1    1    6 ar
     2    1    2 ar
     3    1   27 1
     4    2    3 ar
     5    2   28 1
     6    3    4 ar
     7    3   26 1
     8    4    5 ar
     9    4   29 1
    10    5    6 ar
    11    5   30 1
    12    6    7 1
    13    7    8 1
    14    7    9 1
    15    7   25 1
    16    9   14 1
    17    9   10 1
    18    9   31 1
    19   10   11 1
    20   10   32 1
    21   10   33 1
    22   11   12 1
    23   11   34 1
    24   11   35 1
    25   12   13 1
    26   12   15 1
    27   13   14 1
    28   13   36 1
    29   13   37 1
    30   14   38 1
    31   14   39 1
    32   15   24 ar
    33   15   16 ar
    34   16   21 ar
    35   16   17 1
    36   17   18 2
    37   17   40 1
    38   18   19 1
    39   18   41 1
    40   19   20 1
    41   19   21 1
    42   21   22 ar
    43   22   23 ar
    44   23   24 ar
    45   23   42 1
    46   25   43 1
    47   25   44 1
    48   25   45 1
@<TRIPOS>MOLECULE
ZINC29050646
   45    48     0     0     0
SMALL
USER_CHARGES
(R)-(4-chlorophenyl)-[1-(7H-pyrrolo[2,3-d]pyrimidin-4-yl)-4-piperidyl]methanamine
@<TRIPOS>ATOM
      1 C1          0.1597    6.3723   -3.1703 C.ar      1 <0>        -0.1077
      2 C2         -0.5782    6.9039   -4.2111 C.ar      1 <0>        -0.0979
      3 C3         -1.9130    7.2158   -4.0236 C.ar      1 <0>        -0.0147
      4 C4         -2.5098    6.9901   -2.7960 C.ar      1 <0>        -0.0983
      5 C5         -1.7723    6.4532   -1.7576 C.ar      1 <0>        -0.0743
      6 C6         -0.4386    6.1418   -1.9455 C.ar      1 <0>        -0.1386
      7 C7          0.3650    5.5564   -0.8130 C.3       1 <0>         0.0980
      8 H1         -0.1113    5.8040    0.1471 H         1 <0>         0.1463
      9 C8          0.4746    4.0413   -0.9952 C.3       1 <0>        -0.1074
     10 C9          1.2909    3.4453    0.1550 C.3       1 <0>        -0.1308
     11 C10         1.3469    1.9239   -0.0005 C.3       1 <0>         0.0630
     12 N1         -0.0167    1.3790    0.0096 N.pl3     1 <0>        -0.4665
     13 C11        -0.8053    1.9008   -1.1139 C.3       1 <0>         0.0525
     14 C12        -0.9256    3.4215   -0.9916 C.3       1 <0>        -0.1085
     15 C13         0.0021   -0.0041    0.0020 C.ar      1 <0>         0.4013
     16 C14        -1.1930   -0.7398    0.0095 C.ar      1 <0>        -0.2206
     17 C15        -2.6156   -0.4045    0.0248 C.2       1 <0>        -0.1812
     18 C16        -3.2885   -1.5668    0.0245 C.2       1 <0>         0.0565
     19 N2         -2.4050   -2.6150    0.0102 N.pl3     1 <0>        -0.5818
     20 H2         -2.7789   -3.6495    0.0078 H         1 <0>         0.4563
     21 C17        -1.1206   -2.1448    0.0008 C.ar      1 <0>         0.3403
     22 N3          0.0808   -2.7205   -0.0139 N.ar      1 <0>        -0.5421
     23 C18         1.1752   -1.9909   -0.0200 C.ar      1 <0>         0.3410
     24 N4          1.1528   -0.6700   -0.0181 N.ar      1 <0>        -0.5788
     25 N5          1.7097    6.1478   -0.8099 N.4       1 <0>        -0.6882
     26 Cl1        -2.8389    7.8895   -5.3284 Cl        1 <0>        -0.0386
     27 H3          1.2028    6.1329   -3.3152 H         1 <0>         0.1289
     28 H4         -0.1118    7.0798   -5.1691 H         1 <0>         0.1454
     29 H5         -3.5518    7.2330   -2.6492 H         1 <0>         0.1474
     30 H6         -2.2381    6.2767   -0.7994 H         1 <0>         0.1436
     31 H7          0.9717    3.8268   -1.9528 H         1 <0>         0.0968
     32 H8          2.3112    3.8558    0.1317 H         1 <0>         0.0711
     33 H9          0.8148    3.7004    1.1132 H         1 <0>         0.0911
     34 H10         1.8355    1.6704   -0.9529 H         1 <0>         0.0581
     35 H11         1.9204    1.4910    0.8324 H         1 <0>         0.1010
     36 H12        -0.3061    1.6479   -2.0609 H         1 <0>         0.0512
     37 H13        -1.8092    1.4515   -1.0972 H         1 <0>         0.1044
     38 H14        -1.4369    3.6762   -0.0515 H         1 <0>         0.0878
     39 H15        -1.5029    3.8149   -1.8412 H         1 <0>         0.0878
     40 H16        -3.0433    0.5871    0.0345 H         1 <0>         0.1520
     41 H17        -4.3643   -1.6616    0.0338 H         1 <0>         0.1843
     42 H18         2.1316   -2.4924   -0.0323 H         1 <0>         0.2018
     43 H19         2.2963    5.7205    0.0168 H         1 <0>         0.4579
     44 H20         1.6309    7.2371   -0.6788 H         1 <0>         0.4606
     45 H21         2.2088    5.9286   -1.7653 H         1 <0>         0.4495
@<TRIPOS>BOND
     1    1    6 ar
     2    1    2 ar
     3    1   27 1
     4    2    3 ar
     5    2   28 1
     6    3    4 ar
     7    3   26 1
     8    4    5 ar
     9    4   29 1
    10    5    6 ar
    11    5   30 1
    12    6    7 1
    13    7    8 1
    14    7    9 1
    15    7   25 1
    16    9   14 1
    17    9   10 1
    18    9   31 1
    19   10   11 1
    20   10   32 1
    21   10   33 1
    22   11   12 1
    23   11   34 1
    24   11   35 1
    25   12   13 1
    26   12   15 1
    27   13   14 1
    28   13   36 1
    29   13   37 1
    30   14   38 1
    31   14   39 1
    32   15   24 ar
    33   15   16 ar
    34   16   21 ar
    35   16   17 1
    36   17   18 2
    37   17   40 1
    38   18   19 1
    39   18   41 1
    40   19   20 1
    41   19   21 1
    42   21   22 ar
    43   22   23 ar
    44   23   24 ar
    45   23   42 1
    46   25   43 1
    47   25   44 1
    48   25   45 1
@<TRIPOS>MOLECULE
ZINC16052627
   45    48     0     0     0
SMALL
USER_CHARGES
[4-(4-chlorophenyl)-1-(7H-pyrrolo[3,2-e]pyrimidin-4-yl)-4-piperidyl]methanamine
@<TRIPOS>ATOM
      1 C1          1.1850    0.3882    2.3492 C.ar      1 <0>        -0.0898
      2 C2          1.8858   -0.0169    3.4696 C.ar      1 <0>        -0.0838
      3 C3          1.4244    0.3145    4.7311 C.ar      1 <0>        -0.0294
      4 C4          0.2646    1.0560    4.8702 C.ar      1 <0>        -0.0875
      5 C5         -0.4322    1.4653    3.7489 C.ar      1 <0>        -0.1587
      6 C6          0.0293    1.1339    2.4887 C.ar      1 <0>        -0.0904
      7 C7         -0.7310    1.5804    1.2666 C.3       1 <0>        -0.0376
      8 C8         -0.0127    1.0858    0.0080 C.3       1 <0>        -0.1130
      9 C9         -0.7544    1.5936   -1.2306 C.3       1 <0>         0.0573
     10 N1         -0.7929    3.0614   -1.2121 N.pl3     1 <0>        -0.4631
     11 C10        -1.5200    3.5588   -0.0372 C.3       1 <0>         0.0476
     12 C11        -0.8011    3.1098    1.2370 C.3       1 <0>        -0.1192
     13 C12        -1.3412    3.5576   -2.3811 C.ar      1 <0>         0.3986
     14 C13        -1.4823    4.9397   -2.5795 C.ar      1 <0>        -0.2196
     15 C14        -1.1605    6.1356   -1.8031 C.2       1 <0>        -0.1781
     16 C15        -1.5323    7.1918   -2.5446 C.2       1 <0>         0.0646
     17 N2         -2.0609    6.7611   -3.7341 N.pl3     1 <0>        -0.5679
     18 H1         -2.3986    7.3405   -4.4349 H         1 <0>         0.4280
     19 C16        -2.0417    5.3946   -3.7876 C.ar      1 <0>         0.3314
     20 N3         -2.4244    4.4933   -4.6911 N.ar      1 <0>        -0.5395
     21 C17        -2.2778    3.2067   -4.4605 C.ar      1 <0>         0.3434
     22 N4         -1.7531    2.7369   -3.3428 N.ar      1 <0>        -0.5753
     23 C18        -2.1482    1.0051    1.3059 C.3       1 <0>        -0.0023
     24 Cl1         2.3005   -0.1994    6.1389 Cl        1 <0>        -0.0410
     25 H2          1.5427    0.1258    1.3646 H         1 <0>         0.1485
     26 H3          2.7910   -0.5957    3.3604 H         1 <0>         0.1467
     27 H4         -0.0959    1.3153    5.8546 H         1 <0>         0.1453
     28 H5         -1.3374    2.0444    3.8574 H         1 <0>         0.1193
     29 H6          0.0021   -0.0041    0.0020 H         1 <0>         0.0938
     30 H7          1.0097    1.4637    0.0003 H         1 <0>         0.1006
     31 H8         -0.2368    1.2551   -2.1281 H         1 <0>         0.1062
     32 H9         -1.7723    1.2037   -1.2295 H         1 <0>         0.0550
     33 H10        -1.5583    4.6477   -0.0680 H         1 <0>         0.1092
     34 H11        -2.5342    3.1596   -0.0419 H         1 <0>         0.0437
     35 H12         0.2087    3.5200    1.2489 H         1 <0>         0.1092
     36 H13        -1.3492    3.4665    2.1090 H         1 <0>         0.0728
     37 H14        -0.7138    6.1642   -0.8202 H         1 <0>         0.1552
     38 H15        -1.4297    8.2253   -2.2487 H         1 <0>         0.1866
     39 H16        -2.5999    2.5054   -5.2159 H         1 <0>         0.2038
     40 H17        -2.6974    1.3314    0.4228 H         1 <0>         0.1411
     41 H18        -2.0980   -0.0837    1.3209 H         1 <0>         0.1418
     42 H19        -2.8389    2.4884    2.5553 H         1 <0>         0.4313
     43 H20        -3.7750    1.1138    2.5629 H         1 <0>         0.4382
     44 N5         -2.8212    1.4702    2.5315 N.4       1 <0>        -0.6599
     45 H21        -2.3074    1.1248    3.3505 H         1 <0>         0.4370
@<TRIPOS>BOND
     1    1    6 ar
     2    1    2 ar
     3    1   25 1
     4    2    3 ar
     5    2   26 1
     6    3    4 ar
     7    3   24 1
     8    4    5 ar
     9    4   27 1
    10    5    6 ar
    11    5   28 1
    12    6    7 1
    13    7   12 1
    14    7    8 1
    15    7   23 1
    16    8    9 1
    17    8   29 1
    18    8   30 1
    19    9   10 1
    20    9   31 1
    21    9   32 1
    22   10   11 1
    23   10   13 1
    24   11   12 1
    25   11   33 1
    26   11   34 1
    27   12   35 1
    28   12   36 1
    29   13   22 ar
    30   13   14 ar
    31   14   19 ar
    32   14   15 1
    33   15   16 2
    34   15   37 1
    35   16   17 1
    36   16   38 1
    37   17   18 1
    38   17   19 1
    39   19   20 ar
    40   20   21 ar
    41   21   22 ar
    42   21   39 1
    43   23   40 1
    44   23   41 1
    45   23   44 1
    46   42   44 1
    47   43   44 1
    48   44   45 1
@<TRIPOS>MOLECULE
ZINC28714095
   62    67     0     0     0
SMALL
USER_CHARGES
N-(4-hydroxycyclohexyl)-3-[4-(4-hydroxyphenyl)phenyl]-1,4-dihydroindeno[1,2-c]pyrazole-6-carboxamide
@<TRIPOS>ATOM
      1 C1          3.5844    5.3599    0.6882 C.ar      1 <0>        -0.1162
      2 C2          2.7790    4.2424    0.6905 C.ar      1 <0>        -0.0841
      3 C3          1.5622    4.2586    0.0100 C.ar      1 <0>        -0.0212
      4 C4          1.1626    5.4041   -0.6770 C.ar      1 <0>        -0.0865
      5 C5          1.9651    6.5238   -0.6747 C.ar      1 <0>        -0.1157
      6 C6          3.1825    6.5077    0.0055 C.ar      1 <0>        -0.0241
      7 C7          4.0496    7.7106    0.0025 C.ar      1 <0>        -0.0946
      8 C8          5.2644    7.6977    0.6864 C.ar      1 <0>        -0.0643
      9 C9          6.0710    8.8161    0.6773 C.ar      1 <0>        -0.1614
     10 C10         5.6695    9.9578   -0.0032 C.ar      1 <0>         0.1615
     11 C11         4.4576    9.9757   -0.6805 C.ar      1 <0>        -0.2135
     12 C12         3.6490    8.8587   -0.6796 C.ar      1 <0>        -0.0653
     13 O1          6.4640   11.0600   -0.0060 O.3       1 <0>        -0.5096
     14 C13         0.6953    3.0545    0.0118 C.2       1 <0>         0.1379
     15 C14        -0.7085    3.0512    0.0252 C.2       1 <0>        -0.2195
     16 C15        -1.1284    1.7549    0.0163 C.2       1 <0>         0.0808
     17 N1         -0.0111    0.9658    0.0074 N.pl3     1 <0>        -0.4626
     18 H1         -0.1114   -0.1296    0.0063 H         1 <0>         0.4717
     19 N2          1.1102    1.8043    0.0011 N.2       1 <0>        -0.2432
     20 C16        -2.6056    1.6992    0.0365 C.ar      1 <0>        -0.0084
     21 C17        -3.4888    0.6134    0.0396 C.ar      1 <0>        -0.1023
     22 C18        -4.8373    0.8246    0.0544 C.ar      1 <0>        -0.0849
     23 C19        -5.3474    2.1258    0.0666 C.ar      1 <0>        -0.1225
     24 C20        -4.4711    3.2158    0.0635 C.ar      1 <0>        -0.0369
     25 C21        -3.1147    2.9996    0.0486 C.ar      1 <0>        -0.0767
     26 C22        -1.9313    3.9361    0.0421 C.3       1 <0>        -0.0125
     27 C23        -6.8069    2.3490    0.0821 C.2       1 <0>         0.5615
     28 O2         -7.2486    3.4817    0.0922 O.2       1 <0>        -0.5345
     29 N3         -7.6495    1.2971    0.0850 N.am      1 <0>        -0.7348
     30 C24        -9.0976    1.5185    0.1004 C.3       1 <0>         0.1464
     31 C25        -9.5685    1.7125    1.5431 C.3       1 <0>        -0.1253
     32 C26       -11.0808    1.9438    1.5592 C.3       1 <0>        -0.1105
     33 C27       -11.7886    0.7317    0.9503 C.3       1 <0>         0.1144
     34 C28       -11.3177    0.5377   -0.4924 C.3       1 <0>        -0.1470
     35 C29        -9.8053    0.3064   -0.5085 C.3       1 <0>        -0.1233
     36 O3        -13.2011    0.9477    0.9653 O.3       1 <0>        -0.6016
     37 H2          4.5270    5.3474    1.2153 H         1 <0>         0.1290
     38 H3          3.0902    3.3536    1.2192 H         1 <0>         0.1283
     39 H4          0.2219    5.4151   -1.2075 H         1 <0>         0.1279
     40 H5          1.6538    7.4124   -1.2038 H         1 <0>         0.1294
     41 H6          5.5752    6.8114    1.2197 H         1 <0>         0.1327
     42 H7          7.0140    8.8054    1.2035 H         1 <0>         0.1310
     43 H8          4.1481   10.8652   -1.2090 H         1 <0>         0.1292
     44 H9          2.7063    8.8733   -1.2063 H         1 <0>         0.1287
     45 H10         6.1470   11.9651   -0.5448 H         1 <0>         0.4351
     46 H11        -3.1021   -0.3949    0.0307 H         1 <0>         0.1297
     47 H12        -5.5133   -0.0177    0.0564 H         1 <0>         0.1313
     48 H13        -4.8594    4.2236    0.0725 H         1 <0>         0.1443
     49 H14        -1.9155    4.5662    0.9436 H         1 <0>         0.1042
     50 H15        -1.9332    4.5761   -0.8525 H         1 <0>         0.1025
     51 H16        -7.2499    0.2723    0.0758 H         1 <0>         0.4168
     52 H17        -9.2940    2.4217   -0.4960 H         1 <0>         0.0915
     53 H18        -9.3287    0.8142    2.1310 H         1 <0>         0.0672
     54 H19        -9.0596    2.5839    1.9809 H         1 <0>         0.0759
     55 H20       -11.4194    2.0833    2.5965 H         1 <0>         0.0731
     56 H21       -11.3206    2.8421    0.9713 H         1 <0>         0.0734
     57 H22       -11.6171   -0.1737    1.5510 H         1 <0>         0.0508
     58 H23       -11.8266   -0.3337   -0.9301 H         1 <0>         0.0704
     59 H24       -11.5576    1.4359   -1.0803 H         1 <0>         0.0750
     60 H25        -9.4667    0.1670   -1.5457 H         1 <0>         0.0738
     61 H26        -9.5654   -0.5918    0.0794 H         1 <0>         0.0709
     62 H27       -13.8793    0.1795    0.5654 H         1 <0>         0.4066
@<TRIPOS>BOND
     1    1    6 ar
     2    1    2 ar
     3    1   37 1
     4    2    3 ar
     5    2   38 1
     6    3    4 ar
     7    3   14 1
     8    4    5 ar
     9    4   39 1
    10    5    6 ar
    11    5   40 1
    12    6    7 1
    13    7   12 ar
    14    7    8 ar
    15    8    9 ar
    16    8   41 1
    17    9   10 ar
    18    9   42 1
    19   10   11 ar
    20   10   13 1
    21   11   12 ar
    22   11   43 1
    23   12   44 1
    24   13   45 1
    25   14   19 2
    26   14   15 1
    27   15   26 1
    28   15   16 2
    29   16   17 1
    30   16   20 1
    31   17   18 1
    32   17   19 1
    33   20   25 ar
    34   20   21 ar
    35   21   22 ar
    36   21   46 1
    37   22   23 ar
    38   22   47 1
    39   23   24 ar
    40   23   27 1
    41   24   25 ar
    42   24   48 1
    43   25   26 1
    44   26   49 1
    45   26   50 1
    46   27   28 2
    47   27   29 am
    48   29   30 1
    49   29   51 1
    50   30   35 1
    51   30   31 1
    52   30   52 1
    53   31   32 1
    54   31   53 1
    55   31   54 1
    56   32   33 1
    57   32   55 1
    58   32   56 1
    59   33   34 1
    60   33   36 1
    61   33   57 1
    62   34   35 1
    63   34   58 1
    64   34   59 1
    65   35   60 1
    66   35   61 1
    67   36   62 1
@<TRIPOS>MOLECULE
ZINC34285211
   59    62     0     0     0
SMALL
USER_CHARGES

@<TRIPOS>ATOM
      1 C1         -0.0187    1.5258    0.0104 C.3       1 <0>        -0.1656
      2 C2          0.0021   -0.0041    0.0020 C.3       1 <0>         0.0991
      3 N1          0.6878   -0.4765   -1.2033 N.pl3     1 <0>        -0.4455
      4 C3          0.1084   -0.7452   -2.4220 C.ar      1 <0>         0.0734
      5 C4         -1.1885   -0.6848   -2.9333 C.ar      1 <0>         0.0979
      6 C5         -1.4068   -1.0423   -4.2530 C.ar      1 <0>         0.0255
      7 N2         -0.4156   -1.4373   -5.0310 N.ar      1 <0>        -0.4288
      8 C6          0.8360   -1.5144   -4.6003 C.ar      1 <0>         0.2963
      9 C7          1.1491   -1.1685   -3.2692 C.ar      1 <0>         0.0642
     10 N3          2.2847   -1.1401   -2.5504 N.2       1 <0>        -0.4358
     11 C8          2.0279   -0.7287   -1.3319 C.2       1 <0>         0.3425
     12 C9          3.0324   -0.5655   -0.2583 C.2       1 <0>         0.1311
     13 C10         4.4724   -0.8253   -0.3802 C.2       1 <0>         0.3646
     14 N4          5.0335   -0.5707    0.7697 N.2       1 <0>        -0.3434
     15 O1          4.0212   -0.1472    1.6654 O.3       1 <0>         0.0494
     16 N5          2.7917   -0.1594    0.9619 N.2       1 <0>        -0.2485
     17 N6          5.1251   -1.2670   -1.5235 N.pl3     1 <0>        -0.7999
     18 C11         1.8718   -1.9500   -5.4881 C.1       1 <0>        -0.1208
     19 C12         2.7209   -2.3071   -6.2159 C.1       1 <0>        -0.0802
     20 C13         3.7856   -2.7549   -7.1284 C.3       1 <0>         0.2403
     21 C14         5.1250   -2.7540   -6.3888 C.3       1 <0>        -0.1769
     22 C15         3.4749   -4.1704   -7.6190 C.3       1 <0>        -0.1771
     23 O2          3.8585   -1.8683   -8.2468 O.3       1 <0>        -0.5533
     24 O3         -2.2219   -0.2814   -2.1476 O.3       1 <0>        -0.3053
     25 C16        -3.5183   -0.2475   -2.7478 C.3       1 <0>         0.0602
     26 C17        -4.5450    0.2275   -1.7176 C.3       1 <0>        -0.1100
     27 H1         -4.4926   -0.4065   -0.8325 H         1 <0>         0.1080
     28 C18        -4.2441    1.6772   -1.3267 C.3       1 <0>        -0.1348
     29 C19        -5.3219    2.1680   -0.3558 C.3       1 <0>        -0.1475
     30 C20        -6.6969    2.0173   -1.0100 C.3       1 <0>        -0.0100
     31 N7         -6.9357    0.6061   -1.3358 N.4       1 <0>        -0.5023
     32 C21        -5.9489    0.1476   -2.3210 C.3       1 <0>        -0.0035
     33 H2          1.0039    1.9031    0.0027 H         1 <0>         0.0658
     34 H3         -0.5459    1.8868   -0.8726 H         1 <0>         0.0628
     35 H4         -0.5289    1.8773    0.9072 H         1 <0>         0.0853
     36 H5          0.5293   -0.3651    0.8851 H         1 <0>         0.1095
     37 H6         -1.0205   -0.3814    0.0098 H         1 <0>         0.1024
     38 H7         -2.4085   -0.9976   -4.6543 H         1 <0>         0.1718
     39 H8          4.6220   -1.4309   -2.3365 H         1 <0>         0.4312
     40 H9          6.0842   -1.4116   -1.5092 H         1 <0>         0.4212
     41 H10         5.0694   -3.4303   -5.5357 H         1 <0>         0.0725
     42 H11         5.9134   -3.0856   -7.0645 H         1 <0>         0.0747
     43 H12         5.3464   -1.7456   -6.0392 H         1 <0>         0.0708
     44 H13         2.5207   -4.1710   -8.1459 H         1 <0>         0.0706
     45 H14         4.2633   -4.5020   -8.2948 H         1 <0>         0.0744
     46 H15         3.4193   -4.8466   -6.7660 H         1 <0>         0.0730
     47 H16         4.5403   -2.1031   -8.8910 H         1 <0>         0.3893
     48 H17        -3.5089    0.4388   -3.5945 H         1 <0>         0.0809
     49 H18        -3.7852   -1.2465   -3.0928 H         1 <0>         0.0809
     50 H19        -3.2679    1.7296   -0.8445 H         1 <0>         0.1002
     51 H20        -4.2451    2.3031   -2.2191 H         1 <0>         0.0849
     52 H21        -5.2864    1.5744    0.5577 H         1 <0>         0.0898
     53 H22        -5.1458    3.2167   -0.1163 H         1 <0>         0.1153
     54 H23        -7.4666    2.3660   -0.3215 H         1 <0>         0.1359
     55 H24        -6.7314    2.6114   -1.9232 H         1 <0>         0.1322
     56 H25        -6.8551    0.0502   -0.4977 H         1 <0>         0.4295
     57 H26        -5.9999    0.7811   -3.2066 H         1 <0>         0.1367
     58 H27        -6.1659   -0.8835   -2.6000 H         1 <0>         0.1389
     59 H28        -7.8638    0.5026   -1.7178 H         1 <0>         0.4360
@<TRIPOS>BOND
     1    1    2 1
     2    1   33 1
     3    1   34 1
     4    1   35 1
     5    2    3 1
     6    2   36 1
     7    2   37 1
     8    3   11 1
     9    3    4 1
    10    4    9 ar
    11    4    5 ar
    12    5    6 ar
    13    5   24 1
    14    6    7 ar
    15    6   38 1
    16    7    8 ar
    17    8    9 ar
    18    8   18 1
    19    9   10 1
    20   10   11 2
    21   11   12 1
    22   12   16 2
    23   12   13 1
    24   13   14 2
    25   13   17 1
    26   14   15 1
    27   15   16 1
    28   17   39 1
    29   17   40 1
    30   18   19 3
    31   19   20 1
    32   20   21 1
    33   20   22 1
    34   20   23 1
    35   21   41 1
    36   21   42 1
    37   21   43 1
    38   22   44 1
    39   22   45 1
    40   22   46 1
    41   23   47 1
    42   24   25 1
    43   25   26 1
    44   25   48 1
    45   25   49 1
    46   26   27 1
    47   26   32 1
    48   26   28 1
    49   28   29 1
    50   28   50 1
    51   28   51 1
    52   29   30 1
    53   29   52 1
    54   29   53 1
    55   30   31 1
    56   30   54 1
    57   30   55 1
    58   31   32 1
    59   31   56 1
    60   31   59 1
    61   32   57 1
    62   32   58 1
@<TRIPOS>MOLECULE
ZINC34894468
   59    62     0     0     0
SMALL
USER_CHARGES

@<TRIPOS>ATOM
      1 C1         -0.0187    1.5258    0.0104 C.3       1 <0>        -0.1654
      2 C2          0.0021   -0.0041    0.0020 C.3       1 <0>         0.0997
      3 N1          0.6878   -0.4765   -1.2033 N.pl3     1 <0>        -0.4456
      4 C3          0.1084   -0.7452   -2.4220 C.ar      1 <0>         0.0734
      5 C4         -1.1885   -0.6848   -2.9333 C.ar      1 <0>         0.0979
      6 C5         -1.4068   -1.0423   -4.2530 C.ar      1 <0>         0.0255
      7 N2         -0.4156   -1.4373   -5.0310 N.ar      1 <0>        -0.4288
      8 C6          0.8360   -1.5144   -4.6003 C.ar      1 <0>         0.2963
      9 C7          1.1491   -1.1685   -3.2692 C.ar      1 <0>         0.0642
     10 N3          2.2847   -1.1401   -2.5504 N.2       1 <0>        -0.4357
     11 C8          2.0279   -0.7287   -1.3319 C.2       1 <0>         0.3425
     12 C9          3.0324   -0.5655   -0.2583 C.2       1 <0>         0.1311
     13 C10         4.4724   -0.8253   -0.3802 C.2       1 <0>         0.3646
     14 N4          5.0335   -0.5707    0.7697 N.2       1 <0>        -0.3434
     15 O1          4.0212   -0.1472    1.6654 O.3       1 <0>         0.0494
     16 N5          2.7917   -0.1594    0.9619 N.2       1 <0>        -0.2485
     17 N6          5.1251   -1.2670   -1.5235 N.pl3     1 <0>        -0.7999
     18 C11         1.8718   -1.9500   -5.4881 C.1       1 <0>        -0.1207
     19 C12         2.7209   -2.3071   -6.2159 C.1       1 <0>        -0.0802
     20 C13         3.7856   -2.7549   -7.1284 C.3       1 <0>         0.2403
     21 C14         5.1250   -2.7540   -6.3888 C.3       1 <0>        -0.1769
     22 C15         3.4749   -4.1704   -7.6190 C.3       1 <0>        -0.1771
     23 O2          3.8585   -1.8683   -8.2468 O.3       1 <0>        -0.5533
     24 O3         -2.2219   -0.2814   -2.1476 O.3       1 <0>        -0.3053
     25 C16        -3.5183   -0.2475   -2.7478 C.3       1 <0>         0.0602
     26 C17        -4.5450    0.2275   -1.7176 C.3       1 <0>        -0.1101
     27 H1         -4.2313    1.1872   -1.3070 H         1 <0>         0.1084
     28 C18        -4.6505   -0.8019   -0.5887 C.3       1 <0>        -0.1341
     29 C19        -5.7357   -0.3560    0.3956 C.3       1 <0>        -0.1476
     30 C20        -7.0574   -0.1814   -0.3555 C.3       1 <0>        -0.0100
     31 N7         -6.8984    0.8337   -1.4036 N.4       1 <0>        -0.5022
     32 C21        -5.9106    0.3814   -2.3906 C.3       1 <0>        -0.0035
     33 H2          1.0039    1.9031    0.0027 H         1 <0>         0.0656
     34 H3         -0.5459    1.8868   -0.8726 H         1 <0>         0.0629
     35 H4         -0.5289    1.8773    0.9072 H         1 <0>         0.0853
     36 H5          0.5293   -0.3651    0.8851 H         1 <0>         0.1094
     37 H6         -1.0205   -0.3814    0.0098 H         1 <0>         0.1017
     38 H7         -2.4085   -0.9976   -4.6543 H         1 <0>         0.1718
     39 H8          4.6220   -1.4309   -2.3365 H         1 <0>         0.4312
     40 H9          6.0842   -1.4116   -1.5092 H         1 <0>         0.4212
     41 H10         5.0694   -3.4303   -5.5357 H         1 <0>         0.0725
     42 H11         5.9134   -3.0856   -7.0645 H         1 <0>         0.0747
     43 H12         5.3464   -1.7456   -6.0392 H         1 <0>         0.0708
     44 H13         2.5207   -4.1710   -8.1459 H         1 <0>         0.0706
     45 H14         4.2633   -4.5020   -8.2948 H         1 <0>         0.0744
     46 H15         3.4193   -4.8466   -6.7660 H         1 <0>         0.0730
     47 H16         4.5403   -2.1031   -8.8910 H         1 <0>         0.3893
     48 H17        -3.5089    0.4388   -3.5945 H         1 <0>         0.0810
     49 H18        -3.7852   -1.2465   -3.0928 H         1 <0>         0.0808
     50 H19        -4.9136   -1.7741   -1.0053 H         1 <0>         0.0850
     51 H20        -3.6947   -0.8730   -0.0697 H         1 <0>         0.0989
     52 H21        -5.8554   -1.1114    1.1722 H         1 <0>         0.1153
     53 H22        -5.4475    0.5918    0.8502 H         1 <0>         0.0899
     54 H23        -7.3448   -1.1298   -0.8094 H         1 <0>         0.1322
     55 H24        -7.8322    0.1358    0.3424 H         1 <0>         0.1359
     56 H25        -7.7848    0.9849   -1.8613 H         1 <0>         0.4361
     57 H26        -5.8384    1.1139   -3.1947 H         1 <0>         0.1390
     58 H27        -6.2228   -0.5785   -2.8018 H         1 <0>         0.1366
     59 H28        -6.5849    1.6982   -0.9883 H         1 <0>         0.4295
@<TRIPOS>BOND
     1    1    2 1
     2    1   33 1
     3    1   34 1
     4    1   35 1
     5    2    3 1
     6    2   36 1
     7    2   37 1
     8    3   11 1
     9    3    4 1
    10    4    9 ar
    11    4    5 ar
    12    5    6 ar
    13    5   24 1
    14    6    7 ar
    15    6   38 1
    16    7    8 ar
    17    8    9 ar
    18    8   18 1
    19    9   10 1
    20   10   11 2
    21   11   12 1
    22   12   16 2
    23   12   13 1
    24   13   14 2
    25   13   17 1
    26   14   15 1
    27   15   16 1
    28   17   39 1
    29   17   40 1
    30   18   19 3
    31   19   20 1
    32   20   21 1
    33   20   22 1
    34   20   23 1
    35   21   41 1
    36   21   42 1
    37   21   43 1
    38   22   44 1
    39   22   45 1
    40   22   46 1
    41   23   47 1
    42   24   25 1
    43   25   26 1
    44   25   48 1
    45   25   49 1
    46   26   27 1
    47   26   32 1
    48   26   28 1
    49   28   29 1
    50   28   50 1
    51   28   51 1
    52   29   30 1
    53   29   52 1
    54   29   53 1
    55   30   31 1
    56   30   54 1
    57   30   55 1
    58   31   32 1
    59   31   56 1
    60   31   59 1
    61   32   57 1
    62   32   58 1
@<TRIPOS>MOLECULE
ZINC03964325
   57    59     0     0     0
SMALL
USER_CHARGES

@<TRIPOS>ATOM
      1 C1          0.1489    2.0884    0.1150 C.3       1 <0>        -0.1876
      2 C2          0.1348    0.5603    0.1888 C.3       1 <0>        -0.0191
      3 N1         -1.2520    0.0881    0.2979 N.4       1 <0>        -0.3822
      4 C3         -1.9779    0.4111   -0.9377 C.3       1 <0>        -0.0142
      5 C4         -3.4549    0.0484   -0.7712 C.3       1 <0>        -0.1895
      6 C5         -1.2593   -1.3663    0.5041 C.3       1 <0>        -0.0265
      7 C6         -0.6131   -1.6936    1.8518 C.3       1 <0>         0.0952
      8 N2         -0.6203   -3.1440    2.0575 N.am      1 <0>        -0.7289
      9 C7         -0.0988   -3.6675    3.1846 C.2       1 <0>         0.6111
     10 O1          0.3779   -2.9358    4.0309 O.2       1 <0>        -0.5184
     11 C8         -0.1061   -5.1270    3.3915 C.2       1 <0>        -0.2420
     12 C9          0.9071   -6.0320    3.0089 C.2       1 <0>        -0.0577
     13 C10         0.4868   -7.2892    3.3960 C.2       1 <0>        -0.0075
     14 N3         -0.7476   -7.1595    3.9982 N.pl3     1 <0>        -0.4910
     15 H1         -1.2731   -7.8879    4.3645 H         1 <0>         0.4270
     16 C11        -1.1044   -5.8642    4.0022 C.2       1 <0>         0.1158
     17 C12        -2.3825   -5.3072    4.5743 C.3       1 <0>        -0.0999
     18 C13         1.1957   -8.4957    3.2079 C.2       1 <0>         0.0729
     19 C14         0.5100   -9.6674    2.9570 C.2       1 <0>        -0.1889
     20 C15         1.0648  -11.0377    2.8871 C.ar      1 <0>        -0.0736
     21 C16         2.3472  -11.5557    3.0375 C.ar      1 <0>        -0.1000
     22 C17         2.5553  -12.9162    2.9116 C.ar      1 <0>         0.0861
     23 C18         1.4888  -13.7593    2.6366 C.ar      1 <0>        -0.1139
     24 C19         0.2139  -13.2531    2.4856 C.ar      1 <0>        -0.1021
     25 C20        -0.0144  -11.8871    2.6092 C.ar      1 <0>         0.1282
     26 N4         -1.1765  -11.1301    2.5069 N.am      1 <0>        -0.6466
     27 C21        -0.9294   -9.8245    2.7079 C.2       1 <0>         0.5595
     28 O2         -1.7538   -8.9280    2.6842 O.2       1 <0>        -0.5156
     29 F1          3.7984  -13.4252    3.0561 F         1 <0>        -0.1318
     30 C22         2.1990   -5.6919    2.3116 C.3       1 <0>        -0.0931
     31 H2          1.1793    2.4435    0.1331 H         1 <0>         0.1076
     32 H3         -0.3308    2.4121   -0.8087 H         1 <0>         0.0811
     33 H4         -0.3916    2.4984    0.9682 H         1 <0>         0.0809
     34 H5          0.5888    0.1488   -0.7126 H         1 <0>         0.1317
     35 H6          0.6996    0.2334    1.0619 H         1 <0>         0.1337
     36 H7         -1.8867    1.4775   -1.1444 H         1 <0>         0.1351
     37 H8         -1.5554   -0.1571   -1.7664 H         1 <0>         0.1307
     38 H9         -3.5537   -1.0316   -0.6617 H         1 <0>         0.0802
     39 H10        -3.8523    0.5414    0.1160 H         1 <0>         0.0808
     40 H11        -4.0109    0.3769   -1.6492 H         1 <0>         0.1074
     41 H12        -2.2871   -1.7292    0.4963 H         1 <0>         0.1397
     42 H13        -0.6973   -1.8494   -0.2952 H         1 <0>         0.1376
     43 H14         0.4147   -1.3306    1.8596 H         1 <0>         0.0893
     44 H15        -1.1751   -1.2105    2.6511 H         1 <0>         0.0890
     45 H16        -1.0005   -3.7277    1.3824 H         1 <0>         0.4099
     46 H17        -3.1529   -5.3000    3.8032 H         1 <0>         0.0840
     47 H18        -2.7087   -5.9289    5.4080 H         1 <0>         0.0782
     48 H19        -2.2103   -4.2898    4.9254 H         1 <0>         0.0840
     49 H20         2.2744   -8.5020    3.2604 H         1 <0>         0.1589
     50 H21         3.1765  -10.8977    3.2512 H         1 <0>         0.1436
     51 H22         1.6578  -14.8215    2.5394 H         1 <0>         0.1485
     52 H23        -0.6084  -13.9196    2.2712 H         1 <0>         0.1415
     53 H24        -2.0541  -11.4980    2.3189 H         1 <0>         0.4217
     54 H25         2.9686   -5.4822    3.0545 H         1 <0>         0.0785
     55 H26         2.5107   -6.5337    1.6932 H         1 <0>         0.0726
     56 H27         2.0522   -4.8138    1.6827 H         1 <0>         0.0634
     57 H28        -1.7009    0.5410    1.0799 H         1 <0>         0.4247
@<TRIPOS>BOND
     1    1    2 1
     2    1   31 1
     3    1   32 1
     4    1   33 1
     5    2    3 1
     6    2   34 1
     7    2   35 1
     8    3    4 1
     9    3    6 1
    10    3   57 1
    11    4    5 1
    12    4   36 1
    13    4   37 1
    14    5   38 1
    15    5   39 1
    16    5   40 1
    17    6    7 1
    18    6   41 1
    19    6   42 1
    20    7    8 1
    21    7   43 1
    22    7   44 1
    23    8    9 am
    24    8   45 1
    25    9   10 2
    26    9   11 1
    27   11   16 2
    28   11   12 1
    29   12   13 2
    30   12   30 1
    31   13   14 1
    32   13   18 1
    33   14   15 1
    34   14   16 1
    35   16   17 1
    36   17   46 1
    37   17   47 1
    38   17   48 1
    39   18   19 2
    40   18   49 1
    41   19   27 1
    42   19   20 1
    43   20   25 ar
    44   20   21 ar
    45   21   22 ar
    46   21   50 1
    47   22   23 ar
    48   22   29 1
    49   23   24 ar
    50   23   51 1
    51   24   25 ar
    52   24   52 1
    53   25   26 1
    54   26   27 am
    55   26   53 1
    56   27   28 2
    57   30   54 1
    58   30   55 1
    59   30   56 1
@<TRIPOS>MOLECULE
ZINC38209104
   52    56     0     0     0
SMALL
USER_CHARGES

@<TRIPOS>ATOM
      1 C1          4.3756   -1.1001   -4.7585 C.ar      1 <0>        -0.1220
      2 C2          5.6960   -1.2061   -4.3624 C.ar      1 <0>        -0.1206
      3 C3          5.9991   -1.7492   -3.1310 C.ar      1 <0>        -0.1126
      4 C4          4.9884   -2.1865   -2.2855 C.ar      1 <0>        -0.0837
      5 C5          3.6727   -2.0727   -2.6744 C.ar      1 <0>        -0.0766
      6 C6          3.3707   -1.5323   -3.9186 C.ar      1 <0>        -0.1197
      7 C7          2.5226   -2.4967   -1.7994 C.3       1 <0>        -0.0948
      8 C8          2.9886   -3.4797   -0.7267 C.3       1 <0>         0.1072
      9 N1          4.2054   -2.9303   -0.1063 N.am      1 <0>        -0.5979
     10 C9          5.3893   -2.7833   -0.9598 C.3       1 <0>         0.1090
     11 C10         4.2306   -2.5764    1.1940 C.2       1 <0>         0.5313
     12 O1          3.2208   -2.6486    1.8617 O.2       1 <0>        -0.5373
     13 C11         5.5136   -2.0911    1.8181 C.3       1 <0>         0.1113
     14 C12         5.2197   -1.5144    3.2048 C.3       1 <0>        -0.1487
     15 C13         6.5204   -0.9907    3.8218 C.3       1 <0>         0.1505
     16 N2          7.5152   -2.0720    3.8164 N.pl3     1 <0>        -0.6593
     17 C14         7.8073   -2.7569    2.5498 C.3       1 <0>         0.1520
     18 C15         6.4921   -3.2607    1.9470 C.3       1 <0>        -0.1253
     19 C16         8.1648   -2.4378    4.9815 C.ar      1 <0>         0.4788
     20 C17         9.3996   -1.8669    5.3264 C.ar      1 <0>        -0.2077
     21 C18        10.2883   -0.8771    4.7207 C.2       1 <0>        -0.1660
     22 C19        11.3421   -0.7465    5.5430 C.2       1 <0>         0.0554
     23 N3         11.1929   -1.5760    6.6243 N.pl3     1 <0>        -0.5735
     24 H1         11.8261   -1.6569    7.3548 H         1 <0>         0.4236
     25 C20        10.0200   -2.2721    6.5224 C.ar      1 <0>         0.3194
     26 N4          9.4097   -3.1828    7.2795 N.ar      1 <0>        -0.5357
     27 C21         8.2525   -3.6918    6.9165 C.ar      1 <0>         0.3276
     28 N5          7.6325   -3.3352    5.8057 N.ar      1 <0>        -0.5487
     29 N6          6.1064   -1.0483    0.9702 N.3       1 <0>        -0.8249
     30 H2          4.1315   -0.6759   -5.7213 H         1 <0>         0.1205
     31 H3          6.4868   -0.8655   -5.0144 H         1 <0>         0.1219
     32 H4          7.0305   -1.8353   -2.8225 H         1 <0>         0.1237
     33 H5          2.3400   -1.4497   -4.2304 H         1 <0>         0.1190
     34 H6          2.0951   -1.6171   -1.3182 H         1 <0>         0.0785
     35 H7          1.7602   -2.9733   -2.4156 H         1 <0>         0.0843
     36 H8          2.2111   -3.5978    0.0280 H         1 <0>         0.0957
     37 H9          3.2106   -4.4447   -1.1824 H         1 <0>         0.0730
     38 H10         5.8416   -3.7613   -1.1243 H         1 <0>         0.0666
     39 H11         6.1103   -2.1285   -0.4704 H         1 <0>         0.1636
     40 H12         4.5048   -0.6966    3.1147 H         1 <0>         0.0762
     41 H13         4.8028   -2.2941    3.8423 H         1 <0>         0.0861
     42 H14         6.8909   -0.1504    3.2348 H         1 <0>         0.0579
     43 H15         6.3353   -0.6697    4.8469 H         1 <0>         0.0748
     44 H16         8.2827   -2.0605    1.8590 H         1 <0>         0.0673
     45 H17         8.4712   -3.6011    2.7355 H         1 <0>         0.0745
     46 H18         6.0632   -4.0240    2.5963 H         1 <0>         0.0795
     47 H19         6.6828   -3.6859    0.9617 H         1 <0>         0.0845
     48 H20        10.1284   -0.3519    3.7906 H         1 <0>         0.1540
     49 H21        12.1814   -0.0874    5.3770 H         1 <0>         0.1835
     50 H22         7.7876   -4.4281    7.5553 H         1 <0>         0.2002
     51 H23         5.4598   -0.2869    0.8281 H         1 <0>         0.3508
     52 H24         6.9759   -0.7163    1.3600 H         1 <0>         0.3525
@<TRIPOS>BOND
     1    1    6 ar
     2    1    2 ar
     3    1   30 1
     4    2    3 ar
     5    2   31 1
     6    3    4 ar
     7    3   32 1
     8    4   10 1
     9    4    5 ar
    10    5    6 ar
    11    5    7 1
    12    6   33 1
    13    7    8 1
    14    7   34 1
    15    7   35 1
    16    8    9 1
    17    8   36 1
    18    8   37 1
    19    9   10 1
    20    9   11 am
    21   10   38 1
    22   10   39 1
    23   11   12 2
    24   11   13 1
    25   13   18 1
    26   13   14 1
    27   13   29 1
    28   14   15 1
    29   14   40 1
    30   14   41 1
    31   15   16 1
    32   15   42 1
    33   15   43 1
    34   16   17 1
    35   16   19 1
    36   17   18 1
    37   17   44 1
    38   17   45 1
    39   18   46 1
    40   18   47 1
    41   19   28 ar
    42   19   20 ar
    43   20   25 ar
    44   20   21 1
    45   21   22 2
    46   21   48 1
    47   22   23 1
    48   22   49 1
    49   23   24 1
    50   23   25 1
    51   25   26 ar
    52   26   27 ar
    53   27   28 ar
    54   27   50 1
    55   29   51 1
    56   29   52 1
@<TRIPOS>MOLECULE
ZINC45367007
   46    49     0     0     0
SMALL
USER_CHARGES

@<TRIPOS>ATOM
      1 C1         -0.0167    1.3782    0.0096 C.ar      1 <0>        -0.1300
      2 C2          1.1706    2.0858    0.0021 C.ar      1 <0>        -0.0996
      3 C3          2.3780    1.4104   -0.0130 C.ar      1 <0>        -0.0249
      4 C4          2.3961    0.0270   -0.0206 C.ar      1 <0>        -0.0974
      5 C5          1.2082   -0.6795   -0.0130 C.ar      1 <0>        -0.0922
      6 C6          0.0021   -0.0041    0.0020 C.ar      1 <0>        -0.1239
      7 C7         -1.2928   -0.7750    0.0107 C.3       1 <0>        -0.0978
      8 C8         -1.7453   -1.0281   -1.4288 C.3       1 <0>         0.0700
      9 C9         -0.7343   -1.9396   -2.1282 C.3       1 <0>        -0.1558
     10 C10        -0.6229   -3.2585   -1.3570 C.3       1 <0>         0.1480
     11 N1         -1.9650   -3.8402   -1.2186 N.pl3     1 <0>        -0.6677
     12 C11        -3.0359   -3.0165   -0.6411 C.3       1 <0>         0.1475
     13 C12        -3.1202   -1.7002   -1.4203 C.3       1 <0>        -0.1511
     14 C13        -2.2170   -5.1450   -1.6268 C.ar      1 <0>         0.2428
     15 C14        -2.0692   -6.2132   -0.7476 C.ar      1 <0>        -0.2021
     16 C15        -2.3295   -7.4967   -1.1920 C.ar      1 <0>         0.1490
     17 N2         -2.7144   -7.7353   -2.4290 N.ar      1 <0>        -0.4955
     18 C16        -2.8734   -6.7581   -3.3147 C.ar      1 <0>         0.2925
     19 C17        -2.6343   -5.4258   -2.9373 C.ar      1 <0>        -0.1573
     20 C18        -2.9039   -4.6088   -4.1212 C.2       1 <0>        -0.2004
     21 C19        -3.2782   -5.4503   -5.0976 C.2       1 <0>         0.0723
     22 N3         -3.2561   -6.7396   -4.6340 N.pl3     1 <0>        -0.5807
     23 H1         -3.4879   -7.5229   -5.1571 H         1 <0>         0.4246
     24 N4         -1.8300    0.2505   -2.1472 N.4       1 <0>        -0.6367
     25 Cl1         3.8696    2.2984   -0.0231 Cl        1 <0>        -0.0436
     26 H2         -0.9592    1.9053    0.0259 H         1 <0>         0.1333
     27 H3          1.1558    3.1656    0.0076 H         1 <0>         0.1431
     28 H4          3.3383   -0.5007   -0.0327 H         1 <0>         0.1440
     29 H5          1.2222   -1.7594   -0.0193 H         1 <0>         0.1399
     30 H6         -1.1447   -1.7283    0.5180 H         1 <0>         0.1258
     31 H7         -2.0551   -0.1989    0.5352 H         1 <0>         0.1027
     32 H8         -1.0687   -2.1404   -3.1460 H         1 <0>         0.0940
     33 H9          0.2394   -1.4502   -2.1546 H         1 <0>         0.0963
     34 H10         0.0197   -3.9485   -1.9039 H         1 <0>         0.0912
     35 H11        -0.2028   -3.0698   -0.3691 H         1 <0>         0.0673
     36 H12        -3.9853   -3.5467   -0.7156 H         1 <0>         0.0917
     37 H13        -2.8125   -2.8080    0.4052 H         1 <0>         0.0691
     38 H14        -3.8447   -1.0406   -0.9429 H         1 <0>         0.0967
     39 H15        -3.4322   -1.9033   -2.4448 H         1 <0>         0.0946
     40 H16        -1.7540   -6.0419    0.2711 H         1 <0>         0.1389
     41 H17        -2.2141   -8.3242   -0.5078 H         1 <0>         0.1658
     42 H18        -2.8187   -3.5347   -4.1949 H         1 <0>         0.1394
     43 H19        -3.5471   -5.1561   -6.1014 H         1 <0>         0.1788
     44 H20        -0.9237    0.6940   -2.1525 H         1 <0>         0.4313
     45 H21        -2.1284    0.0837   -3.0965 H         1 <0>         0.4338
     46 H22        -2.4961    0.8519   -1.6860 H         1 <0>         0.4323
@<TRIPOS>BOND
     1    1    6 ar
     2    1    2 ar
     3    1   26 1
     4    2    3 ar
     5    2   27 1
     6    3    4 ar
     7    3   25 1
     8    4    5 ar
     9    4   28 1
    10    5    6 ar
    11    5   29 1
    12    6    7 1
    13    7    8 1
    14    7   30 1
    15    7   31 1
    16    8   13 1
    17    8    9 1
    18    8   24 1
    19    9   10 1
    20    9   32 1
    21    9   33 1
    22   10   11 1
    23   10   34 1
    24   10   35 1
    25   11   12 1
    26   11   14 1
    27   12   13 1
    28   12   36 1
    29   12   37 1
    30   13   38 1
    31   13   39 1
    32   14   19 ar
    33   14   15 ar
    34   15   16 ar
    35   15   40 1
    36   16   17 ar
    37   16   41 1
    38   17   18 ar
    39   18   22 1
    40   18   19 ar
    41   19   20 1
    42   20   21 2
    43   20   42 1
    44   21   22 1
    45   21   43 1
    46   22   23 1
    47   24   44 1
    48   24   45 1
    49   24   46 1
@<TRIPOS>MOLECULE
ZINC45364925
   49    52     0     0     0
SMALL
USER_CHARGES

@<TRIPOS>ATOM
      1 C1         -0.4026    1.8011   -0.1866 C.ar      1 <0>        -0.0668
      2 C2          0.6822    2.6547   -0.2527 C.ar      1 <0>        -0.1539
      3 C3          1.9672    2.1397   -0.2774 C.ar      1 <0>         0.1217
      4 C4          2.1638    0.7698   -0.2358 C.ar      1 <0>        -0.1552
      5 C5          1.0774   -0.0819   -0.1696 C.ar      1 <0>        -0.0700
      6 C6         -0.2051    0.4335   -0.1450 C.ar      1 <0>        -0.1418
      7 C7         -1.3889   -0.4963   -0.0728 C.3       1 <0>         0.1635
      8 N1         -1.8185   -0.8462   -1.4290 N.am      1 <0>        -0.7222
      9 C8         -2.8675   -1.6724   -1.6115 C.2       1 <0>         0.5029
     10 O1         -3.4559   -2.1262   -0.6530 O.2       1 <0>        -0.4628
     11 C9         -3.3094   -2.0323   -3.0066 C.3       1 <0>         0.0486
     12 C10        -4.1742   -0.9045   -3.5744 C.3       1 <0>        -0.1515
     13 C11        -5.3861   -0.6874   -2.6629 C.3       1 <0>         0.1539
     14 N2         -6.0917   -1.9660   -2.5016 N.pl3     1 <0>        -0.6530
     15 C12        -5.3328   -3.1392   -2.0472 C.3       1 <0>         0.1333
     16 C13        -4.1215   -3.3288   -2.9657 C.3       1 <0>        -0.1391
     17 C14        -7.4447   -2.0633   -2.7720 C.ar      1 <0>         0.4631
     18 C15        -8.3975   -1.8304   -1.7683 C.ar      1 <0>        -0.2034
     19 C16        -8.3436   -1.4714   -0.3524 C.2       1 <0>        -0.1726
     20 C17        -9.6139   -1.3899    0.0761 C.2       1 <0>         0.0668
     21 N3        -10.4713   -1.6689   -0.9566 N.pl3     1 <0>        -0.5704
     22 H1        -11.4390   -1.6722   -0.8907 H         1 <0>         0.4276
     23 C18        -9.7617   -1.9414   -2.0938 C.ar      1 <0>         0.3221
     24 N4        -10.0940   -2.2640   -3.3429 N.ar      1 <0>        -0.5256
     25 C19        -9.1668   -2.4742   -4.2518 C.ar      1 <0>         0.3266
     26 N5         -7.8756   -2.3744   -3.9908 N.ar      1 <0>        -0.5515
     27 N6         -2.1291   -2.2209   -3.8605 N.4       1 <0>        -0.6331
     28 F1          3.0285    2.9732   -0.3426 F         1 <0>        -0.1296
     29 H2         -1.4048    2.2027   -0.1628 H         1 <0>         0.1369
     30 H3          0.5277    3.7231   -0.2856 H         1 <0>         0.1432
     31 H4          3.1656    0.3669   -0.2553 H         1 <0>         0.1426
     32 H5          1.2305   -1.1505   -0.1375 H         1 <0>         0.1355
     33 H6         -1.1072   -1.4021    0.4641 H         1 <0>         0.0919
     34 H7         -2.2071   -0.0027    0.4515 H         1 <0>         0.0920
     35 H8         -1.3479   -0.4832   -2.1956 H         1 <0>         0.3938
     36 H9         -3.5880    0.0131   -3.6251 H         1 <0>         0.0997
     37 H10        -4.5145   -1.1750   -4.5739 H         1 <0>         0.1113
     38 H11        -5.0516   -0.3293   -1.6892 H         1 <0>         0.0707
     39 H12        -6.0557    0.0452   -3.1136 H         1 <0>         0.0933
     40 H13        -4.9939   -2.9811   -1.0234 H         1 <0>         0.1152
     41 H14        -5.9672   -4.0244   -2.0917 H         1 <0>         0.0849
     42 H15        -4.4623   -3.5765   -3.9709 H         1 <0>         0.1033
     43 H16        -3.4978   -4.1368   -2.5831 H         1 <0>         0.1001
     44 H17        -7.4536   -1.3043    0.2361 H         1 <0>         0.1546
     45 H18        -9.9148   -1.1423    1.0834 H         1 <0>         0.1869
     46 H19        -9.4738   -2.7343   -5.2540 H         1 <0>         0.2027
     47 H20        -1.5584   -2.9640   -3.4861 H         1 <0>         0.4395
     48 H21        -2.4247   -2.4618   -4.7946 H         1 <0>         0.4444
     49 H22        -1.5933   -1.3663   -3.8872 H         1 <0>         0.4298
@<TRIPOS>BOND
     1    1    6 ar
     2    1    2 ar
     3    1   29 1
     4    2    3 ar
     5    2   30 1
     6    3    4 ar
     7    3   28 1
     8    4    5 ar
     9    4   31 1
    10    5    6 ar
    11    5   32 1
    12    6    7 1
    13    7    8 1
    14    7   33 1
    15    7   34 1
    16    8    9 am
    17    8   35 1
    18    9   10 2
    19    9   11 1
    20   11   16 1
    21   11   12 1
    22   11   27 1
    23   12   13 1
    24   12   36 1
    25   12   37 1
    26   13   14 1
    27   13   38 1
    28   13   39 1
    29   14   15 1
    30   14   17 1
    31   15   16 1
    32   15   40 1
    33   15   41 1
    34   16   42 1
    35   16   43 1
    36   17   26 ar
    37   17   18 ar
    38   18   23 ar
    39   18   19 1
    40   19   20 2
    41   19   44 1
    42   20   21 1
    43   20   45 1
    44   21   22 1
    45   21   23 1
    46   23   24 ar
    47   24   25 ar
    48   25   26 ar
    49   25   46 1
    50   27   47 1
    51   27   48 1
    52   27   49 1
@<TRIPOS>MOLECULE
ZINC45356794
   57    60     0     0     0
SMALL
USER_CHARGES

@<TRIPOS>ATOM
      1 C1         -0.3143    1.7546   -0.3203 C.3       1 <0>        -0.1412
      2 C2         -0.2327    0.2303   -0.2179 C.3       1 <0>        -0.0364
      3 C3          0.4834   -0.1562    1.0778 C.3       1 <0>        -0.1431
      4 C4         -1.6455   -0.3570   -0.2145 C.3       1 <0>        -0.1486
      5 C5          0.5339   -0.3121   -1.3965 C.ar      1 <0>        -0.0470
      6 C6         -0.0735   -1.1962   -2.2685 C.ar      1 <0>        -0.1113
      7 C7          0.6298   -1.6937   -3.3496 C.ar      1 <0>        -0.1388
      8 C8          1.9402   -1.3068   -3.5590 C.ar      1 <0>        -0.1332
      9 C9          2.5473   -0.4220   -2.6875 C.ar      1 <0>        -0.1016
     10 C10         1.8428    0.0788   -1.6088 C.ar      1 <0>        -0.1034
     11 C11         2.7072   -1.8500   -4.7371 C.3       1 <0>        -0.0962
     12 C12         2.5113   -0.9278   -5.9421 C.3       1 <0>         0.0708
     13 C13         3.1351    0.4379   -5.6458 C.3       1 <0>        -0.1549
     14 C14         4.6253    0.2585   -5.3393 C.3       1 <0>         0.1532
     15 N1          5.2539   -0.4628   -6.4543 N.pl3     1 <0>        -0.6554
     16 C15         4.6771   -1.7450   -6.8809 C.3       1 <0>         0.1523
     17 C16         3.1863   -1.5432   -7.1701 C.3       1 <0>        -0.1516
     18 C17         6.3673    0.0556   -7.0906 C.ar      1 <0>         0.4625
     19 C18         7.6610   -0.2561   -6.6446 C.ar      1 <0>        -0.2037
     20 C19         8.2164   -1.0733   -5.5675 C.2       1 <0>        -0.1754
     21 C20         9.5529   -0.9738   -5.6543 C.2       1 <0>         0.0686
     22 N2          9.8908   -0.1573   -6.7024 N.pl3     1 <0>        -0.5703
     23 H1         10.7979    0.0657   -6.9638 H         1 <0>         0.4279
     24 C21         8.7611    0.2961   -7.3260 C.ar      1 <0>         0.3221
     25 N3          8.5297    1.0939   -8.3677 N.ar      1 <0>        -0.5252
     26 C22         7.2997    1.3592   -8.7505 C.ar      1 <0>         0.3275
     27 N4          6.2390    0.8573   -8.1436 N.ar      1 <0>        -0.5497
     28 N5          1.0753   -0.7632   -6.2041 N.4       1 <0>        -0.6354
     29 H2          0.6923    2.1730   -0.3227 H         1 <0>         0.0584
     30 H3         -0.8244    2.0300   -1.2434 H         1 <0>         0.0559
     31 H4         -0.8687    2.1469    0.5322 H         1 <0>         0.0660
     32 H5         -0.0711    0.2361    1.9303 H         1 <0>         0.0659
     33 H6          0.5415   -1.2422    1.1508 H         1 <0>         0.0584
     34 H7          1.4899    0.2622    1.0754 H         1 <0>         0.0586
     35 H8         -2.1556   -0.0817   -1.1375 H         1 <0>         0.0584
     36 H9         -1.5874   -1.4430   -0.1415 H         1 <0>         0.0602
     37 H10        -2.2000    0.0353    0.6380 H         1 <0>         0.0657
     38 H11        -1.0973   -1.4985   -2.1048 H         1 <0>         0.1353
     39 H12         0.1554   -2.3850   -4.0304 H         1 <0>         0.1219
     40 H13         3.5713   -0.1200   -2.8510 H         1 <0>         0.1288
     41 H14         2.3159    0.7730   -0.9301 H         1 <0>         0.1302
     42 H15         3.7670   -1.9020   -4.4879 H         1 <0>         0.1220
     43 H16         2.3416   -2.8477   -4.9799 H         1 <0>         0.0992
     44 H17         3.0177    1.0875   -6.5132 H         1 <0>         0.0956
     45 H18         2.6380    0.8859   -4.7853 H         1 <0>         0.0977
     46 H19         5.0950    1.2354   -5.2249 H         1 <0>         0.0888
     47 H20         4.7428   -0.3155   -4.4202 H         1 <0>         0.0726
     48 H21         5.1810   -2.0901   -7.7837 H         1 <0>         0.0897
     49 H22         4.7988   -2.4825   -6.0875 H         1 <0>         0.0739
     50 H23         2.7257   -2.5052   -7.3946 H         1 <0>         0.0969
     51 H24         3.0684   -0.8750   -8.0231 H         1 <0>         0.0970
     52 H25         7.6591   -1.6465   -4.8413 H         1 <0>         0.1539
     53 H26        10.2560   -1.4632   -4.9966 H         1 <0>         0.1869
     54 H27         7.1508    2.0104   -9.5991 H         1 <0>         0.2028
     55 H28         0.6300   -0.3579   -5.3945 H         1 <0>         0.4319
     56 H29         0.9459   -0.1550   -6.9988 H         1 <0>         0.4336
     57 H30         0.6635   -1.6635   -6.3990 H         1 <0>         0.4316
@<TRIPOS>BOND
     1    1    2 1
     2    1   29 1
     3    1   30 1
     4    1   31 1
     5    2    3 1
     6    2    4 1
     7    2    5 1
     8    3   32 1
     9    3   33 1
    10    3   34 1
    11    4   35 1
    12    4   36 1
    13    4   37 1
    14    5   10 ar
    15    5    6 ar
    16    6    7 ar
    17    6   38 1
    18    7    8 ar
    19    7   39 1
    20    8    9 ar
    21    8   11 1
    22    9   10 ar
    23    9   40 1
    24   10   41 1
    25   11   12 1
    26   11   42 1
    27   11   43 1
    28   12   17 1
    29   12   13 1
    30   12   28 1
    31   13   14 1
    32   13   44 1
    33   13   45 1
    34   14   15 1
    35   14   46 1
    36   14   47 1
    37   15   16 1
    38   15   18 1
    39   16   17 1
    40   16   48 1
    41   16   49 1
    42   17   50 1
    43   17   51 1
    44   18   27 ar
    45   18   19 ar
    46   19   24 ar
    47   19   20 1
    48   20   21 2
    49   20   52 1
    50   21   22 1
    51   21   53 1
    52   22   23 1
    53   22   24 1
    54   24   25 ar
    55   25   26 ar
    56   26   27 ar
    57   26   54 1
    58   28   55 1
    59   28   56 1
    60   28   57 1
@<TRIPOS>MOLECULE
ZINC45356797
   45    48     0     0     0
SMALL
USER_CHARGES

@<TRIPOS>ATOM
      1 C1         -0.0146    1.5218   -0.2803 C.ar      1 <0>        -0.0764
      2 C2          1.1968    2.1836   -0.2021 C.ar      1 <0>        -0.0901
      3 C3          2.3737    1.4644   -0.1151 C.ar      1 <0>        -0.0884
      4 C4          2.3401    0.0813   -0.1058 C.ar      1 <0>        -0.0737
      5 C5          1.1270   -0.5813   -0.1837 C.ar      1 <0>        -0.0156
      6 C6         -0.0501    0.1403   -0.2712 C.ar      1 <0>        -0.0872
      7 Cl1         1.0831   -2.3167   -0.1727 Cl        1 <0>        -0.0215
      8 Cl2         3.8181   -0.8227    0.0029 Cl        1 <0>        -0.0505
      9 C7          3.6937    2.1866   -0.0308 C.3       1 <0>        -0.1041
     10 C8          4.1628    2.2235    1.4250 C.3       1 <0>         0.0685
     11 C9          3.1237    2.9557    2.2771 C.3       1 <0>        -0.1549
     12 C10         2.9332    4.3757    1.7346 C.3       1 <0>         0.1536
     13 N1          4.2427    5.0396    1.6773 N.pl3     1 <0>        -0.6551
     14 C11         5.3399    4.3769    0.9591 C.3       1 <0>         0.1518
     15 C12         5.5033    2.9570    1.5102 C.3       1 <0>        -0.1518
     16 C13         4.4387    6.2654    2.2874 C.ar      1 <0>         0.4617
     17 C14         4.2114    7.4612    1.5889 C.ar      1 <0>        -0.2033
     18 C15         3.7733    7.8038    0.2372 C.2       1 <0>        -0.1760
     19 C16         3.7479    9.1447    0.1655 C.2       1 <0>         0.0691
     20 N2          4.1356    9.6815    1.3659 N.pl3     1 <0>        -0.5703
     21 H1          4.1955   10.6305    1.5574 H         1 <0>         0.4280
     22 C17         4.4247    8.6824    2.2541 C.ar      1 <0>         0.3223
     23 N3          4.8349    8.6540    3.5214 N.ar      1 <0>        -0.5248
     24 C18         5.0360    7.5092    4.1369 C.ar      1 <0>         0.3279
     25 N4          4.8419    6.3405    3.5523 N.ar      1 <0>        -0.5490
     26 N5          4.3237    0.8507    1.9223 N.4       1 <0>        -0.6409
     27 H2         -0.9341    2.0849   -0.3441 H         1 <0>         0.1532
     28 H3          1.2234    3.2633   -0.2093 H         1 <0>         0.1504
     29 H4         -0.9967   -0.3760   -0.3320 H         1 <0>         0.1556
     30 H5          4.4332    1.6640   -0.6377 H         1 <0>         0.1083
     31 H6          3.5748    3.2052   -0.4002 H         1 <0>         0.1345
     32 H7          2.1755    2.4199    2.2346 H         1 <0>         0.0950
     33 H8          3.4688    3.0041    3.3099 H         1 <0>         0.1000
     34 H9          2.5026    4.3300    0.7343 H         1 <0>         0.0713
     35 H10         2.2695    4.9333    2.3953 H         1 <0>         0.0913
     36 H11         5.1055    4.3313   -0.1045 H         1 <0>         0.0748
     37 H12         6.2640    4.9354    1.1081 H         1 <0>         0.0922
     38 H13         5.8261    3.0053    2.5502 H         1 <0>         0.1008
     39 H14         6.2488    2.4219    0.9220 H         1 <0>         0.0984
     40 H15         3.5192    7.1119   -0.5521 H         1 <0>         0.1539
     41 H16         3.4650    9.7147   -0.7072 H         1 <0>         0.1869
     42 H17         5.3688    7.5252    5.1642 H         1 <0>         0.2030
     43 H18         5.0083    0.3674    1.3604 H         1 <0>         0.4257
     44 H19         4.6330    0.8748    2.8824 H         1 <0>         0.4299
     45 H20         3.4401    0.3668    1.8658 H         1 <0>         0.4253
@<TRIPOS>BOND
     1    1    6 ar
     2    1    2 ar
     3    1   27 1
     4    2    3 ar
     5    2   28 1
     6    3    4 ar
     7    3    9 1
     8    4    5 ar
     9    4    8 1
    10    5    6 ar
    11    5    7 1
    12    6   29 1
    13    9   10 1
    14    9   30 1
    15    9   31 1
    16   10   15 1
    17   10   11 1
    18   10   26 1
    19   11   12 1
    20   11   32 1
    21   11   33 1
    22   12   13 1
    23   12   34 1
    24   12   35 1
    25   13   14 1
    26   13   16 1
    27   14   15 1
    28   14   36 1
    29   14   37 1
    30   15   38 1
    31   15   39 1
    32   16   25 ar
    33   16   17 ar
    34   17   22 ar
    35   17   18 1
    36   18   19 2
    37   18   40 1
    38   19   20 1
    39   19   41 1
    40   20   21 1
    41   20   22 1
    42   22   23 ar
    43   23   24 ar
    44   24   25 ar
    45   24   42 1
    46   26   43 1
    47   26   44 1
    48   26   45 1
@<TRIPOS>MOLECULE
ZINC45356413
   45    48     0     0     0
SMALL
USER_CHARGES

@<TRIPOS>ATOM
      1 C1         -0.0146    1.5232   -0.2803 C.ar      1 <0>        -0.0831
      2 C2          1.1970    2.1843   -0.2021 C.ar      1 <0>        -0.0787
      3 C3          2.3734    1.4643   -0.1151 C.ar      1 <0>        -0.0983
      4 C4          2.3391    0.0809   -0.1059 C.ar      1 <0>        -0.0622
      5 C5          1.1273   -0.5811   -0.1836 C.ar      1 <0>        -0.0824
      6 C6         -0.0501    0.1403   -0.2711 C.ar      1 <0>        -0.0179
      7 Cl1        -1.5716   -0.6898   -0.3687 Cl        1 <0>        -0.0265
      8 Cl2         3.8170   -0.8233    0.0028 Cl        1 <0>        -0.0572
      9 C7          3.6937    2.1858   -0.0309 C.3       1 <0>        -0.1048
     10 C8          4.1629    2.2224    1.4249 C.3       1 <0>         0.0687
     11 C9          3.1242    2.9552    2.2771 C.3       1 <0>        -0.1550
     12 C10         2.9345    4.3752    1.7347 C.3       1 <0>         0.1533
     13 N1          4.2443    5.0384    1.6773 N.pl3     1 <0>        -0.6551
     14 C11         5.3411    4.3752    0.9590 C.3       1 <0>         0.1517
     15 C12         5.5038    2.9552    1.5101 C.3       1 <0>        -0.1517
     16 C13         4.4410    6.2641    2.2875 C.ar      1 <0>         0.4616
     17 C14         4.2142    7.4601    1.5891 C.ar      1 <0>        -0.2033
     18 C15         3.7763    7.8030    0.2374 C.2       1 <0>        -0.1760
     19 C16         3.7516    9.1439    0.1657 C.2       1 <0>         0.0692
     20 N2          4.1396    9.6805    1.3662 N.pl3     1 <0>        -0.5703
     21 H1          4.2001   10.6294    1.5577 H         1 <0>         0.4280
     22 C17         4.4282    8.6812    2.2543 C.ar      1 <0>         0.3223
     23 N3          4.8385    8.6525    3.5216 N.ar      1 <0>        -0.5247
     24 C18         5.0390    7.5075    4.1370 C.ar      1 <0>         0.3278
     25 N4          4.8443    6.3389    3.5523 N.ar      1 <0>        -0.5490
     26 N5          4.3230    0.8495    1.9222 N.4       1 <0>        -0.6406
     27 H2         -0.9339    2.0864   -0.3441 H         1 <0>         0.1541
     28 H3          1.2242    3.2640   -0.2093 H         1 <0>         0.1538
     29 H4          1.1001   -1.6607   -0.1765 H         1 <0>         0.1565
     30 H5          4.4329    1.6629   -0.6378 H         1 <0>         0.1083
     31 H6          3.5754    3.2045   -0.4002 H         1 <0>         0.1335
     32 H7          2.1757    2.4198    2.2346 H         1 <0>         0.0950
     33 H8          3.4694    3.0033    3.3098 H         1 <0>         0.0999
     34 H9          2.5038    4.3298    0.7344 H         1 <0>         0.0711
     35 H10         2.2710    4.9332    2.3954 H         1 <0>         0.0914
     36 H11         5.1066    4.3298   -0.1045 H         1 <0>         0.0748
     37 H12         6.2655    4.9332    1.1080 H         1 <0>         0.0921
     38 H13         5.8266    3.0033    2.5501 H         1 <0>         0.1006
     39 H14         6.2490    2.4198    0.9218 H         1 <0>         0.0983
     40 H15         3.5219    7.1112   -0.5520 H         1 <0>         0.1540
     41 H16         3.4691    9.7140   -0.7070 H         1 <0>         0.1869
     42 H17         5.3719    7.5233    5.1643 H         1 <0>         0.2030
     43 H18         5.0074    0.3659    1.3602 H         1 <0>         0.4258
     44 H19         4.6325    0.8734    2.8823 H         1 <0>         0.4299
     45 H20         3.4392    0.3661    1.8656 H         1 <0>         0.4253
@<TRIPOS>BOND
     1    1    6 ar
     2    1    2 ar
     3    1   27 1
     4    2    3 ar
     5    2   28 1
     6    3    4 ar
     7    3    9 1
     8    4    5 ar
     9    4    8 1
    10    5    6 ar
    11    5   29 1
    12    6    7 1
    13    9   10 1
    14    9   30 1
    15    9   31 1
    16   10   15 1
    17   10   11 1
    18   10   26 1
    19   11   12 1
    20   11   32 1
    21   11   33 1
    22   12   13 1
    23   12   34 1
    24   12   35 1
    25   13   14 1
    26   13   16 1
    27   14   15 1
    28   14   36 1
    29   14   37 1
    30   15   38 1
    31   15   39 1
    32   16   25 ar
    33   16   17 ar
    34   17   22 ar
    35   17   18 1
    36   18   19 2
    37   18   40 1
    38   19   20 1
    39   19   41 1
    40   20   21 1
    41   20   22 1
    42   22   23 ar
    43   23   24 ar
    44   24   25 ar
    45   24   42 1
    46   26   43 1
    47   26   44 1
    48   26   45 1
@<TRIPOS>MOLECULE
ZINC45356824
   45    48     0     0     0
SMALL
USER_CHARGES

@<TRIPOS>ATOM
      1 C1          0.0454    1.4855   -0.0032 C.ar      1 <0>        -0.0778
      2 C2          1.2527    2.1585    0.0019 C.ar      1 <0>        -0.0838
      3 C3          2.4406    1.4491   -0.0095 C.ar      1 <0>        -0.0644
      4 C4          2.4198    0.0660   -0.0256 C.ar      1 <0>        -0.1050
      5 C5          1.2112   -0.6070   -0.0302 C.ar      1 <0>        -0.0220
      6 C6          0.0240    0.1035   -0.0193 C.ar      1 <0>        -0.0837
      7 Cl1         1.1841   -2.3426   -0.0509 Cl        1 <0>        -0.0192
      8 C7          3.7132   -0.7072   -0.0385 C.3       1 <0>        -0.1111
      9 C8          4.2339   -0.8541    1.3926 C.3       1 <0>         0.0719
     10 C9          3.3511   -1.8429    2.1574 C.3       1 <0>        -0.1535
     11 C10         3.3627   -3.1947    1.4368 C.3       1 <0>         0.1350
     12 N1          4.7560   -3.6314    1.2731 N.pl3     1 <0>        -0.6541
     13 C11         5.7116   -2.7185    0.6311 C.3       1 <0>         0.1518
     14 C12         5.6737   -1.3721    1.3607 C.3       1 <0>        -0.1508
     15 C13         5.1604   -4.8780    1.7154 C.ar      1 <0>         0.4628
     16 C14         5.1952   -5.9752    0.8411 C.ar      1 <0>        -0.2041
     17 C15         4.8851   -6.1836   -0.5720 C.2       1 <0>        -0.1757
     18 C16         5.1225   -7.4792   -0.8347 C.2       1 <0>         0.0683
     19 N2          5.5592   -8.1109    0.3010 N.pl3     1 <0>        -0.5703
     20 H1          5.7950   -9.0500    0.3594 H         1 <0>         0.4277
     21 C17         5.6145   -7.2223    1.3394 C.ar      1 <0>         0.3225
     22 N3          5.9613   -7.3112    2.6226 N.ar      1 <0>        -0.5257
     23 C18         5.9127   -6.2561    3.4063 C.ar      1 <0>         0.3276
     24 N4          5.5314   -5.0658    2.9784 N.ar      1 <0>        -0.5499
     25 N5          4.1987    0.4527    2.0627 N.4       1 <0>        -0.6408
     26 Cl2         3.9567    2.2946   -0.0043 Cl        1 <0>        -0.0468
     27 H2         -0.8815    2.0395    0.0099 H         1 <0>         0.1569
     28 H3          1.2688    3.2383    0.0144 H         1 <0>         0.1541
     29 H4         -0.9196   -0.4218   -0.0229 H         1 <0>         0.1544
     30 H5          3.5417   -1.6951   -0.4659 H         1 <0>         0.1349
     31 H6          4.4493   -0.1739   -0.6401 H         1 <0>         0.1128
     32 H7          3.7361   -1.9668    3.1696 H         1 <0>         0.1009
     33 H8          2.3307   -1.4620    2.1999 H         1 <0>         0.0921
     34 H9          2.8168   -3.9291    2.0290 H         1 <0>         0.0882
     35 H10         2.8948   -3.0910    0.4578 H         1 <0>         0.0872
     36 H11         6.7155   -3.1388    0.6916 H         1 <0>         0.0926
     37 H12         5.4353   -2.5760   -0.4137 H         1 <0>         0.0738
     38 H13         6.3063   -0.6561    0.8361 H         1 <0>         0.0983
     39 H14         6.0368   -1.5004    2.3803 H         1 <0>         0.1012
     40 H15         4.5326   -5.4391   -1.2705 H         1 <0>         0.1535
     41 H16         4.9888   -7.9525   -1.7962 H         1 <0>         0.1868
     42 H17         6.2011   -6.3662    4.4413 H         1 <0>         0.2028
     43 H18         3.2496    0.7946    2.0835 H         1 <0>         0.4261
     44 H19         4.5421    0.3560    3.0066 H         1 <0>         0.4328
     45 H20         4.7803    1.1051    1.5584 H         1 <0>         0.4219
@<TRIPOS>BOND
     1    1    6 ar
     2    1    2 ar
     3    1   27 1
     4    2    3 ar
     5    2   28 1
     6    3    4 ar
     7    3   26 1
     8    4    5 ar
     9    4    8 1
    10    5    6 ar
    11    5    7 1
    12    6   29 1
    13    8    9 1
    14    8   30 1
    15    8   31 1
    16    9   14 1
    17    9   10 1
    18    9   25 1
    19   10   11 1
    20   10   32 1
    21   10   33 1
    22   11   12 1
    23   11   34 1
    24   11   35 1
    25   12   13 1
    26   12   15 1
    27   13   14 1
    28   13   36 1
    29   13   37 1
    30   14   38 1
    31   14   39 1
    32   15   24 ar
    33   15   16 ar
    34   16   21 ar
    35   16   17 1
    36   17   18 2
    37   17   40 1
    38   18   19 1
    39   18   41 1
    40   19   20 1
    41   19   21 1
    42   21   22 ar
    43   22   23 ar
    44   23   24 ar
    45   23   42 1
    46   25   43 1
    47   25   44 1
    48   25   45 1
@<TRIPOS>MOLECULE
ZINC38279188
   49    52     0     0     0
SMALL
USER_CHARGES

@<TRIPOS>ATOM
      1 C1         -0.1759    1.3213    0.3455 C.ar      1 <0>        -0.0817
      2 C2          0.9879    2.0619    0.4323 C.ar      1 <0>        -0.1112
      3 C3          2.2160    1.4253    0.4074 C.ar      1 <0>        -0.0215
      4 C4          2.2784    0.0478    0.2956 C.ar      1 <0>        -0.1128
      5 C5          1.1140   -0.6917    0.2088 C.ar      1 <0>        -0.0865
      6 C6         -0.1129   -0.0551    0.2337 C.ar      1 <0>        -0.1040
      7 C7         -1.3822   -0.8620    0.1396 C.3       1 <0>         0.1116
      8 O1         -1.7539   -1.0068   -1.2326 O.3       1 <0>        -0.3917
      9 C8         -2.9513   -1.7603   -1.4340 C.3       1 <0>         0.0346
     10 C9         -3.2513   -1.8504   -2.9316 C.3       1 <0>         0.0731
     11 C10        -3.4315   -0.4415   -3.5013 C.3       1 <0>        -0.1492
     12 C11        -4.5748    0.2613   -2.7626 C.3       1 <0>         0.1545
     13 N1         -5.7768   -0.5800   -2.8420 N.pl3     1 <0>        -0.6569
     14 C12        -5.6895   -1.9798   -2.4044 C.3       1 <0>         0.1510
     15 C13        -4.5336   -2.6575   -3.1471 C.3       1 <0>        -0.1536
     16 C14        -6.9680   -0.0638   -3.3193 C.ar      1 <0>         0.4619
     17 C15        -7.8917    0.5364   -2.4497 C.ar      1 <0>        -0.2038
     18 C16        -7.9439    0.7947   -1.0120 C.2       1 <0>        -0.1760
     19 C17        -9.1105    1.4151   -0.7710 C.2       1 <0>         0.0692
     20 N2         -9.8041    1.5715   -1.9432 N.pl3     1 <0>        -0.5702
     21 H1        -10.6741    1.9930   -2.0226 H         1 <0>         0.4281
     22 C18        -9.0888    1.0468   -2.9842 C.ar      1 <0>         0.3225
     23 N3         -9.2974    0.9390   -4.2957 N.ar      1 <0>        -0.5247
     24 C19        -8.4037    0.3678   -5.0733 C.ar      1 <0>         0.3279
     25 N4         -7.2644   -0.1187   -4.6143 N.ar      1 <0>        -0.5495
     26 N5         -2.1339   -2.5153   -3.6154 N.4       1 <0>        -0.6323
     27 Cl1         3.6782    2.3549    0.5158 Cl        1 <0>        -0.0541
     28 H2         -1.1347    1.8177    0.3694 H         1 <0>         0.1343
     29 H3          0.9386    3.1372    0.5192 H         1 <0>         0.1395
     30 H4          3.2369   -0.4496    0.2757 H         1 <0>         0.1388
     31 H5          1.1626   -1.7671    0.1212 H         1 <0>         0.1319
     32 H6         -1.2201   -1.8468    0.5779 H         1 <0>         0.0697
     33 H7         -2.1788   -0.3505    0.6798 H         1 <0>         0.0721
     34 H8         -2.8217   -2.7636   -1.0284 H         1 <0>         0.0779
     35 H9         -3.7805   -1.2674   -0.9264 H         1 <0>         0.1025
     36 H10        -2.5099    0.1252   -3.3685 H         1 <0>         0.1043
     37 H11        -3.6696   -0.5060   -4.5630 H         1 <0>         0.0951
     38 H12        -4.2996    0.4077   -1.7181 H         1 <0>         0.0722
     39 H13        -4.7727    1.2263   -3.2292 H         1 <0>         0.0897
     40 H14        -5.5052   -2.0162   -1.3307 H         1 <0>         0.0720
     41 H15        -6.6229   -2.4935   -2.6346 H         1 <0>         0.0921
     42 H16        -4.7614   -2.7011   -4.2121 H         1 <0>         0.1034
     43 H17        -4.3965   -3.6680   -2.7621 H         1 <0>         0.0987
     44 H18        -7.1897    0.5360   -0.2835 H         1 <0>         0.1533
     45 H19        -9.4513    1.7413    0.2005 H         1 <0>         0.1870
     46 H20        -8.6073    0.2980   -6.1317 H         1 <0>         0.2032
     47 H21        -2.0145   -3.4441   -3.2397 H         1 <0>         0.4322
     48 H22        -2.3316   -2.5748   -4.6030 H         1 <0>         0.4349
     49 H23        -1.2883   -1.9836   -3.4731 H         1 <0>         0.4404
@<TRIPOS>BOND
     1    1    6 ar
     2    1    2 ar
     3    1   28 1
     4    2    3 ar
     5    2   29 1
     6    3    4 ar
     7    3   27 1
     8    4    5 ar
     9    4   30 1
    10    5    6 ar
    11    5   31 1
    12    6    7 1
    13    7    8 1
    14    7   32 1
    15    7   33 1
    16    8    9 1
    17    9   10 1
    18    9   34 1
    19    9   35 1
    20   10   15 1
    21   10   11 1
    22   10   26 1
    23   11   12 1
    24   11   36 1
    25   11   37 1
    26   12   13 1
    27   12   38 1
    28   12   39 1
    29   13   14 1
    30   13   16 1
    31   14   15 1
    32   14   40 1
    33   14   41 1
    34   15   42 1
    35   15   43 1
    36   16   25 ar
    37   16   17 ar
    38   17   22 ar
    39   17   18 1
    40   18   19 2
    41   18   44 1
    42   19   20 1
    43   19   45 1
    44   20   21 1
    45   20   22 1
    46   22   23 ar
    47   23   24 ar
    48   24   25 ar
    49   24   46 1
    50   26   47 1
    51   26   48 1
    52   26   49 1
@<TRIPOS>MOLECULE
ZINC45355777
   51    54     0     0     0
SMALL
USER_CHARGES

@<TRIPOS>ATOM
      1 C1          2.3255   -1.4058   -2.1509 C.3       1 <0>         0.0594
      2 N1          1.2719   -1.5066   -1.1379 N.am      1 <0>        -0.6103
      3 C2          1.4074   -2.4582   -0.0323 C.3       1 <0>         0.1537
      4 C3          2.1054   -1.7892    1.1236 C.ar      1 <0>        -0.1060
      5 C4          3.4841   -1.8315    1.2163 C.ar      1 <0>        -0.0951
      6 C5          4.1249   -1.2182    2.2762 C.ar      1 <0>        -0.1142
      7 C6          3.3864   -0.5617    3.2445 C.ar      1 <0>        -0.0298
      8 C7          2.0066   -0.5196    3.1512 C.ar      1 <0>        -0.1132
      9 C8          1.3673   -1.1285    2.0878 C.ar      1 <0>        -0.0816
     10 Cl1         4.1905    0.2085    4.5764 Cl        1 <0>        -0.0684
     11 C9          0.1780   -0.7238   -1.2232 C.2       1 <0>         0.4911
     12 O1         -0.6508   -0.7415   -0.3379 O.2       1 <0>        -0.5253
     13 C10        -0.0152    0.1734   -2.4185 C.3       1 <0>         0.1164
     14 C11        -1.4375    0.7382   -2.4073 C.3       1 <0>        -0.1111
     15 C12        -2.4421   -0.4181   -2.4317 C.3       1 <0>         0.1459
     16 N2         -2.1438   -1.2794   -3.5840 N.pl3     1 <0>        -0.6579
     17 C13        -0.7801   -1.8034   -3.7402 C.3       1 <0>         0.1516
     18 C14         0.2058   -0.6316   -3.7012 C.3       1 <0>        -0.1447
     19 C15        -3.1284   -1.5915   -4.5042 C.ar      1 <0>         0.4816
     20 C16        -4.0038   -2.6662   -4.2845 C.ar      1 <0>        -0.2092
     21 C17        -4.1792   -3.6596   -3.2267 C.2       1 <0>        -0.1641
     22 C18        -5.2079   -4.4408   -3.5943 C.2       1 <0>         0.0535
     23 N3         -5.7005   -4.0217   -4.8032 N.pl3     1 <0>        -0.5736
     24 H1         -6.4448   -4.4302   -5.2723 H         1 <0>         0.4232
     25 C19        -4.9887   -2.9427   -5.2503 C.ar      1 <0>         0.3197
     26 N4         -5.0500   -2.1726   -6.3358 N.ar      1 <0>        -0.5372
     27 C20        -4.2080   -1.1758   -6.5006 C.ar      1 <0>         0.3268
     28 N5         -3.2728   -0.8774   -5.6165 N.ar      1 <0>        -0.5495
     29 N6          0.9505    1.2788   -2.3619 N.3       1 <0>        -0.8251
     30 H2          2.1686   -2.1669   -2.9152 H         1 <0>         0.0687
     31 H3          2.2946   -0.4178   -2.6102 H         1 <0>         0.0880
     32 H4          3.2971   -1.5577   -1.6809 H         1 <0>         0.0725
     33 H5          0.4187   -2.7910    0.2837 H         1 <0>         0.0945
     34 H6          1.9918   -3.3172   -0.3619 H         1 <0>         0.0895
     35 H7          4.0605   -2.3443    0.4605 H         1 <0>         0.1304
     36 H8          5.2020   -1.2516    2.3487 H         1 <0>         0.1340
     37 H9          1.4295   -0.0076    3.9070 H         1 <0>         0.1335
     38 H10         0.2906   -1.0917    2.0123 H         1 <0>         0.1382
     39 H11        -1.5866    1.3307   -1.5047 H         1 <0>         0.0766
     40 H12        -1.5859    1.3676   -3.2848 H         1 <0>         0.0843
     41 H13        -2.3563   -0.9961   -1.5116 H         1 <0>         0.0792
     42 H14        -3.4533   -0.0218   -2.5237 H         1 <0>         0.0686
     43 H15        -0.5588   -2.4944   -2.9268 H         1 <0>         0.0546
     44 H16        -0.6947   -2.3211   -4.6956 H         1 <0>         0.0733
     45 H17         0.0419    0.0107   -4.5665 H         1 <0>         0.0897
     46 H18         1.2264   -1.0140   -3.7194 H         1 <0>         0.0908
     47 H19        -3.5938   -3.7485   -2.3234 H         1 <0>         0.1526
     48 H20        -5.5896   -5.2744   -3.0236 H         1 <0>         0.1831
     49 H21        -4.2876   -0.5732   -7.3933 H         1 <0>         0.1998
     50 H22         0.6813    1.9589   -1.6668 H         1 <0>         0.3494
     51 H23         1.8835    0.9355   -2.1894 H         1 <0>         0.3423
@<TRIPOS>BOND
     1    1    2 1
     2    1   30 1
     3    1   31 1
     4    1   32 1
     5    2    3 1
     6    2   11 am
     7    3    4 1
     8    3   33 1
     9    3   34 1
    10    4    9 ar
    11    4    5 ar
    12    5    6 ar
    13    5   35 1
    14    6    7 ar
    15    6   36 1
    16    7    8 ar
    17    7   10 1
    18    8    9 ar
    19    8   37 1
    20    9   38 1
    21   11   12 2
    22   11   13 1
    23   13   18 1
    24   13   14 1
    25   13   29 1
    26   14   15 1
    27   14   39 1
    28   14   40 1
    29   15   16 1
    30   15   41 1
    31   15   42 1
    32   16   17 1
    33   16   19 1
    34   17   18 1
    35   17   43 1
    36   17   44 1
    37   18   45 1
    38   18   46 1
    39   19   28 ar
    40   19   20 ar
    41   20   25 ar
    42   20   21 1
    43   21   22 2
    44   21   47 1
    45   22   23 1
    46   22   48 1
    47   23   24 1
    48   23   25 1
    49   25   26 ar
    50   26   27 ar
    51   27   28 ar
    52   27   49 1
    53   29   50 1
    54   29   51 1
@<TRIPOS>MOLECULE
ZINC45358282
   49    52     0     0     0
SMALL
USER_CHARGES

@<TRIPOS>ATOM
      1 C1         -0.0540    1.4096   -0.0669 C.ar      1 <0>        -0.1034
      2 C2          1.1091    2.1491   -0.1606 C.ar      1 <0>        -0.1140
      3 C3          2.3311    1.5048   -0.2878 C.ar      1 <0>         0.1266
      4 C4          2.3817    0.1188   -0.3205 C.ar      1 <0>        -0.1804
      5 C5          1.2158   -0.6162   -0.2265 C.ar      1 <0>        -0.0616
      6 C6         -0.0009    0.0284   -0.0998 C.ar      1 <0>        -0.1465
      7 C7         -1.2711   -0.7759    0.0031 C.3       1 <0>        -0.0955
      8 C8         -1.8357   -1.0190   -1.3980 C.3       1 <0>         0.0695
      9 C9         -0.8644   -1.8934   -2.1944 C.3       1 <0>        -0.1566
     10 C10        -0.6567   -3.2204   -1.4579 C.3       1 <0>         0.1521
     11 N1         -1.9679   -3.8387   -1.2186 N.pl3     1 <0>        -0.6551
     12 C11        -3.0068   -3.0519   -0.5401 C.3       1 <0>         0.1517
     13 C12        -3.1881   -1.7267   -1.2870 C.3       1 <0>        -0.1514
     14 C13        -2.2196   -5.1368   -1.6247 C.ar      1 <0>         0.4616
     15 C14        -1.9651   -6.2202   -0.7698 C.ar      1 <0>        -0.2035
     16 C15        -1.4474   -6.3678    0.5891 C.2       1 <0>        -0.1759
     17 C16        -1.4375   -7.6832    0.8602 C.2       1 <0>         0.0691
     18 N2         -1.9085   -8.3836   -0.2202 N.pl3     1 <0>        -0.5703
     19 H1         -1.9955   -9.3488   -0.2624 H         1 <0>         0.4280
     20 C17        -2.2384   -7.5215   -1.2295 C.ar      1 <0>         0.3222
     21 N3         -2.7277   -7.6726   -2.4595 N.ar      1 <0>        -0.5248
     22 C18        -2.9502   -6.6279   -3.2269 C.ar      1 <0>         0.3276
     23 N4         -2.7140   -5.3892   -2.8330 N.ar      1 <0>        -0.5494
     24 N5         -2.0115    0.2675   -2.0849 N.4       1 <0>        -0.6360
     25 O1          3.4766    2.2301   -0.3806 O.3       1 <0>        -0.3080
     26 C19         4.6982    1.4998   -0.5095 C.3       1 <0>         0.6052
     27 F1          4.6537    0.7174   -1.6684 F         1 <0>        -0.1626
     28 F2          5.7701    2.3950   -0.5921 F         1 <0>        -0.1213
     29 F3          4.8666    0.6722    0.6058 F         1 <0>        -0.1603
     30 H2         -1.0051    1.9107    0.0367 H         1 <0>         0.1395
     31 H3          1.0671    3.2280   -0.1352 H         1 <0>         0.1492
     32 H4          3.3317   -0.3852   -0.4199 H         1 <0>         0.1435
     33 H5          1.2546   -1.6952   -0.2519 H         1 <0>         0.1411
     34 H6         -1.0578   -1.7326    0.4799 H         1 <0>         0.1253
     35 H7         -2.0010   -0.2278    0.5988 H         1 <0>         0.1041
     36 H8         -1.2776   -2.0875   -3.1843 H         1 <0>         0.0978
     37 H9          0.0913   -1.3786   -2.2931 H         1 <0>         0.0967
     38 H10        -0.0451   -3.8851   -2.0679 H         1 <0>         0.0900
     39 H11        -0.1605   -3.0357   -0.5051 H         1 <0>         0.0720
     40 H12        -3.9458   -3.6054   -0.5447 H         1 <0>         0.0904
     41 H13        -2.7022   -2.8534    0.4875 H         1 <0>         0.0744
     42 H14        -3.8863   -1.0933   -0.7398 H         1 <0>         0.0981
     43 H15        -3.5794   -1.9224   -2.2854 H         1 <0>         0.0980
     44 H16        -1.1329   -5.5722    1.2483 H         1 <0>         0.1540
     45 H17        -1.1075   -8.1233    1.7896 H         1 <0>         0.1870
     46 H18        -3.3471   -6.7890   -4.2184 H         1 <0>         0.2030
     47 H19        -1.1200    0.7344   -2.1577 H         1 <0>         0.4310
     48 H20        -2.3838    0.1074   -3.0089 H         1 <0>         0.4352
     49 H21        -2.6514    0.8445   -1.5598 H         1 <0>         0.4324
@<TRIPOS>BOND
     1    1    6 ar
     2    1    2 ar
     3    1   30 1
     4    2    3 ar
     5    2   31 1
     6    3    4 ar
     7    3   25 1
     8    4    5 ar
     9    4   32 1
    10    5    6 ar
    11    5   33 1
    12    6    7 1
    13    7    8 1
    14    7   34 1
    15    7   35 1
    16    8   13 1
    17    8    9 1
    18    8   24 1
    19    9   10 1
    20    9   36 1
    21    9   37 1
    22   10   11 1
    23   10   38 1
    24   10   39 1
    25   11   12 1
    26   11   14 1
    27   12   13 1
    28   12   40 1
    29   12   41 1
    30   13   42 1
    31   13   43 1
    32   14   23 ar
    33   14   15 ar
    34   15   20 ar
    35   15   16 1
    36   16   17 2
    37   16   44 1
    38   17   18 1
    39   17   45 1
    40   18   19 1
    41   18   20 1
    42   20   21 ar
    43   21   22 ar
    44   22   23 ar
    45   22   46 1
    46   24   47 1
    47   24   48 1
    48   24   49 1
    49   25   26 1
    50   26   27 1
    51   26   28 1
    52   26   29 1
@<TRIPOS>MOLECULE
ZINC45358629
   49    52     0     0     0
SMALL
USER_CHARGES

@<TRIPOS>ATOM
      1 C1         -0.0049    1.4788   -0.2988 C.ar      1 <0>        -0.0594
      2 C2          1.1985    2.1545   -0.2126 C.ar      1 <0>        -0.1252
      3 C3          2.3845    1.4500   -0.1211 C.ar      1 <0>        -0.0857
      4 C4          2.3700    0.0685   -0.1159 C.ar      1 <0>        -0.1522
      5 C5          1.1642   -0.6117   -0.2022 C.ar      1 <0>         0.1229
      6 C6         -0.0248    0.0977   -0.2936 C.ar      1 <0>        -0.1792
      7 O1          1.1474   -1.9706   -0.1973 O.3       1 <0>        -0.3121
      8 C7         -0.1304   -2.6039   -0.2892 C.3       1 <0>         0.6058
      9 F1         -0.7541   -2.2245   -1.4826 F         1 <0>        -0.1590
     10 F2          0.0352   -3.9929   -0.2706 F         1 <0>        -0.1222
     11 F3         -0.9230   -2.2142    0.7957 F         1 <0>        -0.1616
     12 C8          3.6942    2.1896   -0.0273 C.3       1 <0>        -0.0985
     13 C9          4.0305    2.4469    1.4429 C.3       1 <0>         0.0697
     14 C10         2.9215    3.2873    2.0801 C.3       1 <0>        -0.1570
     15 C11         2.7859    4.6091    1.3176 C.3       1 <0>         0.1515
     16 N1          4.0976    5.2699    1.2796 N.pl3     1 <0>        -0.6552
     17 C12         5.2526    4.5187    0.7692 C.3       1 <0>         0.1513
     18 C13         5.3605    3.1980    1.5378 C.3       1 <0>        -0.1515
     19 C14         4.2424    6.5745    1.7157 C.ar      1 <0>         0.4615
     20 C15         4.0833    7.6511    0.8296 C.ar      1 <0>        -0.2034
     21 C16         3.7699    7.7849   -0.5918 C.2       1 <0>        -0.1759
     22 C17         3.7560    9.1000   -0.8642 C.2       1 <0>         0.0691
     23 N2          4.0360    9.8128    0.2729 N.pl3     1 <0>        -0.5703
     24 H1          4.0819   10.7803    0.3257 H         1 <0>         0.4280
     25 C18         4.2403    8.9596    1.3222 C.ar      1 <0>         0.3223
     26 N3          4.5347    9.1236    2.6111 N.ar      1 <0>        -0.5248
     27 C19         4.6753    8.0849    3.4056 C.ar      1 <0>         0.3277
     28 N4          4.5304    6.8405    2.9863 N.ar      1 <0>        -0.5493
     29 N5          4.1408    1.1647    2.1513 N.4       1 <0>        -0.6369
     30 H2         -0.9304    2.0314   -0.3657 H         1 <0>         0.1447
     31 H3          1.2120    3.2344   -0.2173 H         1 <0>         0.1406
     32 H4          3.2968   -0.4814   -0.0450 H         1 <0>         0.1395
     33 H5         -0.9649   -0.4295   -0.3606 H         1 <0>         0.1426
     34 H6          4.4833    1.5900   -0.4810 H         1 <0>         0.1056
     35 H7          3.6127    3.1409   -0.5532 H         1 <0>         0.1296
     36 H8          1.9790    2.7418    2.0331 H         1 <0>         0.0982
     37 H9          3.1725    3.4919    3.1209 H         1 <0>         0.0981
     38 H10         2.4469    4.4112    0.3007 H         1 <0>         0.0733
     39 H11         2.0674    5.2521    1.8259 H         1 <0>         0.0903
     40 H12         5.1147    4.3134   -0.2924 H         1 <0>         0.0747
     41 H13         6.1616    5.1020    0.9156 H         1 <0>         0.0910
     42 H14         5.5885    3.4033    2.5838 H         1 <0>         0.0989
     43 H15         6.1540    2.5888    1.1049 H         1 <0>         0.0987
     44 H16         3.5854    6.9810   -1.2889 H         1 <0>         0.1541
     45 H17         3.5549    9.5312   -1.8337 H         1 <0>         0.1869
     46 H18         4.9144    8.2565    4.4447 H         1 <0>         0.2030
     47 H19         4.8715    0.6101    1.7312 H         1 <0>         0.4331
     48 H20         4.3626    1.3342    3.1210 H         1 <0>         0.4359
     49 H21         3.2641    0.6692    2.0885 H         1 <0>         0.4310
@<TRIPOS>BOND
     1    1    6 ar
     2    1    2 ar
     3    1   30 1
     4    2    3 ar
     5    2   31 1
     6    3    4 ar
     7    3   12 1
     8    4    5 ar
     9    4   32 1
    10    5    6 ar
    11    5    7 1
    12    6   33 1
    13    7    8 1
    14    8    9 1
    15    8   10 1
    16    8   11 1
    17   12   13 1
    18   12   34 1
    19   12   35 1
    20   13   18 1
    21   13   14 1
    22   13   29 1
    23   14   15 1
    24   14   36 1
    25   14   37 1
    26   15   16 1
    27   15   38 1
    28   15   39 1
    29   16   17 1
    30   16   19 1
    31   17   18 1
    32   17   40 1
    33   17   41 1
    34   18   42 1
    35   18   43 1
    36   19   28 ar
    37   19   20 ar
    38   20   25 ar
    39   20   21 1
    40   21   22 2
    41   21   44 1
    42   22   23 1
    43   22   45 1
    44   23   24 1
    45   23   25 1
    46   25   26 ar
    47   26   27 ar
    48   27   28 ar
    49   27   46 1
    50   29   47 1
    51   29   48 1
    52   29   49 1
@<TRIPOS>MOLECULE
ZINC45358631
   49    52     0     0     0
SMALL
USER_CHARGES

@<TRIPOS>ATOM
      1 C1         -0.1917    1.4648   -0.2458 C.3       1 <0>         0.0226
      2 O1         -0.1030    0.0404   -0.1719 O.3       1 <0>        -0.3150
      3 C2          0.4814   -0.5965   -1.2205 C.ar      1 <0>         0.1439
      4 C3          0.9649    0.1348   -2.2959 C.ar      1 <0>        -0.1972
      5 C4          1.5589   -0.5149   -3.3603 C.ar      1 <0>        -0.0623
      6 C5          1.6719   -1.8931   -3.3547 C.ar      1 <0>        -0.1477
      7 C6          1.1906   -2.6241   -2.2846 C.ar      1 <0>        -0.0816
      8 C7          0.6008   -1.9785   -1.2149 C.ar      1 <0>        -0.1811
      9 C8          1.3150   -4.1260   -2.2820 C.3       1 <0>        -0.0980
     10 C9          2.6401   -4.5269   -1.6306 C.3       1 <0>         0.0706
     11 C10         3.8011   -3.9187   -2.4207 C.3       1 <0>        -0.1557
     12 C11         3.7407   -4.4112   -3.8700 C.3       1 <0>         0.1519
     13 N1          3.7152   -5.8802   -3.8696 N.pl3     1 <0>        -0.6556
     14 C12         2.6940   -6.5688   -3.0684 C.3       1 <0>         0.1517
     15 C13         2.7662   -6.0521   -1.6281 C.3       1 <0>        -0.1516
     16 C14         4.6348   -6.6013   -4.6096 C.ar      1 <0>         0.4625
     17 C15         4.3644   -6.9620   -5.9387 C.ar      1 <0>        -0.2036
     18 C16         3.2478   -6.7600   -6.8600 C.2       1 <0>        -0.1754
     19 C17         3.5867   -7.3524   -8.0167 C.2       1 <0>         0.0685
     20 N2          4.8316   -7.9153   -7.9029 N.pl3     1 <0>        -0.5704
     21 H1          5.2901   -8.3984   -8.6081 H         1 <0>         0.4278
     22 C18         5.3323   -7.6952   -6.6493 C.ar      1 <0>         0.3221
     23 N3          6.4673   -8.0180   -6.0308 N.ar      1 <0>        -0.5253
     24 C19         6.6781   -7.6591   -4.7831 C.ar      1 <0>         0.3275
     25 N4          5.7995   -6.9653   -4.0816 N.ar      1 <0>        -0.5496
     26 N5          2.6759   -4.0305   -0.2485 N.4       1 <0>        -0.6360
     27 H2          0.8099    1.8876   -0.3240 H         1 <0>         0.0611
     28 H3         -0.7749    1.7475   -1.1221 H         1 <0>         0.0623
     29 H4         -0.6777    1.8456    0.6525 H         1 <0>         0.1091
     30 H5          0.8766    1.2112   -2.3010 H         1 <0>         0.1367
     31 H6          1.9351    0.0539   -4.1978 H         1 <0>         0.1352
     32 H7          2.1367   -2.3993   -4.1878 H         1 <0>         0.1329
     33 H8          0.2289   -2.5497   -0.3771 H         1 <0>         0.1302
     34 H9          0.4879   -4.5581   -1.7187 H         1 <0>         0.1022
     35 H10         1.2880   -4.4946   -3.3074 H         1 <0>         0.1261
     36 H11         3.7237   -2.8316   -2.4023 H         1 <0>         0.0989
     37 H12         4.7462   -4.2241   -1.9717 H         1 <0>         0.0961
     38 H13         2.8383   -4.0302   -4.3481 H         1 <0>         0.0740
     39 H14         4.6194   -4.0612   -4.4118 H         1 <0>         0.0890
     40 H15         1.7062   -6.3637   -3.4811 H         1 <0>         0.0744
     41 H16         2.8820   -7.6424   -3.0813 H         1 <0>         0.0903
     42 H17         3.7210   -6.3375   -1.1866 H         1 <0>         0.0979
     43 H18         1.9521   -6.4834   -1.0456 H         1 <0>         0.0979
     44 H19         2.3271   -6.2356   -6.6507 H         1 <0>         0.1541
     45 H20         2.9707   -7.3815   -8.9033 H         1 <0>         0.1868
     46 H21         7.6099   -7.9390   -4.3143 H         1 <0>         0.2028
     47 H22         1.9102   -4.4309    0.2726 H         1 <0>         0.4326
     48 H23         3.5498   -4.2948    0.1813 H         1 <0>         0.4343
     49 H24         2.5924   -3.0250   -0.2499 H         1 <0>         0.4321
@<TRIPOS>BOND
     1    1    2 1
     2    1   27 1
     3    1   28 1
     4    1   29 1
     5    2    3 1
     6    3    8 ar
     7    3    4 ar
     8    4    5 ar
     9    4   30 1
    10    5    6 ar
    11    5   31 1
    12    6    7 ar
    13    6   32 1
    14    7    8 ar
    15    7    9 1
    16    8   33 1
    17    9   10 1
    18    9   34 1
    19    9   35 1
    20   10   15 1
    21   10   11 1
    22   10   26 1
    23   11   12 1
    24   11   36 1
    25   11   37 1
    26   12   13 1
    27   12   38 1
    28   12   39 1
    29   13   14 1
    30   13   16 1
    31   14   15 1
    32   14   40 1
    33   14   41 1
    34   15   42 1
    35   15   43 1
    36   16   25 ar
    37   16   17 ar
    38   17   22 ar
    39   17   18 1
    40   18   19 2
    41   18   44 1
    42   19   20 1
    43   19   45 1
    44   20   21 1
    45   20   22 1
    46   22   23 ar
    47   23   24 ar
    48   24   25 ar
    49   24   46 1
    50   26   47 1
    51   26   48 1
    52   26   49 1
@<TRIPOS>MOLECULE
ZINC38224982
   49    52     0     0     0
SMALL
USER_CHARGES

@<TRIPOS>ATOM
      1 C1         -0.4027    1.8010   -0.1864 C.ar      1 <0>        -0.0842
      2 C2          0.6824    2.6545   -0.2526 C.ar      1 <0>        -0.1098
      3 C3          1.9664    2.1399   -0.2772 C.ar      1 <0>        -0.0197
      4 C4          2.1634    0.7711   -0.2356 C.ar      1 <0>        -0.1111
      5 C5          1.0775   -0.0814   -0.1694 C.ar      1 <0>        -0.0875
      6 C6         -0.2053    0.4334   -0.1449 C.ar      1 <0>        -0.1260
      7 C7         -1.3888   -0.4966   -0.0723 C.3       1 <0>         0.1619
      8 N1         -1.8187   -0.8466   -1.4284 N.am      1 <0>        -0.7220
      9 C8         -2.8677   -1.6730   -1.6106 C.2       1 <0>         0.5030
     10 O1         -3.4557   -2.1270   -0.6519 O.2       1 <0>        -0.4626
     11 C9         -3.3100   -2.0330   -3.0055 C.3       1 <0>         0.0488
     12 C10        -4.1751   -0.9054   -3.5730 C.3       1 <0>        -0.1516
     13 C11        -5.3868   -0.6885   -2.6611 C.3       1 <0>         0.1540
     14 N2         -6.0921   -1.9673   -2.4996 N.pl3     1 <0>        -0.6531
     15 C12        -5.3328   -3.1404   -2.0455 C.3       1 <0>         0.1333
     16 C13        -4.1217   -3.3298   -2.9643 C.3       1 <0>        -0.1390
     17 C14        -7.4452   -2.0649   -2.7696 C.ar      1 <0>         0.4631
     18 C15        -8.3977   -1.8322   -1.7655 C.ar      1 <0>        -0.2032
     19 C16        -8.3434   -1.4733   -0.3497 C.2       1 <0>        -0.1726
     20 C17        -9.6136   -1.3920    0.0793 C.2       1 <0>         0.0668
     21 N3        -10.4712   -1.6712   -0.9532 N.pl3     1 <0>        -0.5703
     22 H1        -11.4389   -1.6747   -0.8870 H         1 <0>         0.4276
     23 C18        -9.7620   -1.9435   -2.0906 C.ar      1 <0>         0.3220
     24 N4        -10.0946   -2.2662   -3.3397 N.ar      1 <0>        -0.5256
     25 C19        -9.1677   -2.4762   -4.2488 C.ar      1 <0>         0.3266
     26 N5         -7.8764   -2.3762   -3.9883 N.ar      1 <0>        -0.5515
     27 N6         -2.1298   -2.2213   -3.8598 N.4       1 <0>        -0.6332
     28 Cl1         3.3298    3.2113   -0.3609 Cl        1 <0>        -0.0508
     29 H2         -1.4049    2.2028   -0.1627 H         1 <0>         0.1359
     30 H3          0.5280    3.7229   -0.2854 H         1 <0>         0.1408
     31 H4          3.1655    0.3688   -0.2551 H         1 <0>         0.1403
     32 H5          1.2311   -1.1499   -0.1373 H         1 <0>         0.1346
     33 H6         -1.1068   -1.4024    0.4645 H         1 <0>         0.0921
     34 H7         -2.2070   -0.0032    0.4523 H         1 <0>         0.0922
     35 H8         -1.3485   -0.4835   -2.1952 H         1 <0>         0.3939
     36 H9         -3.5892    0.0123   -3.6239 H         1 <0>         0.0997
     37 H10        -4.5158   -1.1760   -4.5724 H         1 <0>         0.1114
     38 H11        -5.0521   -0.3304   -1.6876 H         1 <0>         0.0707
     39 H12        -6.0567    0.0438   -3.1116 H         1 <0>         0.0934
     40 H13        -4.9936   -2.9822   -1.0218 H         1 <0>         0.1152
     41 H14        -5.9671   -4.0257   -2.0898 H         1 <0>         0.0850
     42 H15        -4.4628   -3.5775   -3.9695 H         1 <0>         0.1034
     43 H16        -3.4978   -4.1376   -2.5819 H         1 <0>         0.1002
     44 H17        -7.4532   -1.3059    0.2385 H         1 <0>         0.1546
     45 H18        -9.9142   -1.1444    1.0866 H         1 <0>         0.1869
     46 H19        -9.4749   -2.7364   -5.2509 H         1 <0>         0.2027
     47 H20        -1.5589   -2.9644   -3.4856 H         1 <0>         0.4395
     48 H21        -2.4258   -2.4624   -4.7938 H         1 <0>         0.4445
     49 H22        -1.5943   -1.3666   -3.8867 H         1 <0>         0.4298
@<TRIPOS>BOND
     1    1    6 ar
     2    1    2 ar
     3    1   29 1
     4    2    3 ar
     5    2   30 1
     6    3    4 ar
     7    3   28 1
     8    4    5 ar
     9    4   31 1
    10    5    6 ar
    11    5   32 1
    12    6    7 1
    13    7    8 1
    14    7   33 1
    15    7   34 1
    16    8    9 am
    17    8   35 1
    18    9   10 2
    19    9   11 1
    20   11   16 1
    21   11   12 1
    22   11   27 1
    23   12   13 1
    24   12   36 1
    25   12   37 1
    26   13   14 1
    27   13   38 1
    28   13   39 1
    29   14   15 1
    30   14   17 1
    31   15   16 1
    32   15   40 1
    33   15   41 1
    34   16   42 1
    35   16   43 1
    36   17   26 ar
    37   17   18 ar
    38   18   23 ar
    39   18   19 1
    40   19   20 2
    41   19   44 1
    42   20   21 1
    43   20   45 1
    44   21   22 1
    45   21   23 1
    46   23   24 ar
    47   24   25 ar
    48   25   26 ar
    49   25   46 1
    50   27   47 1
    51   27   48 1
    52   27   49 1
@<TRIPOS>MOLECULE
ZINC45358308
   49    52     0     0     0
SMALL
USER_CHARGES

@<TRIPOS>ATOM
      1 C1         -0.2523    1.9919    0.4608 C.ar      1 <0>        -0.1605
      2 C2          1.0026    2.5603    0.3477 C.ar      1 <0>        -0.0360
      3 C3          2.1221    1.7547    0.2618 C.ar      1 <0>        -0.1726
      4 C4          1.9877    0.3765    0.2885 C.ar      1 <0>         0.1436
      5 C5          0.7318   -0.1937    0.4017 C.ar      1 <0>        -0.1929
      6 C6         -0.3890    0.6144    0.4882 C.ar      1 <0>         0.1532
      7 F1         -1.6156    0.0591    0.5993 F         1 <0>        -0.1197
      8 F2          3.0822   -0.4109    0.2035 F         1 <0>        -0.1281
      9 C7          3.4895    2.3759    0.1384 C.3       1 <0>         0.1657
     10 N1          4.1927    2.2667    1.4190 N.am      1 <0>        -0.7225
     11 C8          5.4415    2.7576    1.5460 C.2       1 <0>         0.5048
     12 O1          5.9830    3.2897    0.6002 O.2       1 <0>        -0.4615
     13 C9          6.1649    2.6453    2.8632 C.3       1 <0>         0.0491
     14 C10         5.6946    3.7604    3.7999 C.3       1 <0>        -0.1515
     15 C11         5.9681    5.1192    3.1474 C.3       1 <0>         0.1541
     16 N2          7.3907    5.1932    2.7877 N.pl3     1 <0>        -0.6531
     17 C12         7.9678    4.1220    1.9642 C.3       1 <0>         0.1334
     18 C13         7.6719    2.7745    2.6299 C.3       1 <0>        -0.1392
     19 C14         8.1717    6.2515    3.2159 C.ar      1 <0>         0.4632
     20 C15         8.2924    7.4159    2.4418 C.ar      1 <0>        -0.2033
     21 C16         7.7558    7.8672    1.1593 C.2       1 <0>        -0.1726
     22 C17         8.2431    9.1006    0.9469 C.2       1 <0>         0.0668
     23 N3          9.0477    9.4688    1.9940 N.pl3     1 <0>        -0.5704
     24 H1          9.5123   10.3172    2.0669 H         1 <0>         0.4276
     25 C18         9.0985    8.4646    2.9213 C.ar      1 <0>         0.3220
     26 N4          9.7157    8.3092    4.0917 N.ar      1 <0>        -0.5257
     27 C19         9.5744    7.1996    4.7836 C.ar      1 <0>         0.3267
     28 N5          8.8227    6.1935    4.3738 N.ar      1 <0>        -0.5514
     29 N6          5.8740    1.3402    3.4716 N.4       1 <0>        -0.6334
     30 H2         -1.1261    2.6226    0.5324 H         1 <0>         0.1524
     31 H3          1.1083    3.6350    0.3261 H         1 <0>         0.1507
     32 H4          0.6260   -1.2683    0.4223 H         1 <0>         0.1555
     33 H5          4.0568    1.8554   -0.6332 H         1 <0>         0.0952
     34 H6          3.3880    3.4270   -0.1319 H         1 <0>         0.0987
     35 H7          3.7596    1.8412    2.1754 H         1 <0>         0.3934
     36 H8          4.6255    3.6540    3.9843 H         1 <0>         0.0996
     37 H9          6.2353    3.6948    4.7440 H         1 <0>         0.1117
     38 H10         5.3584    5.2229    2.2499 H         1 <0>         0.0708
     39 H11         5.7268    5.9170    3.8498 H         1 <0>         0.0935
     40 H12         7.5212    4.1444    0.9702 H         1 <0>         0.1152
     41 H13         9.0460    4.2620    1.8858 H         1 <0>         0.0852
     42 H14         8.1940    2.7181    3.5851 H         1 <0>         0.1038
     43 H15         8.0103    1.9663    1.9815 H         1 <0>         0.1005
     44 H16         7.0948    7.3150    0.5077 H         1 <0>         0.1546
     45 H17         8.0332    9.7105    0.0807 H         1 <0>         0.1868
     46 H18        10.0904    7.1093    5.7281 H         1 <0>         0.2027
     47 H19         6.1834    0.6048    2.8541 H         1 <0>         0.4402
     48 H20         6.3582    1.2649    4.3536 H         1 <0>         0.4446
     49 H21         4.8804    1.2547    3.6251 H         1 <0>         0.4293
@<TRIPOS>BOND
     1    1    6 ar
     2    1    2 ar
     3    1   30 1
     4    2    3 ar
     5    2   31 1
     6    3    4 ar
     7    3    9 1
     8    4    5 ar
     9    4    8 1
    10    5    6 ar
    11    5   32 1
    12    6    7 1
    13    9   10 1
    14    9   33 1
    15    9   34 1
    16   10   11 am
    17   10   35 1
    18   11   12 2
    19   11   13 1
    20   13   18 1
    21   13   14 1
    22   13   29 1
    23   14   15 1
    24   14   36 1
    25   14   37 1
    26   15   16 1
    27   15   38 1
    28   15   39 1
    29   16   17 1
    30   16   19 1
    31   17   18 1
    32   17   40 1
    33   17   41 1
    34   18   42 1
    35   18   43 1
    36   19   28 ar
    37   19   20 ar
    38   20   25 ar
    39   20   21 1
    40   21   22 2
    41   21   44 1
    42   22   23 1
    43   22   45 1
    44   23   24 1
    45   23   25 1
    46   25   26 ar
    47   26   27 ar
    48   27   28 ar
    49   27   46 1
    50   29   47 1
    51   29   48 1
    52   29   49 1
@<TRIPOS>MOLECULE
ZINC45354914
   45    48     0     0     0
SMALL
USER_CHARGES

@<TRIPOS>ATOM
      1 C1         -0.0048    1.4794   -0.2987 C.ar      1 <0>        -0.0898
      2 C2          1.1990    2.1541   -0.2126 C.ar      1 <0>        -0.1045
      3 C3          2.3832    1.4471   -0.1211 C.ar      1 <0>        -0.1098
      4 C4          2.3646    0.0649   -0.1159 C.ar      1 <0>        -0.1368
      5 C5          1.1606   -0.6107   -0.2019 C.ar      1 <0>        -0.0272
      6 C6         -0.0246    0.0977   -0.2932 C.ar      1 <0>        -0.0966
      7 Cl1         1.1365   -2.3465   -0.1960 Cl        1 <0>        -0.0474
      8 C7          3.6948    2.1833   -0.0274 C.3       1 <0>        -0.0980
      9 C8          4.0318    2.4398    1.4429 C.3       1 <0>         0.0698
     10 C9          2.9250    3.2831    2.0800 C.3       1 <0>        -0.1562
     11 C10         2.7928    4.6051    1.3175 C.3       1 <0>         0.1517
     12 N1          4.1063    5.2625    1.2795 N.pl3     1 <0>        -0.6552
     13 C11         5.2592    4.5083    0.7690 C.3       1 <0>         0.1516
     14 C12         5.3638    3.1873    1.5377 C.3       1 <0>        -0.1516
     15 C13         4.2544    6.5668    1.7156 C.ar      1 <0>         0.4615
     16 C14         4.0981    7.6438    0.8294 C.ar      1 <0>        -0.2034
     17 C15         3.7850    7.7784   -0.5920 C.2       1 <0>        -0.1760
     18 C16         3.7745    9.0935   -0.8644 C.2       1 <0>         0.0691
     19 N2          4.0564    9.8056    0.2727 N.pl3     1 <0>        -0.5702
     20 H1          4.1049   10.7730    0.3254 H         1 <0>         0.4280
     21 C17         4.2585    8.9519    1.3219 C.ar      1 <0>         0.3223
     22 N3          4.5533    9.1152    2.6109 N.ar      1 <0>        -0.5248
     23 C18         4.6913    8.0761    3.4054 C.ar      1 <0>         0.3277
     24 N4          4.5431    6.8321    2.9861 N.ar      1 <0>        -0.5494
     25 N5          4.1388    1.1573    2.1513 N.4       1 <0>        -0.6367
     26 H2         -0.9300    2.0324   -0.3657 H         1 <0>         0.1431
     27 H3          1.2141    3.2340   -0.2174 H         1 <0>         0.1380
     28 H4          3.2900   -0.4874   -0.0450 H         1 <0>         0.1334
     29 H5         -0.9650   -0.4293   -0.3604 H         1 <0>         0.1432
     30 H6          4.4823    1.5816   -0.4810 H         1 <0>         0.1032
     31 H7          3.6158    3.1347   -0.5533 H         1 <0>         0.1274
     32 H8          1.9811    2.7400    2.0330 H         1 <0>         0.0976
     33 H9          3.1765    3.4870    3.1208 H         1 <0>         0.0976
     34 H10         2.4533    4.4081    0.3006 H         1 <0>         0.0728
     35 H11         2.0760    5.2501    1.8258 H         1 <0>         0.0900
     36 H12         5.1208    4.3034   -0.2925 H         1 <0>         0.0744
     37 H13         6.1698    5.0893    0.9155 H         1 <0>         0.0909
     38 H14         5.5923    3.3922    2.5837 H         1 <0>         0.0986
     39 H15         6.1556    2.5761    1.1048 H         1 <0>         0.0983
     40 H16         3.5984    6.9749   -1.2891 H         1 <0>         0.1539
     41 H17         3.5746    9.5252   -1.8340 H         1 <0>         0.1870
     42 H18         4.9309    8.2471    4.4445 H         1 <0>         0.2030
     43 H19         4.8680    0.6008    1.7311 H         1 <0>         0.4328
     44 H20         4.3610    1.3263    3.1209 H         1 <0>         0.4356
     45 H21         3.2608    0.6641    2.0885 H         1 <0>         0.4309
@<TRIPOS>BOND
     1    1    6 ar
     2    1    2 ar
     3    1   26 1
     4    2    3 ar
     5    2   27 1
     6    3    4 ar
     7    3    8 1
     8    4    5 ar
     9    4   28 1
    10    5    6 ar
    11    5    7 1
    12    6   29 1
    13    8    9 1
    14    8   30 1
    15    8   31 1
    16    9   14 1
    17    9   10 1
    18    9   25 1
    19   10   11 1
    20   10   32 1
    21   10   33 1
    22   11   12 1
    23   11   34 1
    24   11   35 1
    25   12   13 1
    26   12   15 1
    27   13   14 1
    28   13   36 1
    29   13   37 1
    30   14   38 1
    31   14   39 1
    32   15   24 ar
    33   15   16 ar
    34   16   21 ar
    35   16   17 1
    36   17   18 2
    37   17   40 1
    38   18   19 1
    39   18   41 1
    40   19   20 1
    41   19   21 1
    42   21   22 ar
    43   22   23 ar
    44   23   24 ar
    45   23   42 1
    46   25   43 1
    47   25   44 1
    48   25   45 1
@<TRIPOS>MOLECULE
ZINC45354918
   45    48     0     0     0
SMALL
USER_CHARGES

@<TRIPOS>ATOM
      1 C1         -0.8521   -4.3124   -2.2753 C.ar      1 <0>        -0.0959
      2 C2         -2.0697   -3.6586   -2.2328 C.ar      1 <0>        -0.0912
      3 C3         -2.2139   -2.5149   -1.4707 C.ar      1 <0>        -0.0928
      4 C4         -1.1396   -2.0242   -0.7498 C.ar      1 <0>        -0.0659
      5 C5          0.0782   -2.6790   -0.7924 C.ar      1 <0>        -0.1119
      6 C6          0.2214   -3.8227   -1.5554 C.ar      1 <0>        -0.0946
      7 C7          1.2489   -2.1450   -0.0079 C.3       1 <0>        -0.1049
      8 C8          1.2451   -2.7572    1.3943 C.3       1 <0>         0.0707
      9 C9          2.3911   -2.1604    2.2143 C.3       1 <0>        -0.1519
     10 C10         3.7203   -2.4404    1.5061 C.3       1 <0>         0.1520
     11 N1          3.8356   -3.8862    1.2711 N.pl3     1 <0>        -0.6545
     12 C11         2.7446   -4.5772    0.5704 C.3       1 <0>         0.1525
     13 C12         1.4264   -4.2732    1.2891 C.3       1 <0>        -0.1556
     14 C13         4.9502   -4.5834    1.7011 C.ar      1 <0>         0.4621
     15 C14         6.0263   -4.8253    0.8334 C.ar      1 <0>        -0.2039
     16 C15         6.3249   -4.5042   -0.5610 C.2       1 <0>        -0.1759
     17 C16         7.5380   -5.0159   -0.8261 C.2       1 <0>         0.0688
     18 N2          8.0342   -5.6373    0.2907 N.pl3     1 <0>        -0.5703
     19 H1          8.8951   -6.0811    0.3441 H         1 <0>         0.4279
     20 C17         7.1375   -5.5389    1.3188 C.ar      1 <0>         0.3225
     21 N3          7.1226   -5.9569    2.5837 N.ar      1 <0>        -0.5253
     22 C18         6.0916   -5.7079    3.3614 C.ar      1 <0>         0.3281
     23 N4          5.0314   -5.0365    2.9486 N.ar      1 <0>        -0.5496
     24 N5         -0.0339   -2.4619    2.0538 N.4       1 <0>        -0.6373
     25 Cl1        -1.3198   -0.5871    0.2073 Cl        1 <0>        -0.0679
     26 H2         -0.7411   -5.2086   -2.8677 H         1 <0>         0.1418
     27 H3         -2.9081   -4.0417   -2.7955 H         1 <0>         0.1441
     28 H4         -3.1648   -2.0039   -1.4382 H         1 <0>         0.1446
     29 H5          1.1722   -4.3338   -1.5890 H         1 <0>         0.1420
     30 H6          2.1768   -2.4069   -0.5162 H         1 <0>         0.1303
     31 H7          1.1704   -1.0605    0.0690 H         1 <0>         0.1056
     32 H8          2.2488   -1.0838    2.3086 H         1 <0>         0.0977
     33 H9          2.4042   -2.6142    3.2053 H         1 <0>         0.1002
     34 H10         3.7448   -1.9122    0.5529 H         1 <0>         0.0745
     35 H11         4.5463   -2.1051    2.1333 H         1 <0>         0.0919
     36 H12         2.6896   -4.2232   -0.4591 H         1 <0>         0.0723
     37 H13         2.9269   -5.6518    0.5802 H         1 <0>         0.0910
     38 H14         1.4486   -4.7072    2.2888 H         1 <0>         0.0986
     39 H15         0.5974   -4.7005    0.7248 H         1 <0>         0.0972
     40 H16         5.6916   -3.9604   -1.2463 H         1 <0>         0.1538
     41 H17         8.0462   -4.9485   -1.7767 H         1 <0>         0.1869
     42 H18         6.1148   -6.0628    4.3812 H         1 <0>         0.2030
     43 H19        -0.7897   -2.8548    1.5131 H         1 <0>         0.4282
     44 H20        -0.0365   -2.8656    2.9785 H         1 <0>         0.4337
     45 H21        -0.1538   -1.4624    2.1228 H         1 <0>         0.4274
@<TRIPOS>BOND
     1    1    6 ar
     2    1    2 ar
     3    1   26 1
     4    2    3 ar
     5    2   27 1
     6    3    4 ar
     7    3   28 1
     8    4    5 ar
     9    4   25 1
    10    5    6 ar
    11    5    7 1
    12    6   29 1
    13    7    8 1
    14    7   30 1
    15    7   31 1
    16    8   13 1
    17    8    9 1
    18    8   24 1
    19    9   10 1
    20    9   32 1
    21    9   33 1
    22   10   11 1
    23   10   34 1
    24   10   35 1
    25   11   12 1
    26   11   14 1
    27   12   13 1
    28   12   36 1
    29   12   37 1
    30   13   38 1
    31   13   39 1
    32   14   23 ar
    33   14   15 ar
    34   15   20 ar
    35   15   16 1
    36   16   17 2
    37   16   40 1
    38   17   18 1
    39   17   41 1
    40   18   19 1
    41   18   20 1
    42   20   21 ar
    43   21   22 ar
    44   22   23 ar
    45   22   42 1
    46   24   43 1
    47   24   44 1
    48   24   45 1
@<TRIPOS>MOLECULE
ZINC45368487
   49    52     0     0     0
SMALL
USER_CHARGES

@<TRIPOS>ATOM
      1 C1         -0.2517    1.9911    0.4608 C.ar      1 <0>        -0.1016
      2 C2          1.0034    2.5593    0.3476 C.ar      1 <0>        -0.0694
      3 C3          2.1224    1.7528    0.2613 C.ar      1 <0>        -0.1142
      4 C4          1.9870    0.3759    0.2886 C.ar      1 <0>        -0.0146
      5 C5          0.7316   -0.1931    0.4022 C.ar      1 <0>        -0.1020
      6 C6         -0.3883    0.6147    0.4881 C.ar      1 <0>        -0.0108
      7 Cl1        -1.9645   -0.0986    0.6308 Cl        1 <0>        -0.0361
      8 Cl2         3.3927   -0.6370    0.1796 Cl        1 <0>        -0.0540
      9 C7          3.4902    2.3730    0.1370 C.3       1 <0>         0.1606
     10 N1          4.1941    2.2638    1.4172 N.am      1 <0>        -0.7203
     11 C8          5.4433    2.7538    1.5433 C.2       1 <0>         0.5053
     12 O1          5.9847    3.2852    0.5970 O.2       1 <0>        -0.4609
     13 C9          6.1674    2.6414    2.8602 C.3       1 <0>         0.0489
     14 C10         5.6984    3.7572    3.7967 C.3       1 <0>        -0.1514
     15 C11         5.9725    5.1155    3.1436 C.3       1 <0>         0.1543
     16 N2          7.3950    5.1884    2.7831 N.pl3     1 <0>        -0.6530
     17 C12         7.9709    4.1165    1.9596 C.3       1 <0>         0.1335
     18 C13         7.6744    2.7694    2.6260 C.3       1 <0>        -0.1390
     19 C14         8.1771    6.2463    3.2104 C.ar      1 <0>         0.4633
     20 C15         8.2981    7.4103    2.4359 C.ar      1 <0>        -0.2032
     21 C16         7.7611    7.8616    1.1535 C.2       1 <0>        -0.1725
     22 C17         8.2492    9.0945    0.9404 C.2       1 <0>         0.0667
     23 N3          9.0546    9.4625    1.9869 N.pl3     1 <0>        -0.5704
     24 H1          9.5199   10.3105    2.0593 H         1 <0>         0.4275
     25 C18         9.1052    8.4586    2.9145 C.ar      1 <0>         0.3220
     26 N4          9.7230    8.3032    4.0846 N.ar      1 <0>        -0.5257
     27 C19         9.5813    7.1939    4.7770 C.ar      1 <0>         0.3266
     28 N5          8.8287    6.1882    4.3680 N.ar      1 <0>        -0.5514
     29 N6          5.8759    1.3368    3.4692 N.4       1 <0>        -0.6341
     30 H2         -1.1254    2.6219    0.5323 H         1 <0>         0.1492
     31 H3          1.1096    3.6339    0.3263 H         1 <0>         0.1488
     32 H4          0.6254   -1.2677    0.4235 H         1 <0>         0.1509
     33 H5          4.0567    1.8518   -0.6347 H         1 <0>         0.0979
     34 H6          3.3894    3.4241   -0.1336 H         1 <0>         0.0976
     35 H7          3.7612    1.8388    2.1740 H         1 <0>         0.3935
     36 H8          4.6294    3.6516    3.9817 H         1 <0>         0.0997
     37 H9          6.2397    3.6915    4.7406 H         1 <0>         0.1117
     38 H10         5.3624    5.2194    2.2464 H         1 <0>         0.0709
     39 H11         5.7322    5.9138    3.8459 H         1 <0>         0.0934
     40 H12         7.5237    4.1389    0.9658 H         1 <0>         0.1155
     41 H13         9.0491    4.2556    1.8806 H         1 <0>         0.0851
     42 H14         8.1970    2.7130    3.5808 H         1 <0>         0.1038
     43 H15         8.0117    1.9607    1.9776 H         1 <0>         0.1002
     44 H16         7.0994    7.3096    0.5025 H         1 <0>         0.1546
     45 H17         8.0392    9.7043    0.0741 H         1 <0>         0.1868
     46 H18        10.0978    7.1035    5.7212 H         1 <0>         0.2026
     47 H19         6.1844    0.6008    2.8517 H         1 <0>         0.4394
     48 H20         6.3606    1.2613    4.3509 H         1 <0>         0.4447
     49 H21         4.8823    1.2520    3.6233 H         1 <0>         0.4294
@<TRIPOS>BOND
     1    1    6 ar
     2    1    2 ar
     3    1   30 1
     4    2    3 ar
     5    2   31 1
     6    3    4 ar
     7    3    9 1
     8    4    5 ar
     9    4    8 1
    10    5    6 ar
    11    5   32 1
    12    6    7 1
    13    9   10 1
    14    9   33 1
    15    9   34 1
    16   10   11 am
    17   10   35 1
    18   11   12 2
    19   11   13 1
    20   13   18 1
    21   13   14 1
    22   13   29 1
    23   14   15 1
    24   14   36 1
    25   14   37 1
    26   15   16 1
    27   15   38 1
    28   15   39 1
    29   16   17 1
    30   16   19 1
    31   17   18 1
    32   17   40 1
    33   17   41 1
    34   18   42 1
    35   18   43 1
    36   19   28 ar
    37   19   20 ar
    38   20   25 ar
    39   20   21 1
    40   21   22 2
    41   21   44 1
    42   22   23 1
    43   22   45 1
    44   23   24 1
    45   23   25 1
    46   25   26 ar
    47   26   27 ar
    48   27   28 ar
    49   27   46 1
    50   29   47 1
    51   29   48 1
    52   29   49 1
@<TRIPOS>MOLECULE
ZINC45374777
   49    52     0     0     0
SMALL
USER_CHARGES

@<TRIPOS>ATOM
      1 C1          0.7695    1.5761    0.0892 C.ar      1 <0>        -0.1127
      2 C2          2.0411    2.1182    0.1165 C.ar      1 <0>        -0.0876
      3 C3          3.1464    1.2887    0.1091 C.ar      1 <0>        -0.1090
      4 C4          2.9803   -0.0846    0.0747 C.ar      1 <0>        -0.0228
      5 C5          1.7078   -0.6263    0.0478 C.ar      1 <0>        -0.1204
      6 C6          0.6029    0.2045    0.0548 C.ar      1 <0>        -0.0870
      7 C7          1.5260   -2.1218    0.0098 C.3       1 <0>         0.1600
      8 N1          1.6903   -2.6681    1.3592 N.am      1 <0>        -0.7189
      9 C8          1.5702   -3.9941    1.5686 C.2       1 <0>         0.5042
     10 O1          1.3262   -4.7350    0.6400 O.2       1 <0>        -0.4624
     11 C9          1.7393   -4.5561    2.9567 C.3       1 <0>         0.0489
     12 C10         3.2302   -4.7012    3.2699 C.3       1 <0>        -0.1517
     13 C11         3.8788   -5.6220    2.2315 C.3       1 <0>         0.1542
     14 N2          3.1422   -6.8929    2.2008 N.pl3     1 <0>        -0.6529
     15 C12         1.6875   -6.8615    1.9965 C.3       1 <0>         0.1334
     16 C13         1.0635   -5.9268    3.0375 C.3       1 <0>        -0.1384
     17 C14         3.8056   -8.0960    2.3606 C.ar      1 <0>         0.4637
     18 C15         4.3177   -8.7880    1.2522 C.ar      1 <0>        -0.2034
     19 C16         4.3444   -8.5571   -0.1909 C.2       1 <0>        -0.1722
     20 C17         4.9935   -9.5976   -0.7386 C.2       1 <0>         0.0664
     21 N3          5.3816  -10.4720    0.2434 N.pl3     1 <0>        -0.5704
     22 H1          5.8666  -11.2983    0.0924 H         1 <0>         0.4274
     23 C18         4.9851  -10.0077    1.4673 C.ar      1 <0>         0.3220
     24 N4          5.1034  -10.4571    2.7159 N.ar      1 <0>        -0.5259
     25 C19         4.6071   -9.7752    3.7252 C.ar      1 <0>         0.3265
     26 N5          3.9792   -8.6235    3.5688 N.ar      1 <0>        -0.5516
     27 N6          1.1209   -3.6473    3.9312 N.4       1 <0>        -0.6331
     28 Cl1         4.3683   -1.1272    0.0648 Cl        1 <0>        -0.0581
     29 H2         -0.0941    2.2247    0.0991 H         1 <0>         0.1370
     30 H3          2.1707    3.1901    0.1434 H         1 <0>         0.1399
     31 H4          4.1397    1.7123    0.1298 H         1 <0>         0.1404
     32 H5         -0.3907   -0.2184    0.0333 H         1 <0>         0.1360
     33 H6          0.5274   -2.3572   -0.3583 H         1 <0>         0.0942
     34 H7          2.2708   -2.5617   -0.6534 H         1 <0>         0.0953
     35 H8          1.8855   -2.0755    2.1019 H         1 <0>         0.3931
     36 H9          3.7063   -3.7213    3.2351 H         1 <0>         0.0996
     37 H10         3.3530   -5.1307    4.2642 H         1 <0>         0.1115
     38 H11         3.8370   -5.1515    1.2492 H         1 <0>         0.0710
     39 H12         4.9172   -5.8080    2.5060 H         1 <0>         0.0928
     40 H13         1.4671   -6.4922    0.9950 H         1 <0>         0.1153
     41 H14         1.2801   -7.8654    2.1159 H         1 <0>         0.0849
     42 H15         1.2067   -6.3448    4.0340 H         1 <0>         0.1033
     43 H16        -0.0025   -5.8193    2.8373 H         1 <0>         0.1001
     44 H17         3.9230   -7.7126   -0.7158 H         1 <0>         0.1546
     45 H18         5.1810   -9.7264   -1.7944 H         1 <0>         0.1868
     46 H19         4.7218  -10.1709    4.7235 H         1 <0>         0.2025
     47 H20         0.1380   -3.5510    3.7247 H         1 <0>         0.4394
     48 H21         1.2340   -4.0234    4.8607 H         1 <0>         0.4443
     49 H22         1.5660   -2.7434    3.8777 H         1 <0>         0.4296
@<TRIPOS>BOND
     1    1    6 ar
     2    1    2 ar
     3    1   29 1
     4    2    3 ar
     5    2   30 1
     6    3    4 ar
     7    3   31 1
     8    4    5 ar
     9    4   28 1
    10    5    6 ar
    11    5    7 1
    12    6   32 1
    13    7    8 1
    14    7   33 1
    15    7   34 1
    16    8    9 am
    17    8   35 1
    18    9   10 2
    19    9   11 1
    20   11   16 1
    21   11   12 1
    22   11   27 1
    23   12   13 1
    24   12   36 1
    25   12   37 1
    26   13   14 1
    27   13   38 1
    28   13   39 1
    29   14   15 1
    30   14   17 1
    31   15   16 1
    32   15   40 1
    33   15   41 1
    34   16   42 1
    35   16   43 1
    36   17   26 ar
    37   17   18 ar
    38   18   23 ar
    39   18   19 1
    40   19   20 2
    41   19   44 1
    42   20   21 1
    43   20   45 1
    44   21   22 1
    45   21   23 1
    46   23   24 ar
    47   24   25 ar
    48   25   26 ar
    49   25   46 1
    50   27   47 1
    51   27   48 1
    52   27   49 1
@<TRIPOS>MOLECULE
ZINC45371262
   49    52     0     0     0
SMALL
USER_CHARGES

@<TRIPOS>ATOM
      1 C1         -1.0170   -4.3754   -2.0833 C.ar      1 <0>        -0.1160
      2 C2         -2.2234   -3.7054   -1.9942 C.ar      1 <0>        -0.0624
      3 C3         -2.3128   -2.5355   -1.2653 C.ar      1 <0>        -0.1749
      4 C4         -1.1909   -2.0330   -0.6218 C.ar      1 <0>         0.0777
      5 C5          0.0179   -2.7072   -0.7123 C.ar      1 <0>        -0.1230
      6 C6          0.1023   -3.8768   -1.4431 C.ar      1 <0>        -0.0724
      7 C7          1.2385   -2.1639   -0.0151 C.3       1 <0>        -0.0947
      8 C8          1.2781   -2.6842    1.4232 C.3       1 <0>         0.0702
      9 C9          2.4712   -2.0666    2.1561 C.3       1 <0>        -0.1513
     10 C10         3.7628   -2.4272    1.4153 C.3       1 <0>         0.1522
     11 N1          3.8333   -3.8877    1.2712 N.pl3     1 <0>        -0.6552
     12 C11         2.6979   -4.5930    0.6612 C.3       1 <0>         0.1531
     13 C12         1.4183   -4.2082    1.4104 C.3       1 <0>        -0.1555
     14 C13         4.9476   -4.5853    1.7011 C.ar      1 <0>         0.4620
     15 C14         6.0237   -4.8276    0.8334 C.ar      1 <0>        -0.2034
     16 C15         6.3224   -4.5066   -0.5609 C.2       1 <0>        -0.1757
     17 C16         7.5353   -5.0188   -0.8261 C.2       1 <0>         0.0688
     18 N2          8.0313   -5.6403    0.2907 N.pl3     1 <0>        -0.5704
     19 H1          8.8920   -6.0844    0.3441 H         1 <0>         0.4279
     20 C17         7.1346   -5.5416    1.3188 C.ar      1 <0>         0.3223
     21 N3          7.1196   -5.9596    2.5837 N.ar      1 <0>        -0.5250
     22 C18         6.0887   -5.7102    3.3615 C.ar      1 <0>         0.3277
     23 N4          5.0287   -5.0384    2.9486 N.ar      1 <0>        -0.5492
     24 N5          0.0351   -2.3129    2.1124 N.4       1 <0>        -0.6344
     25 O1         -1.2762   -0.8819    0.0956 O.3       1 <0>        -0.3386
     26 C19        -2.5526   -0.2412    0.1447 C.3       1 <0>         0.6052
     27 F1         -3.4889   -1.1101    0.7154 F         1 <0>        -0.1608
     28 F2         -2.4618    0.9204    0.9191 F         1 <0>        -0.1225
     29 F3         -2.9567    0.0933   -1.1522 F         1 <0>        -0.1515
     30 H2         -0.9501   -5.2922   -2.6503 H         1 <0>         0.1434
     31 H3         -3.0963   -4.0970   -2.4953 H         1 <0>         0.1445
     32 H4         -3.2550   -2.0122   -1.1967 H         1 <0>         0.1424
     33 H5          1.0433   -4.4019   -1.5142 H         1 <0>         0.1463
     34 H6          2.1342   -2.4895   -0.5441 H         1 <0>         0.1290
     35 H7          1.1973   -1.0747   -0.0064 H         1 <0>         0.1062
     36 H8          2.3590   -0.9828    2.1852 H         1 <0>         0.0983
     37 H9          2.5145   -2.4558    3.1733 H         1 <0>         0.0989
     38 H10         3.7604   -1.9624    0.4294 H         1 <0>         0.0746
     39 H11         4.6219   -2.0744    1.9859 H         1 <0>         0.0911
     40 H12         2.6087   -4.3048   -0.3862 H         1 <0>         0.0720
     41 H13         2.8544   -5.6692    0.7341 H         1 <0>         0.0907
     42 H14         1.4715   -4.5772    2.4347 H         1 <0>         0.0983
     43 H15         0.5566   -4.6486    0.9088 H         1 <0>         0.0964
     44 H16         5.6893   -3.9626   -1.2463 H         1 <0>         0.1541
     45 H17         8.0435   -4.9516   -1.7767 H         1 <0>         0.1868
     46 H18         6.1117   -6.0651    4.3812 H         1 <0>         0.2029
     47 H19        -0.7518   -2.7194    1.6291 H         1 <0>         0.4266
     48 H20         0.0611   -2.6559    3.0609 H         1 <0>         0.4344
     49 H21        -0.0577   -1.3082    2.1205 H         1 <0>         0.4331
@<TRIPOS>BOND
     1    1    6 ar
     2    1    2 ar
     3    1   30 1
     4    2    3 ar
     5    2   31 1
     6    3    4 ar
     7    3   32 1
     8    4    5 ar
     9    4   25 1
    10    5    6 ar
    11    5    7 1
    12    6   33 1
    13    7    8 1
    14    7   34 1
    15    7   35 1
    16    8   13 1
    17    8    9 1
    18    8   24 1
    19    9   10 1
    20    9   36 1
    21    9   37 1
    22   10   11 1
    23   10   38 1
    24   10   39 1
    25   11   12 1
    26   11   14 1
    27   12   13 1
    28   12   40 1
    29   12   41 1
    30   13   42 1
    31   13   43 1
    32   14   23 ar
    33   14   15 ar
    34   15   20 ar
    35   15   16 1
    36   16   17 2
    37   16   44 1
    38   17   18 1
    39   17   45 1
    40   18   19 1
    41   18   20 1
    42   20   21 ar
    43   21   22 ar
    44   22   23 ar
    45   22   46 1
    46   24   47 1
    47   24   48 1
    48   24   49 1
    49   25   26 1
    50   26   27 1
    51   26   28 1
    52   26   29 1
@<TRIPOS>MOLECULE
ZINC45391908
   49    52     0     0     0
SMALL
USER_CHARGES

@<TRIPOS>ATOM
      1 C1         -0.3277    1.5441    0.0370 C.ar      1 <0>        -0.0392
      2 C2          0.8074    2.3258   -0.0057 C.ar      1 <0>        -0.1123
      3 C3          2.0561    1.7340   -0.1008 C.ar      1 <0>        -0.0033
      4 C4          2.1727    0.3548   -0.1541 C.ar      1 <0>        -0.1168
      5 C5          1.0448   -0.4374   -0.1122 C.ar      1 <0>        -0.0770
      6 C6         -0.2166    0.1534   -0.0159 C.ar      1 <0>        -0.1467
      7 C7         -1.4293   -0.6900    0.0294 C.2       1 <0>         0.5716
      8 O1         -2.5263   -0.1731    0.1128 O.2       1 <0>        -0.5050
      9 N1         -1.3189   -2.0323   -0.0219 N.am      1 <0>        -0.7496
     10 C8         -2.5211   -2.8684    0.0230 C.3       1 <0>         0.0981
     11 C9         -2.1197   -4.3430   -0.0502 C.3       1 <0>         0.0533
     12 C10        -1.3650   -4.6017   -1.3561 C.3       1 <0>        -0.1536
     13 C11        -2.2597   -4.2258   -2.5414 C.3       1 <0>         0.1526
     14 N2         -3.5304   -4.9540   -2.4244 N.pl3     1 <0>        -0.6550
     15 C12        -4.2933   -4.8472   -1.1732 C.3       1 <0>         0.1487
     16 C13        -3.3757   -5.2161   -0.0033 C.3       1 <0>        -0.1493
     17 C14        -3.9999   -5.7252   -3.4723 C.ar      1 <0>         0.4606
     18 C15        -4.8307   -5.1705   -4.4580 C.ar      1 <0>        -0.2031
     19 C16        -5.4003   -3.8478   -4.7080 C.2       1 <0>        -0.1756
     20 C17        -6.1264   -3.9442   -5.8337 C.2       1 <0>         0.0698
     21 N3         -6.0630   -5.2248   -6.3191 N.pl3     1 <0>        -0.5700
     22 H1         -6.5067   -5.5375   -7.1229 H         1 <0>         0.4282
     23 C18        -5.2815   -5.9964   -5.5039 C.ar      1 <0>         0.3226
     24 N4         -4.9015   -7.2733   -5.5158 N.ar      1 <0>        -0.5241
     25 C19        -4.1219   -7.7510   -4.5703 C.ar      1 <0>         0.3271
     26 N5         -3.6709   -7.0095   -3.5742 N.ar      1 <0>        -0.5495
     27 N6         -1.2526   -4.6713    1.0892 N.4       1 <0>        -0.6353
     28 Cl1         3.4806    2.7247   -0.1540 Cl        1 <0>        -0.0438
     29 H2         -1.3006    2.0065    0.1156 H         1 <0>         0.1497
     30 H3          0.7226    3.4018    0.0348 H         1 <0>         0.1482
     31 H4          3.1489   -0.1010   -0.2289 H         1 <0>         0.1445
     32 H5          1.1369   -1.5126   -0.1542 H         1 <0>         0.1273
     33 H6         -0.4435   -2.4447   -0.0885 H         1 <0>         0.3939
     34 H7         -3.0576   -2.6836    0.9537 H         1 <0>         0.1004
     35 H8         -3.1649   -2.6246   -0.8221 H         1 <0>         0.1223
     36 H9         -0.4585   -3.9969   -1.3784 H         1 <0>         0.0928
     37 H10        -1.1004   -5.6572   -1.4204 H         1 <0>         0.1037
     38 H11        -2.4510   -3.1528   -2.5290 H         1 <0>         0.0742
     39 H12        -1.7659   -4.5002   -3.4736 H         1 <0>         0.0921
     40 H13        -4.6504   -3.8248   -1.0492 H         1 <0>         0.0761
     41 H14        -5.1411   -5.5316   -1.2026 H         1 <0>         0.0943
     42 H15        -3.0922   -6.2658   -0.0803 H         1 <0>         0.1042
     43 H16        -3.9004   -5.0486    0.9374 H         1 <0>         0.1024
     44 H17        -5.2639   -2.9632   -4.1036 H         1 <0>         0.1543
     45 H18        -6.6780   -3.1345   -6.2881 H         1 <0>         0.1875
     46 H19        -3.8347   -8.7913   -4.6126 H         1 <0>         0.2032
     47 H20        -1.7497   -4.5003    1.9504 H         1 <0>         0.4380
     48 H21        -0.9878   -5.6438    1.0411 H         1 <0>         0.4397
     49 H22        -0.4246   -4.0954    1.0587 H         1 <0>         0.4279
@<TRIPOS>BOND
     1    1    6 ar
     2    1    2 ar
     3    1   29 1
     4    2    3 ar
     5    2   30 1
     6    3    4 ar
     7    3   28 1
     8    4    5 ar
     9    4   31 1
    10    5    6 ar
    11    5   32 1
    12    6    7 1
    13    7    8 2
    14    7    9 am
    15    9   10 1
    16    9   33 1
    17   10   11 1
    18   10   34 1
    19   10   35 1
    20   11   16 1
    21   11   12 1
    22   11   27 1
    23   12   13 1
    24   12   36 1
    25   12   37 1
    26   13   14 1
    27   13   38 1
    28   13   39 1
    29   14   15 1
    30   14   17 1
    31   15   16 1
    32   15   40 1
    33   15   41 1
    34   16   42 1
    35   16   43 1
    36   17   26 ar
    37   17   18 ar
    38   18   23 ar
    39   18   19 1
    40   19   20 2
    41   19   44 1
    42   20   21 1
    43   20   45 1
    44   21   22 1
    45   21   23 1
    46   23   24 ar
    47   24   25 ar
    48   25   26 ar
    49   25   46 1
    50   27   47 1
    51   27   48 1
    52   27   49 1
@<TRIPOS>MOLECULE
ZINC45386336
   58    61     0     0     0
SMALL
USER_CHARGES

@<TRIPOS>ATOM
      1 C1         -0.0187    1.5258    0.0104 C.3       1 <0>        -0.1411
      2 C2          0.0021   -0.0041    0.0020 C.3       1 <0>        -0.0364
      3 C3          0.7421   -0.5109    1.2415 C.3       1 <0>        -0.1433
      4 C4         -1.4333   -0.5336    0.0129 C.3       1 <0>        -0.1486
      5 C5          0.7074   -0.4901   -1.2379 C.ar      1 <0>        -0.0469
      6 C6          0.0361   -1.2843   -2.1485 C.ar      1 <0>        -0.1114
      7 C7          0.6831   -1.7301   -3.2859 C.ar      1 <0>        -0.1391
      8 C8          2.0014   -1.3813   -3.5127 C.ar      1 <0>        -0.1333
      9 C9          2.6724   -0.5863   -2.6025 C.ar      1 <0>        -0.1014
     10 C10         2.0241   -0.1370   -1.4673 C.ar      1 <0>        -0.1033
     11 C11         2.7070   -1.8681   -4.7521 C.3       1 <0>        -0.0957
     12 C12         2.5119   -0.8545   -5.8815 C.3       1 <0>         0.0704
     13 C13         3.2015    0.4605   -5.5111 C.3       1 <0>        -0.1542
     14 C14         4.6918    0.2006   -5.2700 C.3       1 <0>         0.1487
     15 N1          5.2539   -0.4628   -6.4543 N.pl3     1 <0>        -0.6680
     16 C15         4.6105   -1.6871   -6.9501 C.3       1 <0>         0.1480
     17 C16         3.1211   -1.4061   -7.1725 C.3       1 <0>        -0.1511
     18 C17         6.3729    0.0582   -7.0938 C.ar      1 <0>         0.2438
     19 C18         7.6567   -0.3323   -6.7256 C.ar      1 <0>        -0.2026
     20 C19         8.7444    0.2091   -7.3861 C.ar      1 <0>         0.1489
     21 N2          8.5970    1.0873   -8.3569 N.ar      1 <0>        -0.4958
     22 C20         7.3979    1.4992   -8.7535 C.ar      1 <0>         0.2924
     23 C21         6.2432    0.9904   -8.1352 C.ar      1 <0>        -0.1576
     24 C22         5.1062    1.6296   -8.7989 C.2       1 <0>        -0.1999
     25 C23         5.6118    2.4439   -9.7385 C.2       1 <0>         0.0717
     26 N3          6.9806    2.3843   -9.7178 N.pl3     1 <0>        -0.5808
     27 H1          7.5682    2.8846  -10.3055 H         1 <0>         0.4245
     28 N4          1.0764   -0.6147   -6.0812 N.4       1 <0>        -0.6360
     29 H2          1.0039    1.9031    0.0027 H         1 <0>         0.0584
     30 H3         -0.5459    1.8868   -0.8726 H         1 <0>         0.0557
     31 H4         -0.5289    1.8773    0.9072 H         1 <0>         0.0660
     32 H5          0.2319   -0.1594    2.1383 H         1 <0>         0.0660
     33 H6          0.7568   -1.6008    1.2356 H         1 <0>         0.0584
     34 H7          1.7647   -0.1336    1.2338 H         1 <0>         0.0587
     35 H8         -1.9605   -0.1726   -0.8702 H         1 <0>         0.0582
     36 H9         -1.4185   -1.6235    0.0069 H         1 <0>         0.0602
     37 H10        -1.9435   -0.1821    0.9097 H         1 <0>         0.0658
     38 H11        -0.9938   -1.5568   -1.9713 H         1 <0>         0.1353
     39 H12         0.1588   -2.3512   -3.9970 H         1 <0>         0.1216
     40 H13         3.7024   -0.3141   -2.7796 H         1 <0>         0.1289
     41 H14         2.5473    0.4872   -0.7580 H         1 <0>         0.1304
     42 H15         3.7711   -1.9799   -4.5441 H         1 <0>         0.1221
     43 H16         2.2923   -2.8305   -5.0520 H         1 <0>         0.0984
     44 H17         3.0840    1.1750   -6.3259 H         1 <0>         0.0919
     45 H18         2.7513    0.8647   -4.6045 H         1 <0>         0.0968
     46 H19         5.2055    1.1474   -5.1032 H         1 <0>         0.0898
     47 H20         4.8143   -0.4423   -4.3983 H         1 <0>         0.0677
     48 H21         5.0706   -1.9859   -7.8920 H         1 <0>         0.0909
     49 H22         4.7263   -2.4840   -6.2155 H         1 <0>         0.0688
     50 H23         2.6137   -2.3305   -7.4483 H         1 <0>         0.0958
     51 H24         3.0044   -0.6741   -7.9716 H         1 <0>         0.0935
     52 H25         7.8021   -1.0503   -5.9321 H         1 <0>         0.1388
     53 H26         9.7399   -0.0955   -7.0986 H         1 <0>         0.1657
     54 H27         4.0609    1.4752   -8.5758 H         1 <0>         0.1394
     55 H28         5.0273    3.0612  -10.4047 H         1 <0>         0.1787
     56 H29         0.6744   -0.2515   -5.2300 H         1 <0>         0.4321
     57 H30         0.9475    0.0537   -6.8260 H         1 <0>         0.4322
     58 H31         0.6213   -1.4817   -6.3249 H         1 <0>         0.4316
@<TRIPOS>BOND
     1    1    2 1
     2    1   29 1
     3    1   30 1
     4    1   31 1
     5    2    3 1
     6    2    4 1
     7    2    5 1
     8    3   32 1
     9    3   33 1
    10    3   34 1
    11    4   35 1
    12    4   36 1
    13    4   37 1
    14    5   10 ar
    15    5    6 ar
    16    6    7 ar
    17    6   38 1
    18    7    8 ar
    19    7   39 1
    20    8    9 ar
    21    8   11 1
    22    9   10 ar
    23    9   40 1
    24   10   41 1
    25   11   12 1
    26   11   42 1
    27   11   43 1
    28   12   17 1
    29   12   13 1
    30   12   28 1
    31   13   14 1
    32   13   44 1
    33   13   45 1
    34   14   15 1
    35   14   46 1
    36   14   47 1
    37   15   16 1
    38   15   18 1
    39   16   17 1
    40   16   48 1
    41   16   49 1
    42   17   50 1
    43   17   51 1
    44   18   23 ar
    45   18   19 ar
    46   19   20 ar
    47   19   52 1
    48   20   21 ar
    49   20   53 1
    50   21   22 ar
    51   22   26 1
    52   22   23 ar
    53   23   24 1
    54   24   25 2
    55   24   54 1
    56   25   26 1
    57   25   55 1
    58   26   27 1
    59   28   56 1
    60   28   57 1
    61   28   58 1
