@<TRIPOS>MOLECULE
ZINC04098644
   30    32     0     0     0
SMALL
USER_CHARGES

@<TRIPOS>ATOM
      1 C1         -0.0166    1.3752    0.0096 C.ar      1 <0>        -0.0815
      2 C2          1.1673    2.0967    0.0022 C.ar      1 <0>        -0.0767
      3 C3          2.3862    1.4299   -0.0128 C.ar      1 <0>        -0.1068
      4 C4          2.4130    0.0216   -0.0213 C.ar      1 <0>        -0.1507
      5 C5          1.2129   -0.6924   -0.0133 C.ar      1 <0>         0.1619
      6 C6          0.0021   -0.0041    0.0020 C.ar      1 <0>        -0.1258
      7 O1          1.2262   -2.0482   -0.0208 O.3       1 <0>        -0.4759
      8 C7          3.7081   -0.6857   -0.0381 C.2       1 <0>         0.4317
      9 O2          3.7568   -1.8731   -0.2956 O.2       1 <0>        -0.3989
     10 C8          4.9435    0.0642    0.2605 C.ar      1 <0>        -0.1447
     11 C9          4.9206    1.4726    0.2706 C.ar      1 <0>        -0.1088
     12 C10         6.0831    2.1795    0.5528 C.ar      1 <0>        -0.0564
     13 C11         7.2598    1.4978    0.8228 C.ar      1 <0>        -0.0576
     14 C12         7.2897    0.1187    0.8141 C.ar      1 <0>        -0.1052
     15 C13         6.1359   -0.6094    0.5339 C.ar      1 <0>         0.1609
     16 O3          6.1702   -1.9649    0.5265 O.3       1 <0>        -0.4775
     17 C14         8.5173    2.2702    1.1280 C.3       1 <0>         0.1125
     18 O4          8.6055    2.4998    2.5357 O.3       1 <0>        -0.5653
     19 C15         3.6576    2.1855   -0.0193 C.2       1 <0>         0.4392
     20 O5          3.6644    3.3768   -0.2594 O.2       1 <0>        -0.4215
     21 H1         -0.9617    1.8976    0.0260 H         1 <0>         0.1444
     22 H2          1.1421    3.1764    0.0076 H         1 <0>         0.1468
     23 H3         -0.9277   -0.5535    0.0085 H         1 <0>         0.1452
     24 H4          1.2388   -2.4464    0.8603 H         1 <0>         0.3989
     25 H5          6.0701    3.2594    0.5615 H         1 <0>         0.1474
     26 H6          8.2133   -0.3995    1.0255 H         1 <0>         0.1459
     27 H7          6.3828   -2.3483   -0.3354 H         1 <0>         0.4023
     28 H8          9.3843    1.6978    0.7982 H         1 <0>         0.0640
     29 H9          8.4926    3.2261    0.6048 H         1 <0>         0.0650
     30 H10         9.3924    2.9930    2.8052 H         1 <0>         0.3873
@<TRIPOS>BOND
     1    1    6 ar
     2    1    2 ar
     3    1   21 1
     4    2    3 ar
     5    2   22 1
     6    3   19 1
     7    3    4 ar
     8    4    5 ar
     9    4    8 1
    10    5    6 ar
    11    5    7 1
    12    6   23 1
    13    7   24 1
    14    8    9 2
    15    8   10 1
    16   10   15 ar
    17   10   11 ar
    18   11   12 ar
    19   11   19 1
    20   12   13 ar
    21   12   25 1
    22   13   14 ar
    23   13   17 1
    24   14   15 ar
    25   14   26 1
    26   15   16 1
    27   16   27 1
    28   17   18 1
    29   17   28 1
    30   17   29 1
    31   18   30 1
    32   19   20 2
