@<TRIPOS>MOLECULE
ZINC13608478
   22    22     0     0     0
SMALL
USER_CHARGES
4-(aminomethyl)-N-methyl-pyridin-3-amine
@<TRIPOS>ATOM
      1 C1         -0.0127    1.0858    0.0080 C.3       1 <0>         0.0772
      2 N1         -0.6984    1.5583    1.2133 N.pl3     1 <0>        -0.7443
      3 C2         -0.2045    1.2205    2.4758 C.ar      1 <0>         0.1844
      4 C3          0.9329    0.4324    2.6001 C.ar      1 <0>         0.0494
      5 N2          1.4049    0.1166    3.7893 N.ar      1 <0>        -0.4169
      6 C4          0.8186    0.5207    4.8994 C.ar      1 <0>         0.0501
      7 C5         -0.3203    1.3029    4.8573 C.ar      1 <0>        -0.0935
      8 C6         -0.8482    1.6640    3.6284 C.ar      1 <0>        -0.2097
      9 C7         -2.0886    2.5153    3.5410 C.3       1 <0>         0.0578
     10 H1          0.0021   -0.0041    0.0020 H         1 <0>         0.0679
     11 H2          1.0099    1.4631    0.0003 H         1 <0>         0.0675
     12 H3         -0.5399    1.4469   -0.8751 H         1 <0>         0.0872
     13 H4         -1.4954    2.1056    1.1349 H         1 <0>         0.3922
     14 H5          1.4379    0.0789    1.7133 H         1 <0>         0.1654
     15 H6          1.2344    0.2367    5.8549 H         1 <0>         0.1672
     16 H7         -0.7930    1.6291    5.7719 H         1 <0>         0.1471
     17 H8         -2.2343    3.0430    4.4835 H         1 <0>         0.1496
     18 H9         -1.9768    3.2386    2.7332 H         1 <0>         0.1333
     19 H10        -3.3397    0.9391    3.9754 H         1 <0>         0.4406
     20 H11        -4.0972    2.2071    3.2110 H         1 <0>         0.4414
     21 N3         -3.2455    1.6498    3.2517 N.4       1 <0>        -0.6474
     22 H12        -3.1035    1.1883    2.3455 H         1 <0>         0.4332
@<TRIPOS>BOND
     1    1    2 1
     2    1   10 1
     3    1   11 1
     4    1   12 1
     5    2    3 1
     6    2   13 1
     7    3    8 ar
     8    3    4 ar
     9    4    5 ar
    10    4   14 1
    11    5    6 ar
    12    6    7 ar
    13    6   15 1
    14    7    8 ar
    15    7   16 1
    16    8    9 1
    17    9   17 1
    18    9   18 1
    19    9   21 1
    20   19   21 1
    21   20   21 1
    22   21   22 1
@<TRIPOS>MOLECULE
ZINC13608481
   25    25     0     0     0
SMALL
USER_CHARGES
4-(aminomethyl)-N-ethyl-pyridin-3-amine
@<TRIPOS>ATOM
      1 C1          0.9418    3.6428    0.0126 C.3       1 <0>        -0.1693
      2 C2          1.2417    2.1425    0.0017 C.3       1 <0>         0.1077
      3 N1         -0.0169    1.3929    0.0097 N.pl3     1 <0>        -0.7406
      4 C3          0.0021   -0.0041    0.0020 C.ar      1 <0>         0.1866
      5 C4          1.2086   -0.6927   -0.0132 C.ar      1 <0>         0.0488
      6 N2          1.2302   -2.0104   -0.0205 N.ar      1 <0>        -0.4167
      7 C5          0.1210   -2.7237   -0.0133 C.ar      1 <0>         0.0494
      8 C6         -1.1179   -2.1106    0.0023 C.ar      1 <0>        -0.0931
      9 C7         -1.1882   -0.7271    0.0153 C.ar      1 <0>        -0.2102
     10 C8         -2.5198   -0.0218    0.0382 C.3       1 <0>         0.0577
     11 H1          0.3583    3.9031   -0.8704 H         1 <0>         0.0619
     12 H2          0.3752    3.8936    0.9094 H         1 <0>         0.0647
     13 H3          1.8783    4.2006    0.0067 H         1 <0>         0.0857
     14 H4          1.8253    1.8823    0.8848 H         1 <0>         0.0743
     15 H5          1.8083    1.8918   -0.8951 H         1 <0>         0.0745
     16 H6         -0.8634    1.8664    0.0163 H         1 <0>         0.3904
     17 H7          2.1381   -0.1427   -0.0195 H         1 <0>         0.1646
     18 H8          0.1813   -3.8020   -0.0193 H         1 <0>         0.1668
     19 H9         -2.0206   -2.7034    0.0081 H         1 <0>         0.1468
     20 H10        -3.2877   -0.7070    0.3972 H         1 <0>         0.1497
     21 H11        -2.4629    0.8405    0.7026 H         1 <0>         0.1331
     22 H12        -2.8552   -0.3460   -1.9669 H         1 <0>         0.4406
     23 H13        -3.7490    0.9034   -1.3298 H         1 <0>         0.4413
     24 N3         -2.8403    0.4430   -1.3228 N.4       1 <0>        -0.6476
     25 H14        -2.1236    1.1117   -1.6287 H         1 <0>         0.4331
@<TRIPOS>BOND
     1    1    2 1
     2    1   11 1
     3    1   12 1
     4    1   13 1
     5    2    3 1
     6    2   14 1
     7    2   15 1
     8    3    4 1
     9    3   16 1
    10    4    9 ar
    11    4    5 ar
    12    5    6 ar
    13    5   17 1
    14    6    7 ar
    15    7    8 ar
    16    7   18 1
    17    8    9 ar
    18    8   19 1
    19    9   10 1
    20   10   20 1
    21   10   21 1
    22   10   24 1
    23   22   24 1
    24   23   24 1
    25   24   25 1
