@<TRIPOS>MOLECULE
ZINC16524095
   22    24     0     0     0
SMALL
USER_CHARGES

@<TRIPOS>ATOM
      1 C1         -0.0166    1.3755    0.0096 C.ar      1 <0>        -0.1468
      2 C2          1.1723    2.0865    0.0021 C.ar      1 <0>        -0.0778
      3 C3          2.3863    1.4287   -0.0135 C.ar      1 <0>        -0.1470
      4 C4          2.4274    0.0394   -0.0213 C.ar      1 <0>         0.1614
      5 C5          1.2215   -0.6779   -0.0131 C.ar      1 <0>        -0.1127
      6 C6          0.0021   -0.0041    0.0020 C.ar      1 <0>        -0.0481
      7 C7          1.5859   -2.1086   -0.0236 C.2       1 <0>        -0.0610
      8 C8          0.7296   -3.1961   -0.0210 C.2       1 <0>        -0.0588
      9 C9          1.0374   -4.6470   -0.0249 C.2       1 <0>         0.4697
     10 O1          2.3104   -5.0997   -0.0323 O.3       1 <0>        -0.5102
     11 N1          0.0331   -5.4566   -0.0204 N.2       1 <0>        -0.6148
     12 C10        -1.2409   -5.0231   -0.0125 C.2       1 <0>         0.3772
     13 S1         -2.6819   -5.9474   -0.0049 S.2       1 <0>        -0.5006
     14 S2         -1.0586   -3.2456   -0.0041 S.3       1 <0>        -0.1240
     15 C11         3.0640   -2.1274   -0.0379 C.2       1 <0>         0.5542
     16 O2          3.7675   -3.1197   -0.0491 O.2       1 <0>        -0.4382
     17 N2          3.4928   -0.8536   -0.0358 N.am      1 <0>        -0.6607
     18 H1         -0.9595    1.9019    0.0259 H         1 <0>         0.1304
     19 H2          1.1495    3.1662    0.0081 H         1 <0>         0.1300
     20 H3          3.3059    1.9949   -0.0199 H         1 <0>         0.1274
     21 H4         -0.9244   -0.5591    0.0082 H         1 <0>         0.1329
     22 H5          4.4265   -0.5909   -0.0442 H         1 <0>         0.4173
@<TRIPOS>BOND
     1    1    6 ar
     2    1    2 ar
     3    1   18 1
     4    2    3 ar
     5    2   19 1
     6    3    4 ar
     7    3   20 1
     8    4   17 1
     9    4    5 ar
    10    5    6 ar
    11    5    7 1
    12    6   21 1
    13    7    8 2
    14    7   15 1
    15    8   14 1
    16    8    9 1
    17    9   10 1
    18    9   11 2
    19   11   12 1
    20   12   13 2
    21   12   14 1
    22   15   16 2
    23   15   17 am
    24   17   22 1
@<TRIPOS>MOLECULE
ZINC00897244
   25    26     0     0     0
SMALL
USER_CHARGES

@<TRIPOS>ATOM
      1 C1         -0.0187    1.5258    0.0104 C.3       1 <0>        -0.1219
      2 C2          0.0021   -0.0041    0.0020 C.3       1 <0>        -0.4416
      3 C3          0.9183   -0.5578   -1.1267 C.3       1 <0>         0.0132
      4 H1          1.7655    0.1146   -1.2616 H         1 <0>         0.0850
      5 N1          1.4152   -1.8973   -0.7968 N.am      1 <0>        -0.4938
      6 C4          1.5639   -2.1961    0.6340 C.3       1 <0>        -0.3906
      7 H2          1.1313   -3.1348    0.9800 H         1 <0>         0.1773
      8 S1          0.9226   -0.6800    1.4567 S.o2      1 <0>         2.3341
      9 O1          2.0081    0.1818    1.7700 O.2       1 <0>        -0.9238
     10 O2         -0.0025   -1.0489    2.4704 O.2       1 <0>        -0.9249
     11 C5          3.0673   -2.2015    0.4210 C.3       1 <0>        -0.1782
     12 C6          2.7129   -2.1678   -1.0358 C.2       1 <0>         0.5110
     13 O3          3.3561   -2.3252   -2.0520 O.2       1 <0>        -0.4467
     14 C7          0.1332   -0.6267   -2.4112 C.2       1 <0>         0.5227
     15 O4          0.1177    0.3290   -3.1682 O.co2     1 <0>        -0.6824
     16 O5         -0.4864   -1.6381   -2.6935 O.co2     1 <0>        -0.6561
     17 C8         -1.4126   -0.5802   -0.0861 C.3       1 <0>        -0.1154
     18 H3          1.0039    1.9031    0.0027 H         1 <0>         0.0742
     19 H4         -0.5459    1.8868   -0.8726 H         1 <0>         0.0955
     20 H5         -0.5289    1.8773    0.9072 H         1 <0>         0.0686
     21 H6          3.5695   -1.3020    0.7768 H         1 <0>         0.1395
     22 H7          3.5574   -3.1223    0.7376 H         1 <0>         0.1229
     23 H8         -1.8843   -0.2455   -1.0100 H         1 <0>         0.0896
     24 H9         -1.3627   -1.6690   -0.0774 H         1 <0>         0.0746
     25 H10        -1.9986   -0.2365    0.7662 H         1 <0>         0.0671
@<TRIPOS>BOND
     1    1    2 1
     2    1   18 1
     3    1   19 1
     4    1   20 1
     5    2    8 1
     6    2    3 1
     7    2   17 1
     8    3    4 1
     9    3    5 1
    10    3   14 1
    11    5   12 am
    12    5    6 1
    13    6    7 1
    14    6    8 1
    15    6   11 1
    16    8    9 2
    17    8   10 2
    18   11   12 1
    19   11   21 1
    20   11   22 1
    21   12   13 2
    22   14   15 2
    23   14   16 1
    24   17   23 1
    25   17   24 1
    26   17   25 1
@<TRIPOS>MOLECULE
ZINC03787060
   31    33     0     0     0
SMALL
USER_CHARGES

@<TRIPOS>ATOM
      1 C1         -0.0187    1.5258    0.0104 C.3       1 <0>        -0.1186
      2 C2          0.0021   -0.0041    0.0020 C.3       1 <0>        -0.4655
      3 C3         -1.4146   -0.5970    0.2500 C.3       1 <0>         0.0201
      4 H1         -1.4407   -1.6244   -0.1133 H         1 <0>         0.0879
      5 N1         -1.7530   -0.5827    1.6766 N.am      1 <0>        -0.4910
      6 C4         -0.6219   -0.6803    2.6091 C.3       1 <0>        -0.3851
      7 H2         -0.5972    0.0495    3.4183 H         1 <0>         0.1818
      8 S1          0.8474   -0.6813    1.5011 S.o2      1 <0>         2.3298
      9 O1          1.7963    0.2643    1.9751 O.2       1 <0>        -0.9090
     10 O2          1.2489   -2.0213    1.2512 O.2       1 <0>        -0.9212
     11 C5         -1.1211   -2.0644    2.9842 C.3       1 <0>        -0.1786
     12 C6         -2.3389   -1.6771    2.1994 C.2       1 <0>         0.5126
     13 O3         -3.4416   -2.1674    2.0796 O.2       1 <0>        -0.4399
     14 C7         -2.4313    0.2197   -0.5052 C.2       1 <0>         0.5224
     15 O4         -2.7256   -0.0801   -1.6498 O.co2     1 <0>        -0.6803
     16 O5         -2.9595    1.1804    0.0283 O.co2     1 <0>        -0.6470
     17 C8          0.6227   -0.5460   -1.2872 C.3       1 <0>         0.1439
     18 N2          1.9493    0.0459   -1.4769 N.pl3     1 <0>        -0.3012
     19 C9          3.1037   -0.6368   -1.6565 C.2       1 <0>        -0.0548
     20 C10         4.0762    0.2952   -1.7894 C.2       1 <0>        -0.0512
     21 N3          3.4770    1.4867   -1.6860 N.2       1 <0>        -0.2713
     22 N4          2.2163    1.3047   -1.5068 N.2       1 <0>        -0.0636
     23 H3          1.0039    1.9031    0.0027 H         1 <0>         0.0884
     24 H4         -0.5459    1.8868   -0.8726 H         1 <0>         0.0922
     25 H5         -0.5289    1.8773    0.9072 H         1 <0>         0.0792
     26 H6         -0.5476   -2.8786    2.5411 H         1 <0>         0.1407
     27 H7         -1.3036   -2.1968    4.0507 H         1 <0>         0.1268
     28 H8          0.7149   -1.6299   -1.2184 H         1 <0>         0.1253
     29 H9         -0.0144   -0.2885   -2.1333 H         1 <0>         0.1421
     30 H10         3.2248   -1.7096   -1.6872 H         1 <0>         0.1939
     31 H11         5.1289    0.1127   -1.9476 H         1 <0>         0.1909
@<TRIPOS>BOND
     1    1    2 1
     2    1   23 1
     3    1   24 1
     4    1   25 1
     5    2    8 1
     6    2    3 1
     7    2   17 1
     8    3    4 1
     9    3    5 1
    10    3   14 1
    11    5   12 am
    12    5    6 1
    13    6    7 1
    14    6    8 1
    15    6   11 1
    16    8    9 2
    17    8   10 2
    18   11   12 1
    19   11   26 1
    20   11   27 1
    21   12   13 2
    22   14   15 2
    23   14   16 1
    24   17   18 1
    25   17   28 1
    26   17   29 1
    27   18   22 1
    28   18   19 1
    29   19   20 2
    30   19   30 1
    31   20   21 1
    32   20   31 1
    33   21   22 2
@<TRIPOS>MOLECULE
ZINC00537805
   60    62     0     0     0
SMALL
USER_CHARGES

@<TRIPOS>ATOM
      1 C1         -0.0173    1.4248    0.0099 C.3       1 <0>         0.0182
      2 O1          0.0021   -0.0041    0.0020 O.3       1 <0>        -0.2748
      3 C2          0.6248   -0.6173    1.0397 C.ar      1 <0>         0.1920
      4 C3          1.2017    0.1376    2.0502 C.ar      1 <0>        -0.2078
      5 C4          1.8351   -0.4872    3.1057 C.ar      1 <0>        -0.0422
      6 C5          1.9003   -1.8709    3.1645 C.ar      1 <0>        -0.0840
      7 C6          1.3321   -2.6365    2.1684 C.ar      1 <0>        -0.0380
      8 C7          0.6827   -2.0162    1.0981 C.ar      1 <0>        -0.1597
      9 C8          0.0667   -2.8292    0.0322 C.2       1 <0>         0.5595
     10 O2         -0.4933   -2.2858   -0.9002 O.2       1 <0>        -0.5093
     11 N1          0.1246   -4.1744    0.0921 N.am      1 <0>        -0.7295
     12 C9         -0.4871   -4.9818   -0.9663 C.3       1 <0>         0.1248
     13 C10        -0.2807   -6.4663   -0.6591 C.3       1 <0>        -0.0921
     14 C11        -0.9099   -7.2969   -1.7479 C.ar      1 <0>        -0.0513
     15 C12        -2.2308   -7.6903   -1.6410 C.ar      1 <0>        -0.1388
     16 C13        -2.8080   -8.4521   -2.6397 C.ar      1 <0>        -0.0201
     17 C14        -2.0644   -8.8201   -3.7454 C.ar      1 <0>        -0.6264
     18 C15        -0.7438   -8.4259   -3.8527 C.ar      1 <0>        -0.0200
     19 C16        -0.1679   -7.6605   -2.8560 C.ar      1 <0>        -0.1388
     20 S1         -2.7998   -9.7921   -5.0179 S.o2      1 <0>         2.6734
     21 O3         -1.7374  -10.4617   -5.6828 O.2       1 <0>        -1.0097
     22 O4         -3.8845  -10.4894   -4.4207 O.2       1 <0>        -1.0098
     23 N2         -3.4590   -8.7429   -6.1164 N.2       1 <0>        -1.1046
     24 C17        -4.0714   -9.2023   -7.1683 C.2       1 <0>         0.6850
     25 O5         -4.1695  -10.5353   -7.3644 O.3       1 <0>        -0.7480
     26 N3         -4.6181   -8.3321   -8.0794 N.pl3     1 <0>        -0.7202
     27 C18        -5.3077   -8.8494   -9.2639 C.3       1 <0>         0.1652
     28 C19        -4.2854   -9.1312  -10.3668 C.3       1 <0>        -0.1304
     29 C20        -5.0055   -9.6715  -11.6039 C.3       1 <0>        -0.1163
     30 C21        -6.0168   -8.6353  -12.0985 C.3       1 <0>        -0.1184
     31 C22        -7.0391   -8.3536  -10.9956 C.3       1 <0>        -0.1141
     32 C23        -6.3189   -7.8133   -9.7585 C.3       1 <0>        -0.1258
     33 Cl1         2.7012   -2.6426    4.4974 Cl        1 <0>        -0.0634
     34 H1          1.0053    1.8021    0.0021 H         1 <0>         0.0584
     35 H2         -0.5445    1.7859   -0.8732 H         1 <0>         0.1066
     36 H3         -0.5275    1.7763    0.9067 H         1 <0>         0.0584
     37 H4          1.1556    1.2159    2.0109 H         1 <0>         0.1455
     38 H5          2.2828    0.1052    3.8899 H         1 <0>         0.1414
     39 H6          1.3849   -3.7141    2.2178 H         1 <0>         0.1433
     40 H7          0.5714   -4.6080    0.8360 H         1 <0>         0.3973
     41 H8         -1.5543   -4.7662   -1.0169 H         1 <0>         0.0750
     42 H9         -0.0220   -4.7405   -1.9221 H         1 <0>         0.0750
     43 H10         0.7866   -6.6820   -0.6085 H         1 <0>         0.0813
     44 H11        -0.7458   -6.7077    0.2967 H         1 <0>         0.0814
     45 H12        -2.8117   -7.4028   -0.7772 H         1 <0>         0.1262
     46 H13        -3.8397   -8.7601   -2.5559 H         1 <0>         0.1378
     47 H14        -0.1628   -8.7137   -4.7164 H         1 <0>         0.1377
     48 H15         0.8628   -7.3493   -2.9416 H         1 <0>         0.1261
     49 H16        -4.5477   -7.3750   -7.9386 H         1 <0>         0.3913
     50 H17        -5.8287   -9.7718   -9.0072 H         1 <0>         0.0815
     51 H18        -3.7644   -8.2088  -10.6236 H         1 <0>         0.0553
     52 H19        -3.5649   -9.8694  -10.0144 H         1 <0>         0.0710
     53 H20        -4.2772   -9.8722  -12.3896 H         1 <0>         0.0572
     54 H21        -5.5265  -10.5939  -11.3471 H         1 <0>         0.0624
     55 H22        -5.4958   -7.7129  -12.3552 H         1 <0>         0.0590
     56 H23        -6.5298   -9.0202  -12.9798 H         1 <0>         0.0564
     57 H24        -7.7595   -7.6154  -11.3480 H         1 <0>         0.0595
     58 H25        -7.5601   -9.2759  -10.7388 H         1 <0>         0.0632
     59 H26        -7.0473   -7.6126   -8.9728 H         1 <0>         0.0650
     60 H27        -5.7980   -6.8909  -10.0153 H         1 <0>         0.0622
@<TRIPOS>BOND
     1    1    2 1
     2    1   34 1
     3    1   35 1
     4    1   36 1
     5    2    3 1
     6    3    8 ar
     7    3    4 ar
     8    4    5 ar
     9    4   37 1
    10    5    6 ar
    11    5   38 1
    12    6    7 ar
    13    6   33 1
    14    7    8 ar
    15    7   39 1
    16    8    9 1
    17    9   10 2
    18    9   11 am
    19   11   12 1
    20   11   40 1
    21   12   13 1
    22   12   41 1
    23   12   42 1
    24   13   14 1
    25   13   43 1
    26   13   44 1
    27   14   19 ar
    28   14   15 ar
    29   15   16 ar
    30   15   45 1
    31   16   17 ar
    32   16   46 1
    33   17   18 ar
    34   17   20 1
    35   18   19 ar
    36   18   47 1
    37   19   48 1
    38   20   21 2
    39   20   22 2
    40   20   23 1
    41   23   24 2
    42   24   25 1
    43   24   26 1
    44   26   27 1
    45   26   49 1
    46   27   32 1
    47   27   28 1
    48   27   50 1
    49   28   29 1
    50   28   51 1
    51   28   52 1
    52   29   30 1
    53   29   53 1
    54   29   54 1
    55   30   31 1
    56   30   55 1
    57   30   56 1
    58   31   32 1
    59   31   57 1
    60   31   58 1
    61   32   59 1
    62   32   60 1
@<TRIPOS>MOLECULE
ZINC20457322
   26    27     0     0     0
SMALL
USER_CHARGES
(5Z)-5-[(E)-3-(4-nitrophenyl)prop-2-enylidene]-2-thioxo-thiazolidin-4-one
@<TRIPOS>ATOM
      1 C1          0.0777   -2.8539   -0.0199 C.ar      1 <0>        -0.1209
      2 C2          0.0878   -4.2325   -0.0234 C.ar      1 <0>        -0.0458
      3 C3         -1.1037   -4.9370   -0.0153 C.ar      1 <0>        -0.0587
      4 C4         -2.3139   -4.2652    0.0008 C.ar      1 <0>        -0.0507
      5 C5         -2.3413   -2.8869    0.0089 C.ar      1 <0>        -0.1153
      6 C6         -1.1413   -2.1670    0.0013 C.ar      1 <0>         0.0145
      7 C7         -1.1612   -0.6970    0.0094 C.2       1 <0>        -0.1354
      8 C8          0.0021   -0.0041    0.0020 C.2       1 <0>        -0.0711
      9 C9         -0.0170    1.4048    0.0098 C.2       1 <0>        -0.0439
     10 C10         1.1552    2.1030    0.0023 C.2       1 <0>        -0.1624
     11 C11         1.3814    3.5604    0.0080 C.2       1 <0>         0.5218
     12 O1          0.4555    4.3508    0.0215 O.3       1 <0>        -0.4953
     13 N1          2.6400    3.9657   -0.0019 N.2       1 <0>        -0.6461
     14 C12         3.6629    3.0868   -0.0164 C.2       1 <0>         0.3904
     15 S1          5.3438    3.4113   -0.0312 S.2       1 <0>        -0.5442
     16 S2          2.8389    1.5027   -0.0091 S.3       1 <0>        -0.1601
     17 N2         -1.0836   -6.4189   -0.0245 N.pl3     1 <0>         0.0312
     18 O2         -2.1301   -7.0422   -0.0178 O.2       1 <0>        -0.1678
     19 O3         -0.0207   -7.0134   -0.0387 O.3       1 <0>        -0.1644
     20 H1          1.0082   -2.3056   -0.0300 H         1 <0>         0.1514
     21 H2          1.0277   -4.7641   -0.0363 H         1 <0>         0.1544
     22 H3         -3.2391   -4.8222    0.0066 H         1 <0>         0.1527
     23 H4         -3.2863   -2.3641    0.0208 H         1 <0>         0.1498
     24 H5         -2.1212   -0.1600    0.0215 H         1 <0>         0.1390
     25 H6          0.9620   -0.5411   -0.0101 H         1 <0>         0.1283
     26 H7         -0.9769    1.9418    0.0219 H         1 <0>         0.1488
@<TRIPOS>BOND
     1    1    6 ar
     2    1    2 ar
     3    1   20 1
     4    2    3 ar
     5    2   21 1
     6    3    4 ar
     7    3   17 1
     8    4    5 ar
     9    4   22 1
    10    5    6 ar
    11    5   23 1
    12    6    7 1
    13    7    8 2
    14    7   24 1
    15    8    9 1
    16    8   25 1
    17    9   10 2
    18    9   26 1
    19   10   16 1
    20   10   11 1
    21   11   12 1
    22   11   13 2
    23   13   14 1
    24   14   15 2
    25   14   16 1
    26   17   18 2
    27   17   19 1
@<TRIPOS>MOLECULE
ZINC00020241
   32    33     0     0     0
SMALL
USER_CHARGES

@<TRIPOS>ATOM
      1 C1         -0.1270    1.4527   -0.1407 C.3       1 <0>        -0.1086
      2 C2         -0.1213   -0.0541   -0.1173 C.ar      1 <0>        -0.0512
      3 C3         -0.1891   -0.7637   -1.3027 C.ar      1 <0>        -0.1894
      4 C4         -0.1846   -2.1462   -1.2858 C.ar      1 <0>        -0.0787
      5 C5         -0.1123   -2.8235   -0.0842 C.ar      1 <0>        -0.1800
      6 C6         -0.0436   -2.1141    1.1080 C.ar      1 <0>         0.2711
      7 C7         -0.0427   -0.7248    1.0870 C.ar      1 <0>        -0.1638
      8 C8          0.0374    0.0491    2.3776 C.3       1 <0>        -0.0992
      9 N1          0.0291   -2.7961    2.3254 N.pl3     1 <0>        -0.6700
     10 C9         -0.0480   -4.1815    2.3504 C.ar      1 <0>         0.1665
     11 C10        -1.2336   -4.8092    2.7139 C.ar      1 <0>        -0.1405
     12 C11        -1.3074   -6.1862    2.7384 C.ar      1 <0>        -0.1235
     13 C12        -0.2039   -6.9555    2.4014 C.ar      1 <0>        -0.1393
     14 C13         0.9797   -6.3537    2.0380 C.ar      1 <0>        -0.0835
     15 C14         1.0707   -4.9579    2.0026 C.ar      1 <0>        -0.1368
     16 C15         2.3298   -4.3079    1.6101 C.2       1 <0>         0.5183
     17 O1          3.2619   -4.9816    1.1924 O.co2     1 <0>        -0.6938
     18 O2          2.4455   -3.0931    1.7012 O.co2     1 <0>        -0.6645
     19 H1          0.8972    1.8188   -0.2117 H         1 <0>         0.0651
     20 H2         -0.6976    1.8005   -1.0018 H         1 <0>         0.0591
     21 H3         -0.5846    1.8285    0.7744 H         1 <0>         0.0624
     22 H4         -0.2460   -0.2365   -2.2436 H         1 <0>         0.1082
     23 H5         -0.2380   -2.6972   -2.2132 H         1 <0>         0.1108
     24 H6         -0.1095   -3.9034   -0.0717 H         1 <0>         0.1109
     25 H7         -0.9689    0.2328    2.7541 H         1 <0>         0.0555
     26 H8          0.6006   -0.5266    3.1121 H         1 <0>         0.0596
     27 H9          0.5383    1.0007    2.2002 H         1 <0>         0.0621
     28 H10         0.1334   -2.3012    3.1531 H         1 <0>         0.4004
     29 H11        -2.0980   -4.2179    2.9779 H         1 <0>         0.1160
     30 H12        -2.2310   -6.6687    3.0223 H         1 <0>         0.1150
     31 H13        -0.2734   -8.0331    2.4245 H         1 <0>         0.1149
     32 H14         1.8358   -6.9582    1.7769 H         1 <0>         0.1270
@<TRIPOS>BOND
     1    1    2 1
     2    1   19 1
     3    1   20 1
     4    1   21 1
     5    2    7 ar
     6    2    3 ar
     7    3    4 ar
     8    3   22 1
     9    4    5 ar
    10    4   23 1
    11    5    6 ar
    12    5   24 1
    13    6    7 ar
    14    6    9 1
    15    7    8 1
    16    8   25 1
    17    8   26 1
    18    8   27 1
    19    9   10 1
    20    9   28 1
    21   10   15 ar
    22   10   11 ar
    23   11   12 ar
    24   11   29 1
    25   12   13 ar
    26   12   30 1
    27   13   14 ar
    28   13   31 1
    29   14   15 ar
    30   14   32 1
    31   15   16 1
    32   16   17 2
    33   16   18 1
@<TRIPOS>MOLECULE
ZINC19850886
   23    24     0     0     0
SMALL
USER_CHARGES

@<TRIPOS>ATOM
      1 C1         -0.0171    1.4078    0.0098 C.2       1 <0>        -0.2222
      2 C2          1.3053    1.8182   -0.0006 C.2       1 <0>        -0.0453
      3 C3          2.0877    0.6807   -0.0142 C.2       1 <0>         0.0105
      4 O1          1.2957   -0.3967   -0.0124 O.3       1 <0>        -0.1411
      5 C4          0.0021   -0.0041    0.0020 C.2       1 <0>         0.1551
      6 C5         -1.1062   -0.8376    0.0081 C.2       1 <0>        -0.1638
      7 C6         -0.9360   -2.2346   -0.0010 C.2       1 <0>        -0.0083
      8 C7         -2.0385   -3.0638    0.0051 C.2       1 <0>        -0.0648
      9 C8         -1.8683   -4.4603   -0.0041 C.2       1 <0>        -0.1621
     10 C9         -2.8983   -5.5235   -0.0060 C.2       1 <0>         0.4681
     11 N1         -2.4797   -6.7429   -0.0151 N.2       1 <0>        -0.5993
     12 C10        -1.1533   -6.9877   -0.0223 C.2       1 <0>         0.3407
     13 S1         -0.3498   -8.4993   -0.0349 S.2       1 <0>        -0.4680
     14 S2         -0.4407   -5.3529   -0.0230 S.3       1 <0>        -0.0307
     15 O2         -4.2172   -5.2294    0.0019 O.3       1 <0>        -0.5575
     16 N2          3.5679    0.6575   -0.0285 N.pl3     1 <0>         0.0351
     17 O3          4.2442    1.7876   -0.0289 O.2       1 <0>        -0.1826
     18 O4          4.2084   -0.4932   -0.0408 O.3       1 <0>        -0.1764
     19 H1         -0.8908    2.0424    0.0255 H         1 <0>         0.1807
     20 H2          1.6590    2.8386    0.0011 H         1 <0>         0.1805
     21 H3         -2.0999   -0.4148    0.0199 H         1 <0>         0.1697
     22 H4          0.0577   -2.6574   -0.0128 H         1 <0>         0.1302
     23 H5         -3.0322   -2.6409    0.0168 H         1 <0>         0.1513
@<TRIPOS>BOND
     1    1    5 2
     2    1    2 1
     3    1   19 1
     4    2    3 2
     5    2   20 1
     6    3    4 1
     7    3   16 1
     8    4    5 1
     9    5    6 1
    10    6    7 2
    11    6   21 1
    12    7    8 1
    13    7   22 1
    14    8    9 2
    15    8   23 1
    16    9   14 1
    17    9   10 1
    18   10   11 2
    19   10   15 1
    20   11   12 1
    21   12   13 2
    22   12   14 1
    23   16   17 2
    24   16   18 1
@<TRIPOS>MOLECULE
ZINC00973805
   33    34     0     0     0
SMALL
USER_CHARGES
5-[3-(4-dimethylaminophenyl)prop-2-enylidene]-2-thioxo-thiazolidin-4-one
@<TRIPOS>ATOM
      1 C1          1.2381    2.1441    0.0198 C.3       1 <0>         0.0872
      2 N1         -0.0168    1.3882    0.0097 N.pl3     1 <0>        -0.6285
      3 C2         -1.2989    2.0970    0.0027 C.3       1 <0>         0.0818
      4 C3          0.0091   -0.0039    0.0009 C.ar      1 <0>         0.2424
      5 C4         -1.1786   -0.7209    0.1185 C.ar      1 <0>        -0.2083
      6 C5         -1.1586   -2.0918    0.1046 C.ar      1 <0>        -0.0340
      7 C6          0.0606   -2.7711   -0.0161 C.ar      1 <0>        -0.1640
      8 C7          1.2537   -2.0454   -0.1285 C.ar      1 <0>        -0.0304
      9 C8          1.2231   -0.6747   -0.1198 C.ar      1 <0>        -0.2072
     10 C9          0.0880   -4.2389   -0.0254 C.2       1 <0>         0.0250
     11 C10        -1.0678   -4.9391    0.0834 C.2       1 <0>        -0.2162
     12 C11        -1.0416   -6.3461    0.0745 C.2       1 <0>         0.1082
     13 C12        -2.2059   -7.0514    0.1842 C.2       1 <0>        -0.2793
     14 C13        -2.4232   -8.5081    0.1987 C.2       1 <0>         0.5431
     15 O1         -1.4969   -9.2931    0.1051 O.2       1 <0>        -0.4693
     16 N2         -3.6734   -8.9217    0.3187 N.am      1 <0>        -0.6292
     17 C14        -4.6967   -8.0490    0.4221 C.2       1 <0>         0.2819
     18 S1         -6.3680   -8.3834    0.5829 S.2       1 <0>        -0.3423
     19 S2         -3.8840   -6.4604    0.3575 S.3       1 <0>         0.0807
     20 H1          1.5536    2.3382   -1.0053 H         1 <0>         0.0536
     21 H2          1.0878    3.0906    0.5391 H         1 <0>         0.0714
     22 H3          2.0063    1.5660    0.5332 H         1 <0>         0.0719
     23 H4         -2.1129    1.3763    0.0806 H         1 <0>         0.0814
     24 H5         -1.3392    2.7835    0.8484 H         1 <0>         0.0616
     25 H6         -1.3985    2.6586   -0.9262 H         1 <0>         0.0582
     26 H7         -2.1175   -0.1963    0.2163 H         1 <0>         0.1307
     27 H8         -2.0808   -2.6471    0.1918 H         1 <0>         0.1289
     28 H9          2.1960   -2.5649   -0.2214 H         1 <0>         0.1294
     29 H10         2.1424   -0.1144   -0.2063 H         1 <0>         0.1283
     30 H11         1.0288   -4.7609   -0.1189 H         1 <0>         0.1325
     31 H12        -2.0087   -4.4171    0.1770 H         1 <0>         0.1283
     32 H13        -0.1008   -6.8681   -0.0190 H         1 <0>         0.1531
     33 H14        -3.8588   -9.8737    0.3324 H         1 <0>         0.4290
@<TRIPOS>BOND
     1    1    2 1
     2    1   20 1
     3    1   21 1
     4    1   22 1
     5    2    3 1
     6    2    4 1
     7    3   23 1
     8    3   24 1
     9    3   25 1
    10    4    9 ar
    11    4    5 ar
    12    5    6 ar
    13    5   26 1
    14    6    7 ar
    15    6   27 1
    16    7    8 ar
    17    7   10 1
    18    8    9 ar
    19    8   28 1
    20    9   29 1
    21   10   11 2
    22   10   30 1
    23   11   12 1
    24   11   31 1
    25   12   13 2
    26   12   32 1
    27   13   19 1
    28   13   14 1
    29   14   15 2
    30   14   16 am
    31   16   17 1
    32   16   33 1
    33   17   18 2
    34   17   19 1
