@<TRIPOS>MOLECULE
ZINC05819379
   22    24     0     0     0
SMALL
USER_CHARGES

@<TRIPOS>ATOM
      1 C1         -0.0167    1.3803    0.0096 C.ar      1 <0>        -0.0823
      2 C2          1.1933    2.0590    0.0017 C.ar      1 <0>        -0.1959
      3 C3          2.3753    1.3394   -0.0134 C.ar      1 <0>         0.0957
      4 N1          2.3654    0.0230   -0.0204 N.ar      1 <0>        -0.4638
      5 C4          1.2298   -0.6646   -0.0133 C.ar      1 <0>         0.2449
      6 C5          0.0021   -0.0041    0.0020 C.ar      1 <0>        -0.1492
      7 C6          1.2674   -2.1443   -0.0216 C.2       1 <0>         0.2125
      8 N2          2.3592   -2.8709   -0.0306 N.2       1 <0>        -0.5326
      9 C7          2.0358   -4.1757   -0.0358 C.ar      1 <0>         0.0254
     10 C8          2.7676   -5.3705   -0.0449 C.ar      1 <0>        -0.1273
     11 C9          2.0913   -6.5573   -0.0471 C.ar      1 <0>         0.0191
     12 N3          0.7697   -6.5996   -0.0413 N.ar      1 <0>        -0.5126
     13 C10         0.0291   -5.5087   -0.0327 C.ar      1 <0>         0.1417
     14 C11         0.6279   -4.2592   -0.0294 C.ar      1 <0>        -0.0435
     15 N4          0.1687   -2.9591   -0.0150 N.2       1 <0>        -0.5564
     16 H1         -0.9522    1.9197    0.0259 H         1 <0>         0.1297
     17 H2          1.2126    3.1389    0.0070 H         1 <0>         0.1270
     18 H3          3.3187    1.8650   -0.0200 H         1 <0>         0.1503
     19 H4         -0.9212   -0.5644    0.0082 H         1 <0>         0.1417
     20 H5          3.8475   -5.3534   -0.0504 H         1 <0>         0.1081
     21 H6          2.6488   -7.4823   -0.0540 H         1 <0>         0.1330
     22 H7         -1.0479   -5.5893   -0.0283 H         1 <0>         0.1346
@<TRIPOS>BOND
     1    1    6 ar
     2    1    2 ar
     3    1   16 1
     4    2    3 ar
     5    2   17 1
     6    3    4 ar
     7    3   18 1
     8    4    5 ar
     9    5    6 ar
    10    5    7 1
    11    6   19 1
    12    7   15 1
    13    7    8 2
    14    8    9 1
    15    9   10 ar
    16    9   14 ar
    17   10   11 ar
    18   10   20 1
    19   11   12 ar
    20   11   21 1
    21   12   13 ar
    22   13   14 ar
    23   13   22 1
    24   14   15 1
@<TRIPOS>MOLECULE
ZINC05819379
   24    26     0     0     0
SMALL
USER_CHARGES
2-(2-pyridyl)-3H-imidazo[5,4-c]pyridine
@<TRIPOS>ATOM
      1 C1          1.2201   -0.6681   -0.0132 C.ar      1 <0>        -0.0611
      2 C2          0.0021   -0.0041    0.0020 C.ar      1 <0>        -0.1100
      3 C3         -0.0167    1.3797    0.0096 C.ar      1 <0>         0.1262
      4 N1          1.1035    2.0712    0.0026 N.ar      1 <0>        -0.4533
      5 C4          2.2895    1.4748   -0.0118 C.ar      1 <0>         0.1064
      6 C5          2.3827    0.0837   -0.0202 C.ar      1 <0>        -0.1142
      7 C6          3.5228    2.2933   -0.0192 C.cat     1 <0>         0.4737
      8 N2          3.5595    3.6607   -0.0176 N.pl3     1 <0>        -0.5002
      9 H1          2.7714    4.2762   -0.0136 H         1 <0>         0.4805
     10 C7          4.8878    4.0306   -0.0226 C.ar      1 <0>         0.0166
     11 C8          5.5676    5.2385   -0.0227 C.ar      1 <0>         0.1775
     12 N3          6.8857    5.2581   -0.0358 N.ar      1 <0>        -0.4362
     13 C9          7.6096    4.1513   -0.0492 C.ar      1 <0>         0.1336
     14 C10         7.0260    2.9167   -0.0502 C.ar      1 <0>        -0.1296
     15 C11         5.6272    2.8302   -0.0367 C.ar      1 <0>         0.0983
     16 H2          1.2605   -1.7474   -0.0197 H         1 <0>         0.1631
     17 H3         -0.9228   -0.5618    0.0082 H         1 <0>         0.1631
     18 H4         -0.9634    1.8994    0.0169 H         1 <0>         0.1852
     19 H5          3.3480   -0.4004   -0.0324 H         1 <0>         0.1462
     20 H6          5.0156    6.1668   -0.0123 H         1 <0>         0.1893
     21 H7          8.6870    4.2256   -0.0600 H         1 <0>         0.1911
     22 H8          7.6317    2.0226   -0.0609 H         1 <0>         0.1687
     23 N4          4.7449    1.8149   -0.0339 N.pl3     1 <0>        -0.4946
     24 H9          4.9900    0.8178   -0.0421 H         1 <0>         0.4797
@<TRIPOS>BOND
     1    1    6 ar
     2    1    2 ar
     3    1   16 1
     4    2    3 ar
     5    2   17 1
     6    3    4 ar
     7    3   18 1
     8    4    5 ar
     9    5    6 ar
    10    5    7 1
    11    6   19 1
    12    7    8 1
    13    7   23 2
    14    8    9 1
    15    8   10 1
    16   10   15 ar
    17   10   11 ar
    18   11   12 ar
    19   11   20 1
    20   12   13 ar
    21   13   14 ar
    22   13   21 1
    23   14   15 ar
    24   14   22 1
    25   15   23 1
    26   23   24 1
@<TRIPOS>MOLECULE
ZINC13671868
   21    22     0     0     0
SMALL
USER_CHARGES
4-(p-tolyl)-3H-triazole
@<TRIPOS>ATOM
      1 C1          2.4523    3.9332   -0.0016 C.3       1 <0>        -0.1186
      2 C2          1.1549    3.1666    0.0076 C.ar      1 <0>        -0.0772
      3 C3          1.1720    1.7834    0.0004 C.ar      1 <0>        -0.1211
      4 C4         -0.0126    1.0758    0.0080 C.ar      1 <0>        -0.0875
      5 C5         -1.2290    1.7582    0.0174 C.ar      1 <0>        -0.0180
      6 C6         -1.2397    3.1529    0.0309 C.ar      1 <0>        -0.0941
      7 C7         -0.0484    3.8492    0.0228 C.ar      1 <0>        -0.1192
      8 C8         -2.5034    1.0053    0.0193 C.2       1 <0>         0.0389
      9 C9         -3.7679    1.5237    0.0341 C.2       1 <0>        -0.0085
     10 N1         -4.6023    0.4814    0.0357 N.2       1 <0>        -0.2934
     11 N2         -3.9208   -0.6083    0.0172 N.pl3     1 <0>        -0.2164
     12 N3         -2.6594   -0.3522    0.0066 N.2       1 <0>        -0.2845
     13 H1         -4.3156   -1.5271    0.0118 H         1 <0>         0.4811
     14 H2          2.7547    4.1232   -1.0315 H         1 <0>         0.0728
     15 H3          2.3177    4.8817    0.5184 H         1 <0>         0.0682
     16 H4          3.2230    3.3492    0.5014 H         1 <0>         0.0678
     17 H5          2.1145    1.2562   -0.0114 H         1 <0>         0.1260
     18 H6          0.0021   -0.0041    0.0020 H         1 <0>         0.1291
     19 H7         -2.1784    3.6868    0.0424 H         1 <0>         0.1280
     20 H8         -0.0553    4.9291    0.0287 H         1 <0>         0.1279
     21 H9         -4.0385    2.5693    0.0428 H         1 <0>         0.1986
@<TRIPOS>BOND
     1    1    2 1
     2    1   14 1
     3    1   15 1
     4    1   16 1
     5    2    7 ar
     6    2    3 ar
     7    3    4 ar
     8    3   17 1
     9    4    5 ar
    10    4   18 1
    11    5    6 ar
    12    5    8 1
    13    6    7 ar
    14    6   19 1
    15    7   20 1
    16    8    9 1
    17    8   12 2
    18    9   21 1
    19    9   10 2
    20   10   11 1
    21   11   13 1
    22   11   12 1
@<TRIPOS>MOLECULE
ZINC13122930
   26    28     0     0     0
SMALL
USER_CHARGES

@<TRIPOS>ATOM
      1 C1         -0.0167    1.3799    0.0096 C.ar      1 <0>        -0.0732
      2 C2          1.1935    2.0590    0.0017 C.ar      1 <0>        -0.1622
      3 C3          2.3753    1.3399   -0.0134 C.ar      1 <0>         0.1062
      4 N1          2.3659    0.0232   -0.0208 N.ar      1 <0>        -0.4822
      5 C4          1.2302   -0.6647   -0.0137 C.ar      1 <0>         0.1872
      6 C5          0.0021   -0.0041    0.0020 C.ar      1 <0>        -0.1225
      7 C6          1.2679   -2.1438   -0.0225 C.2       1 <0>         0.3062
      8 N2          2.4086   -2.9031   -0.0325 N.pl3     1 <0>        -0.5821
      9 H1          3.3205   -2.5722   -0.0345 H         1 <0>         0.4287
     10 C7          2.0174   -4.2266   -0.0383 C.ar      1 <0>         0.1103
     11 C8          2.7035   -5.4327   -0.0487 C.ar      1 <0>        -0.2143
     12 C9          1.9962   -6.6235   -0.0522 C.ar      1 <0>         0.2428
     13 C10         0.6016   -6.6139   -0.0454 C.ar      1 <0>        -0.1874
     14 C11        -0.0851   -5.4350   -0.0356 C.ar      1 <0>        -0.0110
     15 C12         0.6104   -4.2203   -0.0314 C.ar      1 <0>        -0.0047
     16 N3          0.2163   -2.9241   -0.0163 N.2       1 <0>        -0.4570
     17 N4          2.6831   -7.8402   -0.0631 N.pl3     1 <0>        -0.8723
     18 H2         -0.9522    1.9193    0.0259 H         1 <0>         0.1437
     19 H3          1.2126    3.1388    0.0070 H         1 <0>         0.1413
     20 H4          3.3186    1.8657   -0.0196 H         1 <0>         0.1633
     21 H5         -0.9212   -0.5644    0.0082 H         1 <0>         0.1509
     22 H6          3.7834   -5.4428   -0.0543 H         1 <0>         0.1221
     23 H7          0.0602   -7.5484   -0.0482 H         1 <0>         0.1312
     24 H8         -1.1651   -5.4391   -0.0311 H         1 <0>         0.1339
     25 H9          3.6531   -7.8496   -0.0682 H         1 <0>         0.3996
     26 H10         2.1901   -8.6756   -0.0656 H         1 <0>         0.4015
@<TRIPOS>BOND
     1    1    6 ar
     2    1    2 ar
     3    1   18 1
     4    2    3 ar
     5    2   19 1
     6    3    4 ar
     7    3   20 1
     8    4    5 ar
     9    5    6 ar
    10    5    7 1
    11    6   21 1
    12    7   16 2
    13    7    8 1
    14    8    9 1
    15    8   10 1
    16   10   15 ar
    17   10   11 ar
    18   11   12 ar
    19   11   22 1
    20   12   13 ar
    21   12   17 1
    22   13   14 ar
    23   13   23 1
    24   14   15 ar
    25   14   24 1
    26   15   16 1
    27   17   25 1
    28   17   26 1
@<TRIPOS>MOLECULE
ZINC14965014
   38    39     0     0     0
SMALL
USER_CHARGES

@<TRIPOS>ATOM
      1 C1          0.9065    1.2821    0.5611 C.3       1 <0>        -0.1510
      2 C2          0.7421   -0.2340    0.4368 C.3       1 <0>        -0.1205
      3 C3         -0.7464   -0.5877    0.4425 C.3       1 <0>        -0.0723
      4 C4         -0.9083   -2.0810    0.3200 C.ar      1 <0>        -0.1228
      5 C5         -1.0053   -2.6633   -0.9348 C.ar      1 <0>        -0.0925
      6 C6         -1.1538   -4.0285   -1.0626 C.ar      1 <0>        -0.1966
      7 C7         -1.2073   -4.8324    0.0700 C.ar      1 <0>         0.1827
      8 C8         -1.1093   -4.2459    1.3432 C.ar      1 <0>        -0.1531
      9 C9         -0.9534   -2.8597    1.4543 C.ar      1 <0>        -0.0576
     10 C10        -1.1643   -5.0837    2.5503 C.2       1 <0>         0.5253
     11 O1         -1.0785   -4.5686    3.6569 O.co2     1 <0>        -0.6817
     12 O2         -1.2958   -6.2959    2.4482 O.co2     1 <0>        -0.6825
     13 N1         -1.3570   -6.2057   -0.0557 N.pl3     1 <0>        -1.0222
     14 S1         -0.6355   -7.0055   -1.3135 S.o2      1 <0>         2.6887
     15 O3         -0.8592   -8.3917   -1.0951 O.2       1 <0>        -0.9586
     16 O4         -1.0459   -6.3458   -2.5032 O.2       1 <0>        -0.9626
     17 C11         1.1013   -6.7467   -1.1677 C.ar      1 <0>        -0.6686
     18 C12         1.6920   -5.6586   -1.7826 C.ar      1 <0>        -0.0152
     19 C13         3.0545   -5.4555   -1.6682 C.ar      1 <0>        -0.1446
     20 C14         3.8263   -6.3402   -0.9385 C.ar      1 <0>        -0.0666
     21 C15         3.2355   -7.4278   -0.3228 C.ar      1 <0>        -0.1433
     22 C16         1.8723   -7.6285   -0.4336 C.ar      1 <0>        -0.0101
     23 H1          1.9670    1.5341    0.5571 H         1 <0>         0.0507
     24 H2          0.4136    1.7711   -0.2791 H         1 <0>         0.0513
     25 H3          0.4560    1.6211    1.4940 H         1 <0>         0.0533
     26 H4          1.1926   -0.5730   -0.4961 H         1 <0>         0.0606
     27 H5          1.2350   -0.7230    1.2771 H         1 <0>         0.0638
     28 H6         -1.1969   -0.2487    1.3753 H         1 <0>         0.0683
     29 H7         -1.2393   -0.0987   -0.3978 H         1 <0>         0.0657
     30 H8         -0.9647   -2.0434   -1.8182 H         1 <0>         0.1187
     31 H9         -1.2290   -4.4735   -2.0438 H         1 <0>         0.1540
     32 H10        -0.8728   -2.4010    2.4287 H         1 <0>         0.1282
     33 H11        -1.8844   -6.6975    0.5931 H         1 <0>         0.4414
     34 H12         1.0890   -4.9674   -2.3527 H         1 <0>         0.1392
     35 H13         3.5161   -4.6059   -2.1493 H         1 <0>         0.1301
     36 H14         4.8910   -6.1820   -0.8497 H         1 <0>         0.1277
     37 H15         3.8386   -8.1192    0.2471 H         1 <0>         0.1313
     38 H16         1.4102   -8.4761    0.0505 H         1 <0>         0.1411
@<TRIPOS>BOND
     1    1    2 1
     2    1   23 1
     3    1   24 1
     4    1   25 1
     5    2    3 1
     6    2   26 1
     7    2   27 1
     8    3    4 1
     9    3   28 1
    10    3   29 1
    11    4    9 ar
    12    4    5 ar
    13    5    6 ar
    14    5   30 1
    15    6    7 ar
    16    6   31 1
    17    7    8 ar
    18    7   13 1
    19    8    9 ar
    20    8   10 1
    21    9   32 1
    22   10   11 2
    23   10   12 1
    24   13   14 1
    25   13   33 1
    26   14   15 2
    27   14   16 2
    28   14   17 1
    29   17   22 ar
    30   17   18 ar
    31   18   19 ar
    32   18   34 1
    33   19   20 ar
    34   19   35 1
    35   20   21 ar
    36   20   36 1
    37   21   22 ar
    38   21   37 1
    39   22   38 1
@<TRIPOS>MOLECULE
ZINC14965006
   35    36     0     0     0
SMALL
USER_CHARGES

@<TRIPOS>ATOM
      1 C1         -0.2116    1.5011   -0.3265 C.3       1 <0>        -0.1076
      2 C2         -0.1478   -0.0037   -0.2769 C.ar      1 <0>        -0.0983
      3 C3         -0.2589   -0.7374   -1.4484 C.ar      1 <0>        -0.1234
      4 C4         -0.2023   -2.1152   -1.4186 C.ar      1 <0>        -0.0875
      5 C5         -0.0331   -2.7794   -0.2095 C.ar      1 <0>         0.1430
      6 C6          0.0798   -2.0393    0.9796 C.ar      1 <0>        -0.1204
      7 C7          0.0259   -0.6419    0.9304 C.ar      1 <0>        -0.0891
      8 C8          0.2592   -2.7283    2.2661 C.2       1 <0>         0.5220
      9 O1          0.2667   -2.0866    3.3080 O.co2     1 <0>        -0.6877
     10 O2          0.4011   -3.9433    2.2949 O.co2     1 <0>        -0.6739
     11 N1          0.0237   -4.1650   -0.1768 N.pl3     1 <0>        -1.0207
     12 S1          1.3253   -4.9559   -0.8267 S.o2      1 <0>         2.6921
     13 O3          1.0917   -6.3450   -0.6389 O.2       1 <0>        -0.9700
     14 O4          1.5468   -4.3873   -2.1100 O.2       1 <0>        -0.9615
     15 C9          2.7289   -4.5440    0.1556 C.ar      1 <0>        -0.6520
     16 C10         3.4353   -3.3837   -0.1004 C.ar      1 <0>        -0.0174
     17 C11         4.5364   -3.0606    0.6702 C.ar      1 <0>        -0.1474
     18 C12         4.9309   -3.8975    1.6973 C.ar      1 <0>        -0.0683
     19 C13         4.2240   -5.0574    1.9539 C.ar      1 <0>        -0.1430
     20 C14         3.1203   -5.3784    1.1860 C.ar      1 <0>         0.0085
     21 C15        -0.3247   -2.9013   -2.6984 C.3       1 <0>        -0.1077
     22 H1          0.7922    1.9030   -0.4645 H         1 <0>         0.0647
     23 H2         -0.8445    1.8107   -1.1582 H         1 <0>         0.0606
     24 H3         -0.6287    1.8781    0.6073 H         1 <0>         0.0636
     25 H4         -0.3909   -0.2265   -2.3907 H         1 <0>         0.1187
     26 H5          0.1162   -0.0649    1.8389 H         1 <0>         0.1275
     27 H6         -0.6991   -4.6706    0.2268 H         1 <0>         0.4261
     28 H7          3.1270   -2.7298   -0.9028 H         1 <0>         0.1304
     29 H8          5.0887   -2.1544    0.4697 H         1 <0>         0.1251
     30 H9          5.7916   -3.6454    2.2989 H         1 <0>         0.1237
     31 H10         4.5324   -5.7114    2.7561 H         1 <0>         0.1267
     32 H11         2.5658   -6.2826    1.3889 H         1 <0>         0.1361
     33 H12         0.6501   -2.9617   -3.1824 H         1 <0>         0.0999
     34 H13        -0.6821   -3.9065   -2.4747 H         1 <0>         0.0536
     35 H14        -1.0306   -2.4044   -3.3640 H         1 <0>         0.0536
@<TRIPOS>BOND
     1    1    2 1
     2    1   22 1
     3    1   23 1
     4    1   24 1
     5    2    7 ar
     6    2    3 ar
     7    3    4 ar
     8    3   25 1
     9    4    5 ar
    10    4   21 1
    11    5    6 ar
    12    5   11 1
    13    6    7 ar
    14    6    8 1
    15    7   26 1
    16    8    9 2
    17    8   10 1
    18   11   12 1
    19   11   27 1
    20   12   13 2
    21   12   14 2
    22   12   15 1
    23   15   20 ar
    24   15   16 ar
    25   16   17 ar
    26   16   28 1
    27   17   18 ar
    28   17   29 1
    29   18   19 ar
    30   18   30 1
    31   19   20 ar
    32   19   31 1
    33   20   32 1
    34   21   33 1
    35   21   34 1
    36   21   35 1
@<TRIPOS>MOLECULE
ZINC35930493
   28    29     0     0     0
SMALL
USER_CHARGES

@<TRIPOS>ATOM
      1 C1         -0.0167    1.3782    0.0096 C.ar      1 <0>        -0.0092
      2 C2          1.1706    2.0858    0.0021 C.ar      1 <0>        -0.1379
      3 C3          2.3780    1.4104   -0.0130 C.ar      1 <0>        -0.0017
      4 C4          2.3961    0.0270   -0.0206 C.ar      1 <0>        -0.1378
      5 C5          1.2082   -0.6795   -0.0130 C.ar      1 <0>        -0.0093
      6 C6          0.0021   -0.0041    0.0020 C.ar      1 <0>        -0.5920
      7 S1         -1.5119   -0.9054    0.0122 S.o2      1 <0>         2.5615
      8 O1         -1.2185   -2.1862    0.5533 O.2       1 <0>        -1.0373
      9 O2         -2.4924   -0.0460    0.5773 O.2       1 <0>        -1.0374
     10 N1         -1.9483   -1.1474   -1.5669 N.2       1 <0>        -0.9859
     11 C7         -3.1139   -1.8379   -1.8665 C.ar      1 <0>         0.3142
     12 C8         -3.9210   -2.3230   -0.8444 C.ar      1 <0>        -0.2831
     13 C9         -5.0794   -3.0087   -1.1444 C.ar      1 <0>        -0.0393
     14 C10        -5.4495   -3.2203   -2.4648 C.ar      1 <0>        -0.2024
     15 C11        -4.6635   -2.7476   -3.4923 C.ar      1 <0>        -0.0190
     16 C12        -3.4877   -2.0453   -3.2050 C.ar      1 <0>        -0.1930
     17 C13        -2.6463   -1.5327   -4.2964 C.2       1 <0>         0.5306
     18 O3         -2.9757   -1.7157   -5.4606 O.co2     1 <0>        -0.7341
     19 O4         -1.6167   -0.9231   -4.0406 O.co2     1 <0>        -0.6509
     20 Br1        -7.0413   -4.1633   -2.8556 Br        1 <0>        -0.1261
     21 Cl1         3.8696    2.2984   -0.0231 Cl        1 <0>        -0.0862
     22 H1         -0.9592    1.9053    0.0259 H         1 <0>         0.1457
     23 H2          1.1558    3.1656    0.0076 H         1 <0>         0.1341
     24 H3          3.3383   -0.5007   -0.0327 H         1 <0>         0.1341
     25 H4          1.2222   -1.7594   -0.0193 H         1 <0>         0.1457
     26 H5         -3.6404   -2.1632    0.1862 H         1 <0>         0.0975
     27 H6         -5.7026   -3.3838   -0.3460 H         1 <0>         0.1008
     28 H7         -4.9563   -2.9152   -4.5183 H         1 <0>         0.1185
@<TRIPOS>BOND
     1    1    6 ar
     2    1    2 ar
     3    1   22 1
     4    2    3 ar
     5    2   23 1
     6    3    4 ar
     7    3   21 1
     8    4    5 ar
     9    4   24 1
    10    5    6 ar
    11    5   25 1
    12    6    7 1
    13    7    8 2
    14    7    9 2
    15    7   10 1
    16   10   11 1
    17   11   16 ar
    18   11   12 ar
    19   12   13 ar
    20   12   26 1
    21   13   14 ar
    22   13   27 1
    23   14   15 ar
    24   14   20 1
    25   15   16 ar
    26   15   28 1
    27   16   17 1
    28   17   18 2
    29   17   19 1
@<TRIPOS>MOLECULE
ZINC00008492
   18    19     0     0     0
SMALL
USER_CHARGES

@<TRIPOS>ATOM
      1 C1         -0.0168    1.3878    0.0097 C.ar      1 <0>        -0.0990
      2 C2          1.1418    2.1039    0.0025 C.ar      1 <0>        -0.1067
      3 C3          2.3751    1.4328   -0.0129 C.ar      1 <0>        -0.0912
      4 C4          3.5933    2.1384   -0.0202 C.ar      1 <0>        -0.0602
      5 C5          4.7543    1.4193   -0.0348 C.ar      1 <0>        -0.1699
      6 C6          4.7094    0.0266   -0.0421 C.ar      1 <0>         0.1276
      7 N1          3.5730   -0.6267   -0.0356 N.ar      1 <0>        -0.4621
      8 C7          2.4020    0.0165   -0.0209 C.ar      1 <0>         0.0987
      9 C8          1.1823   -0.6917   -0.0134 C.ar      1 <0>         0.1347
     10 C9          0.0021   -0.0041    0.0020 C.ar      1 <0>        -0.1329
     11 O1          1.1812   -2.0501   -0.0211 O.3       1 <0>        -0.4819
     12 H1         -0.9635    1.9072    0.0261 H         1 <0>         0.1338
     13 H2          1.1120    3.1834    0.0082 H         1 <0>         0.1340
     14 H3          3.6093    3.2183   -0.0147 H         1 <0>         0.1421
     15 H4          5.7061    1.9295   -0.0410 H         1 <0>         0.1405
     16 H5          5.6353   -0.5292   -0.0536 H         1 <0>         0.1618
     17 H6         -0.9306   -0.5486    0.0080 H         1 <0>         0.1377
     18 H7          1.1892   -2.4484    0.8600 H         1 <0>         0.3930
@<TRIPOS>BOND
     1    1   10 ar
     2    1    2 ar
     3    1   12 1
     4    2    3 ar
     5    2   13 1
     6    3    8 ar
     7    3    4 ar
     8    4    5 ar
     9    4   14 1
    10    5    6 ar
    11    5   15 1
    12    6    7 ar
    13    6   16 1
    14    7    8 ar
    15    8    9 ar
    16    9   10 ar
    17    9   11 1
    18   10   17 1
    19   11   18 1
@<TRIPOS>MOLECULE
ZINC12481420
   27    29     0     0     0
SMALL
USER_CHARGES

@<TRIPOS>ATOM
      1 C1         -0.0184    1.5028    0.0103 C.3       1 <0>        -0.1140
      2 C2          0.0021   -0.0041    0.0020 C.ar      1 <0>        -0.0613
      3 C3          0.0057   -0.6865   -1.2068 C.ar      1 <0>        -0.1256
      4 C4          0.0241   -2.0516   -1.2364 C.ar      1 <0>        -0.0557
      5 C5          0.0400   -2.7748   -0.0387 C.ar      1 <0>         0.0424
      6 C6          0.0368   -2.0831    1.1861 C.ar      1 <0>         0.0599
      7 C7          0.0228   -0.6947    1.1949 C.ar      1 <0>        -0.1162
      8 N1          0.0549   -3.0476    2.1731 N.pl3     1 <0>        -0.5783
      9 H1          0.0571   -2.8915    3.1304 H         1 <0>         0.4303
     10 C8          0.0683   -4.2655    1.5486 C.2       1 <0>         0.3249
     11 N2          0.0594   -4.0980    0.2495 N.2       1 <0>        -0.4687
     12 C9          0.0906   -5.5751    2.2377 C.ar      1 <0>         0.1808
     13 C10         0.1085   -6.7508    1.4882 C.ar      1 <0>        -0.1190
     14 C11         0.1296   -7.9680    2.1473 C.ar      1 <0>        -0.0734
     15 C12         0.1322   -7.9700    3.5348 C.ar      1 <0>        -0.1583
     16 C13         0.1137   -6.7654    4.2154 C.ar      1 <0>         0.1064
     17 N3          0.0989   -5.6210    3.5645 N.ar      1 <0>        -0.4803
     18 H2          1.0042    1.8801    0.0026 H         1 <0>         0.0737
     19 H3         -0.5455    1.8639   -0.8728 H         1 <0>         0.0710
     20 H4         -0.5286    1.8543    0.9071 H         1 <0>         0.0672
     21 H5         -0.0065   -0.1320   -2.1335 H         1 <0>         0.1322
     22 H6          0.0260   -2.5721   -2.1827 H         1 <0>         0.1327
     23 H7          0.0240   -0.1583    2.1323 H         1 <0>         0.1252
     24 H8          0.1055   -6.7124    0.4089 H         1 <0>         0.1516
     25 H9          0.1435   -8.8953    1.5938 H         1 <0>         0.1450
     26 H10         0.1482   -8.9030    4.0784 H         1 <0>         0.1427
     27 H11         0.1153   -6.7639    5.2954 H         1 <0>         0.1647
@<TRIPOS>BOND
     1    1    2 1
     2    1   18 1
     3    1   19 1
     4    1   20 1
     5    2    7 ar
     6    2    3 ar
     7    3    4 ar
     8    3   21 1
     9    4    5 ar
    10    4   22 1
    11    5   11 1
    12    5    6 ar
    13    6    7 ar
    14    6    8 1
    15    7   23 1
    16    8    9 1
    17    8   10 1
    18   10   11 2
    19   10   12 1
    20   12   17 ar
    21   12   13 ar
    22   13   14 ar
    23   13   24 1
    24   14   15 ar
    25   14   25 1
    26   15   16 ar
    27   15   26 1
    28   16   17 ar
    29   16   27 1
@<TRIPOS>MOLECULE
ZINC14964411
   32    33     0     0     0
SMALL
USER_CHARGES

@<TRIPOS>ATOM
      1 C1          0.6686    1.4487    0.4399 C.3       1 <0>        -0.1043
      2 C2          0.5066   -0.0446    0.3174 C.ar      1 <0>        -0.1279
      3 C3          0.4096   -0.6269   -0.9374 C.ar      1 <0>        -0.0956
      4 C4          0.2611   -1.9921   -1.0651 C.ar      1 <0>        -0.1958
      5 C5          0.2077   -2.7959    0.0674 C.ar      1 <0>         0.1815
      6 C6          0.3057   -2.2095    1.3406 C.ar      1 <0>        -0.1525
      7 C7          0.4616   -0.8233    1.4517 C.ar      1 <0>        -0.0611
      8 C8          0.2507   -3.0472    2.5477 C.2       1 <0>         0.5252
      9 O1          0.3364   -2.5322    3.6543 O.co2     1 <0>        -0.6816
     10 O2          0.1192   -4.2595    2.4456 O.co2     1 <0>        -0.6824
     11 N1          0.0579   -4.1692   -0.0583 N.pl3     1 <0>        -1.0221
     12 S1          0.7795   -4.9691   -1.3161 S.o2      1 <0>         2.6888
     13 O3          0.5557   -6.3553   -1.0976 O.2       1 <0>        -0.9585
     14 O4          0.3690   -4.3094   -2.5058 O.2       1 <0>        -0.9626
     15 C9          2.5163   -4.7102   -1.1702 C.ar      1 <0>        -0.6687
     16 C10         3.1069   -3.6222   -1.7852 C.ar      1 <0>        -0.0154
     17 C11         4.4695   -3.4191   -1.6708 C.ar      1 <0>        -0.1448
     18 C12         5.2413   -4.3038   -0.9411 C.ar      1 <0>        -0.0667
     19 C13         4.6505   -5.3913   -0.3254 C.ar      1 <0>        -0.1433
     20 C14         3.2873   -5.5921   -0.4362 C.ar      1 <0>        -0.0102
     21 H1          1.7290    1.7007    0.4359 H         1 <0>         0.0621
     22 H2          0.1757    1.9377   -0.4004 H         1 <0>         0.0594
     23 H3          0.2181    1.7877    1.3728 H         1 <0>         0.0622
     24 H4          0.4502   -0.0070   -1.8208 H         1 <0>         0.1194
     25 H5          0.1860   -2.4370   -2.0464 H         1 <0>         0.1543
     26 H6          0.5421   -0.3646    2.4261 H         1 <0>         0.1290
     27 H7         -0.4694   -4.6610    0.5905 H         1 <0>         0.4414
     28 H8          2.5039   -2.9310   -2.3553 H         1 <0>         0.1393
     29 H9          4.9311   -2.5694   -2.1518 H         1 <0>         0.1303
     30 H10         6.3059   -4.1455   -0.8523 H         1 <0>         0.1279
     31 H11         5.2535   -6.0827    0.2445 H         1 <0>         0.1314
     32 H12         2.8251   -6.4397    0.0479 H         1 <0>         0.1412
@<TRIPOS>BOND
     1    1    2 1
     2    1   21 1
     3    1   22 1
     4    1   23 1
     5    2    7 ar
     6    2    3 ar
     7    3    4 ar
     8    3   24 1
     9    4    5 ar
    10    4   25 1
    11    5    6 ar
    12    5   11 1
    13    6    7 ar
    14    6    8 1
    15    7   26 1
    16    8    9 2
    17    8   10 1
    18   11   12 1
    19   11   27 1
    20   12   13 2
    21   12   14 2
    22   12   15 1
    23   15   20 ar
    24   15   16 ar
    25   16   17 ar
    26   16   28 1
    27   17   18 ar
    28   17   29 1
    29   18   19 ar
    30   18   30 1
    31   19   20 ar
    32   19   31 1
    33   20   32 1
@<TRIPOS>MOLECULE
ZINC03914617
   55    57     0     0     0
SMALL
USER_CHARGES
[5-methoxy-4-[2-methyl-3-(3-methylbut-2-enyl)oxiran-2-yl]-1-oxaspiro[2.5]oct-6-yl] (2-chloroacetyl)aminoformate
@<TRIPOS>ATOM
      1 C1          3.0995    5.4501    3.0584 C.3       1 <0>        -0.1212
      2 C2          3.1031    6.0930    1.6954 C.2       1 <0>        -0.1266
      3 C3          2.9985    5.3509    0.6209 C.2       1 <0>        -0.1670
      4 C4          2.9954    3.8486    0.7401 C.3       1 <0>        -0.0818
      5 C5          1.7068    3.2914    0.1319 C.3       1 <0>         0.0158
      6 H1          0.8440    3.9569    0.1604 H         1 <0>         0.1175
      7 C6          1.4518    1.7879    0.2562 C.3       1 <0>         0.0148
      8 O1          1.8246    2.4011   -0.9796 O.3       1 <0>        -0.3310
      9 C7          2.5028    0.9440    0.9801 C.3       1 <0>        -0.1280
     10 C8          0.0031    1.3210    0.4119 C.3       1 <0>        -0.0308
     11 H2         -0.0191    0.2401    0.5506 H         1 <0>         0.1178
     12 C9         -0.6294    2.0073    1.6268 C.3       1 <0>         0.1068
     13 H3         -0.5521    3.0887    1.5144 H         1 <0>         0.0895
     14 C10        -2.1026    1.6089    1.7269 C.3       1 <0>         0.0902
     15 H4         -2.5381    2.0534    2.6218 H         1 <0>         0.0979
     16 C11        -2.8592    2.1062    0.4942 C.3       1 <0>        -0.1388
     17 C12        -2.2995    1.4231   -0.7576 C.3       1 <0>        -0.0907
     18 C13        -0.7929    1.6934   -0.8411 C.3       1 <0>         0.0061
     19 C14        -0.1075    1.5392   -2.1971 C.3       1 <0>        -0.0053
     20 O2         -0.3542    2.8160   -1.6034 O.3       1 <0>        -0.3311
     21 O3         -2.2072    0.1628    1.8064 O.3       1 <0>        -0.3420
     22 C15        -3.2531   -0.3375    2.4899 C.2       1 <0>         0.6432
     23 O4         -4.0566    0.4132    3.0057 O.2       1 <0>        -0.5046
     24 N1         -3.4090   -1.6715    2.6018 N.am      1 <0>        -0.6591
     25 C16        -4.4564   -2.1725    3.2862 C.2       1 <0>         0.5070
     26 O5         -5.2583   -1.4232    3.8011 O.2       1 <0>        -0.4348
     27 C17        -4.6306   -3.6642    3.4114 C.3       1 <0>        -0.0645
     28 Cl1        -6.1121   -4.0173    4.3765 Cl        1 <0>        -0.1145
     29 O6          0.0556    1.6015    2.8134 O.3       1 <0>        -0.3666
     30 C18         0.0610    2.5877    3.8476 C.3       1 <0>         0.0222
     31 C19         3.2270    7.5895    1.5684 C.3       1 <0>        -0.1197
     32 H5          3.9838    4.8221    3.1662 H         1 <0>         0.0675
     33 H6          3.1081    6.2246    3.8253 H         1 <0>         0.0620
     34 H7          2.2039    4.8388    3.1694 H         1 <0>         0.0653
     35 H8          2.9145    5.8157   -0.3503 H         1 <0>         0.1098
     36 H9          3.0521    3.5674    1.7917 H         1 <0>         0.0882
     37 H10         3.8545    3.4401    0.2080 H         1 <0>         0.0823
     38 H11         2.5233   -0.0576    0.5506 H         1 <0>         0.0666
     39 H12         3.4825    1.4081    0.8668 H         1 <0>         0.0659
     40 H13         2.2512    0.8802    2.0388 H         1 <0>         0.0878
     41 H14        -3.9177    1.8668    0.5964 H         1 <0>         0.0848
     42 H15        -2.7378    3.1857    0.4043 H         1 <0>         0.0891
     43 H16        -2.4744    0.3490   -0.6964 H         1 <0>         0.0886
     44 H17        -2.7929    1.8234   -1.6433 H         1 <0>         0.0821
     45 H18         0.9195    1.1742   -2.2086 H         1 <0>         0.1189
     46 H19        -0.7236    1.2467   -3.0474 H         1 <0>         0.1032
     47 H20        -2.7673   -2.2711    2.1898 H         1 <0>         0.4224
     48 H21        -4.7306   -4.1029    2.4186 H         1 <0>         0.1339
     49 H22        -3.7611   -4.0909    3.9113 H         1 <0>         0.1342
     50 H23         0.5521    3.4910    3.4856 H         1 <0>         0.0469
     51 H24        -0.9649    2.8212    4.1323 H         1 <0>         0.0433
     52 H25         0.5999    2.2032    4.7135 H         1 <0>         0.0928
     53 H26         2.2338    8.0383    1.5766 H         1 <0>         0.0666
     54 H27         3.8083    7.9782    2.4045 H         1 <0>         0.0644
     55 H28         3.7287    7.8344    0.6322 H         1 <0>         0.0628
@<TRIPOS>BOND
     1    1    2 1
     2    1   32 1
     3    1   33 1
     4    1   34 1
     5    2    3 2
     6    2   31 1
     7    3    4 1
     8    3   35 1
     9    4    5 1
    10    4   36 1
    11    4   37 1
    12    5    6 1
    13    5    8 1
    14    5    7 1
    15    7    8 1
    16    7    9 1
    17    7   10 1
    18    9   38 1
    19    9   39 1
    20    9   40 1
    21   10   11 1
    22   10   18 1
    23   10   12 1
    24   12   13 1
    25   12   14 1
    26   12   29 1
    27   14   15 1
    28   14   16 1
    29   14   21 1
    30   16   17 1
    31   16   41 1
    32   16   42 1
    33   17   18 1
    34   17   43 1
    35   17   44 1
    36   18   20 1
    37   18   19 1
    38   19   20 1
    39   19   45 1
    40   19   46 1
    41   21   22 1
    42   22   23 2
    43   22   24 am
    44   24   25 am
    45   24   47 1
    46   25   26 2
    47   25   27 1
    48   27   28 1
    49   27   48 1
    50   27   49 1
    51   29   30 1
    52   30   50 1
    53   30   51 1
    54   30   52 1
    55   31   53 1
    56   31   54 1
    57   31   55 1
@<TRIPOS>MOLECULE
ZINC03925938
   45    47     0     0     0
SMALL
USER_CHARGES
4-hydroxy-5-methoxy-4-[2-methyl-3-(3-methylbut-2-enyl)oxiran-2-yl]-1-oxaspiro[2.5]octan-6-one
@<TRIPOS>ATOM
      1 C1         -2.3325    8.0989    3.7801 C.3       1 <0>        -0.1233
      2 C2         -3.2582    7.2223    4.5837 C.2       1 <0>        -0.1234
      3 C3         -3.7470    6.1279    4.0550 C.2       1 <0>        -0.1691
      4 C4         -3.4872    5.8104    2.6050 C.3       1 <0>        -0.0861
      5 C5         -2.8577    4.4205    2.4920 C.3       1 <0>         0.0118
      6 H1         -2.2753    4.0932    3.3533 H         1 <0>         0.1293
      7 C6         -2.4065    3.9526    1.1070 C.3       1 <0>         0.0255
      8 O1         -3.5687    3.4252    1.7498 O.3       1 <0>        -0.3127
      9 C7         -2.6145    4.9069   -0.0707 C.3       1 <0>        -0.1453
     10 C8         -1.1687    3.0570    1.0252 C.3       1 <0>         0.1988
     11 C9         -1.1825    2.2829   -0.3044 C.3       1 <0>         0.0294
     12 H2         -1.3229    2.9219   -1.0607 H         1 <0>         0.0958
     13 C10         0.1452    1.5768   -0.4583 C.2       1 <0>         0.3240
     14 O2          0.1890    0.3853   -0.6499 O.2       1 <0>        -0.4185
     15 C11         1.4170    2.3895   -0.3744 C.3       1 <0>        -0.1598
     16 C12         1.4170    3.1642    0.9492 C.3       1 <0>        -0.0928
     17 C13         0.0933    3.9208    1.0816 C.3       1 <0>        -0.0218
     18 C14         0.0679    5.1648    1.9683 C.3       1 <0>        -0.0160
     19 O3          0.0228    5.2398    0.5416 O.3       1 <0>        -0.3228
     20 O4         -2.2387    1.3205   -0.2905 O.3       1 <0>        -0.3428
     21 C15        -2.7697    1.0215   -1.5831 C.3       1 <0>         0.0256
     22 O5         -1.1681    2.1370    2.1186 O.3       1 <0>        -0.5153
     23 C16        -3.6216    7.6047    5.9953 C.3       1 <0>        -0.1203
     24 H3         -2.8725    8.5134    2.9288 H         1 <0>         0.0676
     25 H4         -1.9652    8.9109    4.4077 H         1 <0>         0.0632
     26 H5         -1.4903    7.5065    3.4227 H         1 <0>         0.0664
     27 H6         -4.3361    5.4532    4.6585 H         1 <0>         0.1125
     28 H7         -2.8071    6.5524    2.1867 H         1 <0>         0.0901
     29 H8         -4.4280    5.8289    2.0548 H         1 <0>         0.0861
     30 H9         -2.7376    4.3309   -0.9878 H         1 <0>         0.0640
     31 H10        -3.5064    5.5090    0.1027 H         1 <0>         0.0761
     32 H11        -1.7476    5.5608   -0.1660 H         1 <0>         0.1048
     33 H12         2.2068    1.7772   -0.4110 H         1 <0>         0.0930
     34 H13         1.4605    3.0881   -1.2100 H         1 <0>         0.1067
     35 H14         1.5234    2.4668    1.7802 H         1 <0>         0.0955
     36 H15         2.2461    3.8716    0.9581 H         1 <0>         0.1016
     37 H16        -0.8492    5.3786    2.5174 H         1 <0>         0.1217
     38 H17         0.9947    5.4549    2.4633 H         1 <0>         0.1206
     39 H18        -1.9785    0.6215   -2.2172 H         1 <0>         0.0446
     40 H19        -3.5662    0.2836   -1.4869 H         1 <0>         0.0956
     41 H20        -3.1694    1.9313   -2.0310 H         1 <0>         0.0433
     42 H21        -0.4113    1.5350    2.1257 H         1 <0>         0.3804
     43 H22        -2.9021    7.1667    6.6871 H         1 <0>         0.0680
     44 H23        -3.6055    8.6902    6.0933 H         1 <0>         0.0647
     45 H24        -4.6202    7.2339    6.2266 H         1 <0>         0.0633
@<TRIPOS>BOND
     1    1    2 1
     2    1   24 1
     3    1   25 1
     4    1   26 1
     5    2    3 2
     6    2   23 1
     7    3    4 1
     8    3   27 1
     9    4    5 1
    10    4   28 1
    11    4   29 1
    12    5    6 1
    13    5    8 1
    14    5    7 1
    15    7    8 1
    16    7    9 1
    17    7   10 1
    18    9   30 1
    19    9   31 1
    20    9   32 1
    21   10   17 1
    22   10   11 1
    23   10   22 1
    24   11   12 1
    25   11   13 1
    26   11   20 1
    27   13   14 2
    28   13   15 1
    29   15   16 1
    30   15   33 1
    31   15   34 1
    32   16   17 1
    33   16   35 1
    34   16   36 1
    35   17   19 1
    36   17   18 1
    37   18   19 1
    38   18   37 1
    39   18   38 1
    40   20   21 1
    41   21   39 1
    42   21   40 1
    43   21   41 1
    44   22   42 1
    45   23   43 1
    46   23   44 1
    47   23   45 1
